#------------------------------------------------------------------------------
#$Date: 2015-06-07 00:33:07 +0300 (Sun, 07 Jun 2015) $
#$Revision: 138472 $
#$URL: svn://www.crystallography.net/cod/cif/1/51/94/1519422.cif $
#------------------------------------------------------------------------------
#
# This file is available in the Crystallography Open Database (COD),
# http://www.crystallography.net/
#
# All data on this site have been placed in the public domain by the
# contributors.
#
data_1519422
loop_
_publ_author_name
'Thiehoff, C.'
'Holland, M. C.'
'Daniliuc, C.'
'Houk, K. N.'
'Gilmour, R.'
_publ_section_title
;
 Can acyclic conformational control be achieved via a sulfur--fluorine
 gauche effect?
;
_journal_issue                   6
_journal_name_full               'Chem. Sci.'
_journal_page_first              3565
_journal_paper_doi               10.1039/C5SC00871A
_journal_volume                  6
_journal_year                    2015
_chemical_formula_sum            'C8 H8 F N O4 S'
_chemical_formula_weight         233.21
_space_group_crystal_system      triclinic
_space_group_IT_number           2
_space_group_name_Hall           '-P 1'
_space_group_name_H-M_alt        'P -1'
_symmetry_space_group_name_Hall  '-P 1'
_symmetry_space_group_name_H-M   'P -1'
_atom_sites_solution_hydrogens   geom
_audit_update_record
;
2015-02-06 deposited with the CCDC.
2015-04-17 downloaded from the CCDC.
;
_cell_angle_alpha                86.0450(12)
_cell_angle_beta                 76.9930(12)
_cell_angle_gamma                78.2660(12)
_cell_formula_units_Z            2
_cell_length_a                   7.2161(3)
_cell_length_b                   7.3574(3)
_cell_length_c                   9.1736(4)
_cell_measurement_reflns_used    9733
_cell_measurement_temperature    100.(2)
_cell_measurement_theta_max      68.3167
_cell_measurement_theta_min      4.9494
_cell_volume                     464.49(3)
_computing_cell_refinement       'SAINT V8.34A (Bruker AXS Inc., 2013)'
_computing_data_collection
;
APEX2 v.2014.1-1 (Bruker AXS Inc., 2014)

;
_computing_data_reduction        'SAINT V8.34A (Bruker AXS Inc., 2013)'
_computing_molecular_graphics    'XP (Sheldrick, 2014)'
_computing_publication_material  'SHELXL-2014 (Sheldrick, 2014)'
_computing_structure_refinement  'SHELXL-2014 (Sheldrick, 2014)'
_computing_structure_solution    'SHELXL-2014 (Sheldrick, 2014)'
_diffrn_ambient_temperature      100.(2)
_diffrn_detector_area_resol_mean 10.4167
_diffrn_measured_fraction_theta_full 0.996
_diffrn_measured_fraction_theta_max 0.996
_diffrn_measurement_device_type  'Bruker D8 Venture PHOTON 100 CMOS'
_diffrn_measurement_method       'omega and phi scans'
_diffrn_radiation_monochromator  'MX mirror'
_diffrn_radiation_type           'Cu K\a'
_diffrn_radiation_wavelength     1.54178
_diffrn_reflns_av_R_equivalents  0.0467
_diffrn_reflns_av_unetI/netI     0.0250
_diffrn_reflns_limit_h_max       8
_diffrn_reflns_limit_h_min       -8
_diffrn_reflns_limit_k_max       8
_diffrn_reflns_limit_k_min       -8
_diffrn_reflns_limit_l_max       11
_diffrn_reflns_limit_l_min       -11
_diffrn_reflns_number            11607
_diffrn_reflns_theta_full        68.24
_diffrn_reflns_theta_max         68.24
_diffrn_reflns_theta_min         4.95
_diffrn_source                   'Cu ImS'
_diffrn_source_type              'micro focus tube'
_exptl_absorpt_coefficient_mu    3.264
_exptl_absorpt_correction_T_max  0.77
_exptl_absorpt_correction_T_min  0.60
_exptl_absorpt_correction_type   multi-scan
_exptl_absorpt_process_details
;
Bruker AXS (2014). SADABS, Version 2014/2, Bruker AXS Inc., Madison, Wisconsin,
USA.
;
_exptl_crystal_colour            colourless
_exptl_crystal_density_diffrn    1.667
_exptl_crystal_density_method    'not measured'
_exptl_crystal_description       prism
_exptl_crystal_F_000             240
_exptl_crystal_size_max          0.311
_exptl_crystal_size_mid          0.207
_exptl_crystal_size_min          0.086
_refine_diff_density_max         0.368
_refine_diff_density_min         -0.327
_refine_ls_extinction_method     none
_refine_ls_goodness_of_fit_ref   1.049
_refine_ls_hydrogen_treatment    constr
_refine_ls_matrix_type           full
_refine_ls_number_parameters     136
_refine_ls_number_reflns         1699
_refine_ls_number_restraints     0
_refine_ls_restrained_S_all      1.049
_refine_ls_R_factor_all          0.0299
_refine_ls_R_factor_gt           0.0290
_refine_ls_shift/su_max          0.000
_refine_ls_shift/su_mean         0.000
_refine_ls_structure_factor_coef Fsqd
_refine_ls_weighting_details
'w=1/[\s^2^(Fo^2^)+(0.0341P)^2^+0.3353P] where P=(Fo^2^+2Fc^2^)/3'
_refine_ls_weighting_scheme      calc
_refine_ls_wR_factor_gt          0.0745
_refine_ls_wR_factor_ref         0.0753
_reflns_number_gt                1631
_reflns_number_total             1699
_reflns_threshold_expression     'I > 2\s(I)'
_cod_data_source_file            c5sc00871a2.cif
_cod_data_source_block           gil7727
_cod_depositor_comments
'Adding full bibliography for 1519418--1519422.cif.'
_cod_database_code               1519422
_shelx_res_file
;
gil7727.res created by SHELXL-2014/7

TITL gil7727 in P-1
CELL  1.54178   7.2161   7.3574   9.1736   86.045   76.993   78.266
ZERR    2.00   0.00030   0.00030   0.00040   0.0012   0.0012   0.0012
LATT 1
SFAC C  H  N  O  F  S
UNIT 16  16  2  8  2  2
SIZE 0.086 0.207 0.311
TEMP -173.150
ACTA
CONF

L.S. 10
BOND $H
FMAP 2
PLAN 10

OMIT -4  -3   6

EQIV $1 -x+1, -y+2, -z+1
HTAB C1 O4_$1
EQIV $2 x+1, y, z-1
HTAB C1 O4_$2
EQIV $4 -x+1, -y+2, -z
HTAB C2 F1_$4
EQIV $5 -x+1, -y+1, -z
HTAB C4 O2_$5
EQIV $6 x-1, y, z
HTAB C5 O1_$6
HTAB C7 F1_$1

WGHT    0.034100    0.335300
FVAR       0.83897
S1    6    0.718042    0.559946    0.148755    11.00000    0.01210    0.01543 =
         0.01344   -0.00155   -0.00410   -0.00177
F1    5    0.584521    1.000020    0.156048    11.00000    0.02532    0.01751 =
         0.01993   -0.00287   -0.00077   -0.00260
N1    3    0.022790    0.825485    0.628296    11.00000    0.01663    0.01914 =
         0.01596    0.00045   -0.00412   -0.00119
O1    4    0.889133    0.548557    0.208279    11.00000    0.01330    0.02398 =
         0.01805   -0.00218   -0.00618   -0.00048
O2    4    0.687408    0.395289    0.088723    11.00000    0.01943    0.01632 =
         0.01896   -0.00348   -0.00463   -0.00273
O3    4   -0.132317    0.787966    0.618755    11.00000    0.01389    0.03778 =
         0.02452   -0.00421   -0.00374   -0.00514
O4    4    0.041482    0.916361    0.729161    11.00000    0.02376    0.03042 =
         0.02044   -0.00994   -0.00308   -0.00296
C1    1    0.746030    0.919116    0.048535    11.00000    0.01665    0.02062 =
         0.01943   -0.00208   -0.00078   -0.00447
AFIX  23
H1A   2    0.864176    0.900537    0.089851    11.00000   -1.20000
H1B   2    0.763559    1.002542   -0.040816    11.00000   -1.20000
AFIX   0
C2    1    0.716322    0.734875    0.004916    11.00000    0.01560    0.01815 =
         0.01439   -0.00071   -0.00333   -0.00277
AFIX  23
H2A   2    0.819588    0.689831   -0.082888    11.00000   -1.20000
H2B   2    0.590711    0.754169   -0.026009    11.00000   -1.20000
AFIX   0
C3    1    0.512883    0.639850    0.293287    11.00000    0.01512    0.01442 =
         0.01320    0.00070   -0.00366   -0.00289
C4    1    0.332434    0.618612    0.275759    11.00000    0.01846    0.02074 =
         0.01562   -0.00249   -0.00635   -0.00505
AFIX  43
H4    2    0.320107    0.564001    0.188408    11.00000   -1.20000
AFIX   0
C5    1    0.170648    0.678040    0.387219    11.00000    0.01413    0.02141 =
         0.01914   -0.00021   -0.00621   -0.00472
AFIX  43
H5    2    0.045595    0.663893    0.378668    11.00000   -1.20000
AFIX   0
C6    1    0.196054    0.758627    0.511451    11.00000    0.01510    0.01560 =
         0.01400    0.00086   -0.00258   -0.00153
C7    1    0.375061    0.781365    0.530876    11.00000    0.01937    0.01617 =
         0.01395   -0.00109   -0.00670   -0.00347
AFIX  43
H7    2    0.386684    0.837058    0.617964    11.00000   -1.20000
AFIX   0
C8    1    0.536616    0.720200    0.419098    11.00000    0.01498    0.01689 =
         0.01758    0.00078   -0.00689   -0.00435
AFIX  43
H8    2    0.661800    0.733028    0.428365    11.00000   -1.20000
AFIX   0
HKLF 4

REM  gil7727 in P-1
REM R1 =  0.0290 for    1631 Fo > 4sig(Fo)  and  0.0299 for all    1699 data
REM    136 parameters refined using      0 restraints

END

WGHT      0.0341      0.3353

REM Highest difference peak  0.368,  deepest hole -0.327,  1-sigma level  0.053
Q1    1   0.7131  0.6690  0.0778  11.00000  0.05    0.37
Q2    1   0.6020  0.6037  0.2290  11.00000  0.05    0.36
Q3    1   0.5272  0.6537  0.3618  11.00000  0.05    0.24
Q4    1   0.7762  0.5569  0.2615  11.00000  0.05    0.22
Q5    1   0.1956  0.6886  0.4651  11.00000  0.05    0.22
Q6    1   0.8408  0.6546 -0.0378  11.00000  0.05    0.20
Q7    1   0.4348  0.6193  0.2827  11.00000  0.05    0.19
Q8    1   0.2704  0.7666  0.5235  11.00000  0.05    0.19
Q9    1   0.8678  0.5505  0.1357  11.00000  0.05    0.19
Q10   1   0.5947  0.6836 -0.0442  11.00000  0.05    0.18
;
_shelx_res_checksum              2942
_shelx_hkl_file
;
  -1   0   0   28.30    1.70
  -1   0   0   23.70    1.70
  -1   0   0   27.40    1.70
  -1   0   0   29.40    1.70
  -1   0   0   30.70    1.80
  -1   0   0   26.40    1.80
   1   0   0   24.20    1.70
   1   0   0   25.40    1.70
   1   0   0   27.90    1.70
   1   0   0   29.60    1.80
   1   0   0   25.60    1.70
  -2   0   0  328.67   19.10
  -2   0   0  303.27   19.10
  -2   0   0  323.07   19.20
  -2   0   0  320.67   19.20
  -2   0   0  311.87   19.20
   2   0   0  267.27   19.10
   2   0   0  319.97   19.20
   2   0   0  344.57   19.20
   2   0   0  309.67   19.20
  -3   0   0  163.48   10.40
  -3   0   0  176.38   10.30
  -3   0   0  180.68   10.30
  -3   0   0  174.38   10.50
   3   0   0  144.09   10.30
   3   0   0  162.08   10.60
   3   0   0  166.18   10.40
   3   0   0  176.48   10.40
  -4   0   0   31.80    2.40
  -4   0   0   33.60    3.00
  -4   0   0   36.20    2.60
  -4   0   0   37.90    2.30
  -4   0   0   35.50    2.30
  -4   0   0   29.60    2.50
  -4   0   0   32.60    2.50
  -4   0   0   31.70    2.40
   4   0   0   36.50    2.20
   4   0   0   32.00    2.40
   4   0   0   34.90    2.80
   4   0   0   31.90    3.50
   4   0   0   36.10    2.40
  -5   0   0  211.38   13.30
  -5   0   0  209.78   13.20
  -5   0   0  214.48   13.20
  -5   0   0  214.98   13.10
  -5   0   0  209.58   13.50
  -5   0   0  209.78   13.20
   5   0   0  199.48   13.10
   5   0   0  211.68   13.00
   5   0   0  218.88   13.00
   5   0   0  217.48   13.20
  -6   0   0    2.30    1.20
  -6   0   0    1.90    1.00
  -6   0   0    1.80    0.60
  -6   0   0    1.70    0.80
   6   0   0    3.10    1.40
   6   0   0    0.40    0.70
   6   0   0    2.10    0.90
  -7   0   0  204.08   13.00
  -7   0   0  201.08   13.10
   7   0   0  207.88   13.00
   7   0   0  228.98   13.00
  -8   0   0    1.10    0.40
  -8   0   0    1.90    1.20
  -8   0   0    0.60    0.50
  -8   0   0    0.40    0.60
   8   0   0    0.30    0.90
   8   0   0    0.00    0.40
   8  -1   0    4.30    0.60
  -8   1   0    5.10    0.80
  -8   1   0    3.80    0.60
  -8   1   0    3.70    0.60
   7  -1   0  173.58   10.80
   7  -1   0  152.48   10.90
   7  -1   0  188.38   10.80
  -7   1   0  173.28   10.90
  -7   1   0  169.78   10.90
  -7   1   0  190.98   10.90
   6  -1   0  645.54   40.30
   6  -1   0  636.84   40.00
  -6   1   0  580.14   40.10
  -6   1   0  699.73   40.20
  -6   1   0  659.73   40.10
  -6   1   0  718.33   40.10
   5  -1   0 1093.29   66.49
   5  -1   0 1132.79   66.49
   5  -1   0 1134.29   66.69
   5  -1   0 1016.50   66.59
   5  -1   0 1070.59   66.49
  -5   1   0 1097.89   66.59
  -5   1   0 1133.09   66.59
  -5   1   0 1023.20   66.59
  -5   1   0 1120.79   66.59
  -5   1   0 1116.19   66.59
   4  -1   0   25.30    1.90
   4  -1   0   23.70    1.70
   4  -1   0   23.00    1.80
   4  -1   0   22.80    2.70
  -4   1   0   22.30    2.30
  -4   1   0   23.20    1.90
  -4   1   0   23.70    1.90
  -4   1   0   25.00    1.90
  -4   1   0   22.00    2.10
  -4   1   0   27.20    1.70
  -4   1   0   27.20    2.30
  -4   1   0   21.00    2.20
  -4   1   0   21.30    3.00
   3  -1   0   53.99    3.30
   3  -1   0   43.40    3.20
   3  -1   0   49.60    3.50
   3  -1   0   50.39    3.10
  -3   1   0   50.89    3.40
  -3   1   0   52.09    3.10
  -3   1   0   52.79    3.20
  -3   1   0   42.90    3.20
  -3   1   0   44.40    3.10
  -3   1   0   47.50    3.50
  -3   1   0   51.39    3.30
   2  -1   0 1267.97   76.09
   2  -1   0 1143.99   76.09
   2  -1   0 1319.27   76.39
   2  -1   0 1305.37   76.09
  -2   1   0 1314.07   76.29
  -2   1   0 1268.47   76.19
  -2   1   0 1077.99   75.99
  -2   1   0 1273.27   76.19
  -2   1   0 1280.97   76.09
  -2   1   0 1273.67   76.29
   1  -1   0  136.89    8.40
   1  -1   0  138.69    8.40
   1  -1   0  137.89    8.40
  -1   1   0  141.59    8.40
  -1   1   0  125.39    8.30
  -1   1   0  143.99    8.40
  -1   1   0  137.29    8.30
  -1   1   0  128.69    8.30
   0  -1   0  451.05   26.40
   0  -1   0  474.15   26.40
   0  -1   0  412.16   26.30
   0  -1   0  372.36   26.30
   0  -1   0  422.86   26.40
   0   1   0  447.66   26.30
   0   1   0  434.06   26.30
   0   1   0  441.06   26.30
   0   1   0  447.16   26.40
  -1  -1   0  106.29    6.60
  -1  -1   0  113.99    6.50
  -1  -1   0   98.69    6.60
   1   1   0  117.19    6.50
   1   1   0  102.39    6.50
   1   1   0   96.09    6.50
   1   1   0  114.89    6.50
  -2  -1   0  724.93   45.20
  -2  -1   0  708.03   45.10
  -2  -1   0  750.92   45.10
  -2  -1   0  729.23   45.10
   2   1   0  708.73   45.10
   2   1   0  799.02   45.10
   2   1   0  771.82   45.10
  -3  -1   0    1.20    0.40
  -3  -1   0    2.10    0.50
  -3  -1   0    2.00    0.70
  -3  -1   0    1.40    0.60
  -3  -1   0    2.00    0.40
  -3  -1   0    1.50    0.30
   3   1   0    1.60    0.40
   3   1   0    1.50    0.50
   3   1   0    1.70    0.60
   3   1   0    1.10    0.40
   3   1   0    1.00    0.30
  -4  -1   0    1.10    1.10
  -4  -1   0    0.90    0.50
  -4  -1   0    0.90    0.60
  -4  -1   0    1.10    0.70
  -4  -1   0    0.60    0.70
  -4  -1   0    1.00    0.90
  -4  -1   0    1.90    0.60
  -4  -1   0    0.10    0.70
   4   1   0    0.80    0.90
   4   1   0    0.80    0.60
   4   1   0    0.90    0.30
   4   1   0    1.40    0.50
   4   1   0    0.00    1.30
  -5  -1   0  423.26   27.60
  -5  -1   0  476.65   27.70
  -5  -1   0  434.56   27.60
  -5  -1   0  438.86   27.60
  -5  -1   0  458.05   28.00
  -5  -1   0  419.96   27.70
  -5  -1   0  463.75   27.60
   5   1   0  466.05   27.50
   5   1   0  459.25   27.60
   5   1   0  474.35   27.80
  -6  -1   0  246.38   16.10
  -6  -1   0  266.67   16.20
  -6  -1   0  274.07   17.50
  -6  -1   0  265.17   16.20
  -6  -1   0  269.17   16.30
  -6  -1   0  261.17   16.20
  -6  -1   0  247.98   16.20
   6   1   0  266.77   16.40
   6   1   0  255.47   16.10
   6   1   0  268.17   16.10
  -7  -1   0   11.50    1.30
  -7  -1   0   12.10    1.40
  -7  -1   0   10.60    1.50
   7   1   0    9.30    1.40
   7   1   0   12.80    1.20
   7   1   0   10.10    1.40
  -8  -1   0    1.90    0.80
  -8  -1   0    1.80    0.60
  -8  -1   0    1.50    0.50
  -8  -1   0    0.90    0.50
   8   1   0    2.00    0.70
   8   1   0    2.00    1.30
   8   1   0    1.40    1.00
   7  -2   0   65.09    3.80
   7  -2   0   52.79    4.40
  -7   2   0   61.19    3.90
  -7   2   0   52.69    3.90
  -7   2   0   61.89    3.90
   6  -2   0   98.09    6.70
   6  -2   0  114.59    6.70
   6  -2   0   98.39    6.60
   6  -2   0  109.79    6.50
   6  -2   0   85.59    7.50
  -6   2   0  109.49    6.70
  -6   2   0  107.29    6.70
  -6   2   0  105.39    6.70
   5  -2   0  535.45   31.50
   5  -2   0  528.85   31.50
   5  -2   0  498.15   31.60
  -5   2   0  502.95   31.50
  -5   2   0  511.35   31.60
  -5   2   0  509.05   31.60
  -5   2   0  544.95   31.60
  -5   2   0  496.95   31.70
   4  -2   0    1.70    0.80
   4  -2   0    2.10    0.60
   4  -2   0    1.60    0.70
   4  -2   0    2.00    0.60
   4  -2   0    2.40    3.90
   4  -2   0    3.00    1.00
  -4   2   0    2.40    0.90
  -4   2   0    2.60    1.00
  -4   2   0    2.70    0.80
  -4   2   0    2.10    0.90
  -4   2   0    2.60    0.60
  -4   2   0    2.20    0.80
  -4   2   0    7.10    2.90
   3  -2   0   45.40    3.60
   3  -2   0   48.70    3.10
   3  -2   0   45.20    3.00
   3  -2   0   42.20    3.00
   3  -2   0   46.60    2.90
  -3   2   0   49.00    3.10
  -3   2   0   46.70    2.90
  -3   2   0   45.40    3.40
  -3   2   0   43.40    3.20
  -3   2   0   44.70    2.90
  -3   2   0   43.20    3.00
   2  -2   0   73.09    5.00
   2  -2   0   81.99    4.90
   2  -2   0   70.99    4.80
  -2   2   0   80.89    4.80
  -2   2   0   80.59    4.90
  -2   2   0   82.29    5.00
  -2   2   0   72.09    5.10
   1  -2   0    0.70    0.50
   1  -2   0    0.90    0.40
   1  -2   0    0.10    0.30
   1  -2   0    1.10    0.30
   1  -2   0    1.00    0.30
  -1   2   0    0.50    0.20
  -1   2   0    0.60    0.20
  -1   2   0    0.70    0.40
  -1   2   0    0.80    0.40
  -1   2   0    0.50    0.30
   0  -2   0    1.30    0.30
   0  -2   0    2.40    0.40
   0  -2   0    2.00    0.40
   0   2   0    1.40    0.20
   0   2   0    1.30    0.30
   0   2   0    1.90    0.40
   0   2   0    1.40    0.30
  -1  -2   0   73.99    4.20
  -1  -2   0   61.59    4.30
   1   2   0   69.59    4.20
   1   2   0   72.59    4.20
   1   2   0   61.49    4.20
  -2  -2   0    3.00    0.60
  -2  -2   0    2.60    0.40
  -2  -2   0    1.90    0.40
  -2  -2   0    1.70    0.30
   2   2   0    3.00    0.40
   2   2   0    2.60    0.40
   2   2   0    2.20    0.40
  -3  -2   0  637.54   42.50
  -3  -2   0  720.23   42.50
  -3  -2   0  712.93   42.80
  -3  -2   0  673.53   42.50
   3   2   0  767.92   42.50
   3   2   0  645.24   42.40
   3   2   0  740.33   42.50
   3   2   0  682.83   42.50
  -4  -2   0   92.39    5.80
  -4  -2   0   79.49    5.50
  -4  -2   0   82.49    5.40
  -4  -2   0   77.79    5.50
  -4  -2   0   81.59    5.50
  -4  -2   0   86.49    5.50
  -4  -2   0   82.69    5.50
   4   2   0   78.49    5.40
   4   2   0   89.09    5.20
   4   2   0   83.99    5.40
   4   2   0   90.69    5.60
   4   2   0   91.19    5.50
  -5  -2   0   54.59    3.60
  -5  -2   0   46.90    3.40
  -5  -2   0   55.69    4.00
  -5  -2   0   49.60    3.70
   5   2   0   54.69    3.40
   5   2   0   53.49    3.70
   5   2   0   52.69    3.40
  -6  -2   0  246.58   14.30
  -6  -2   0  239.68   14.50
  -6  -2   0  231.08   14.30
  -6  -2   0  209.08   15.00
  -6  -2   0  215.48   14.30
  -6  -2   0  221.28   14.20
  -6  -2   0  227.58   14.40
   6   2   0  244.78   14.30
   6   2   0  248.58   14.20
   6   2   0  225.08   14.60
  -7  -2   0   40.60    2.80
  -7  -2   0   39.00    2.80
  -7  -2   0   37.70    3.00
   7   2   0   37.40    2.80
   7   2   0   39.50    2.80
  -8  -2   0   21.60    1.60
  -8  -2   0   19.40    1.70
  -8  -2   0   17.90    1.70
   8   2   0   20.40    1.90
   8   2   0   19.50    1.50
   8   2   0   23.70    1.70
   7  -3   0  140.29    8.70
   7  -3   0  146.49    8.50
  -7   3   0  123.59    8.50
  -7   3   0  156.58    8.60
  -7   3   0  124.59    8.50
   6  -3   0   -0.20    0.90
   6  -3   0    0.30    0.70
   6  -3   0    0.60    0.80
  -6   3   0    1.80    0.70
  -6   3   0    0.40    1.00
  -6   3   0    0.20    0.80
  -6   3   0    0.00    1.10
   5  -3   0   49.30    4.70
   5  -3   0   59.09    3.70
   5  -3   0   58.49    4.10
  -5   3   0   58.99    4.00
  -5   3   0   53.99    3.90
  -5   3   0   61.59    4.10
  -5   3   0   56.59    4.00
   4  -3   0   14.00    1.30
   4  -3   0   12.10    1.50
   4  -3   0   11.10    1.90
   4  -3   0   12.60    1.60
   4  -3   0   12.10    1.90
  -4   3   0   11.40    1.70
  -4   3   0   13.10    1.30
  -4   3   0   11.90    1.70
  -4   3   0   11.90    1.50
  -4   3   0   11.30    1.60
  -4   3   0   12.00    1.60
   3  -3   0  364.06   22.20
   3  -3   0  382.96   22.20
   3  -3   0  353.86   22.30
   3  -3   0  376.36   22.40
   3  -3   0  361.06   22.40
   3  -3   0  326.27   22.80
  -3   3   0  376.46   22.30
  -3   3   0  347.57   22.30
  -3   3   0  410.36   22.20
  -3   3   0  337.77   22.30
  -3   3   0  330.37   22.60
  -3   3   0  376.06   22.20
  -3   3   0  371.26   22.20
   2  -3   0   59.59    3.90
   2  -3   0   52.69    3.90
   2  -3   0   58.29    3.70
   2  -3   0   58.69    3.80
   2  -3   0   57.29    4.30
   2  -3   0   55.49    3.90
  -2   3   0   56.99    3.70
  -2   3   0   60.49    3.70
  -2   3   0   57.99    4.90
  -2   3   0   63.59    3.80
  -2   3   0   58.19    3.70
  -2   3   0   61.09    4.00
   1  -3   0  242.18   15.40
   1  -3   0  251.87   15.40
   1  -3   0  242.98   15.30
  -1   3   0  210.18   15.20
  -1   3   0  250.27   15.20
  -1   3   0  262.17   15.30
  -1   3   0  270.97   15.20
  -1   3   0  265.57   15.40
  -1   3   0  241.08   15.40
   0  -3   0   25.00    2.00
   0  -3   0   30.20    2.10
   0  -3   0   26.20    1.90
   0   3   0   29.70    2.00
   0   3   0   28.80    1.80
   0   3   0   30.80    1.90
   0   3   0   29.60    2.10
   0   3   0   26.90    1.80
  -1  -3   0 1426.66   84.39
  -1  -3   0 1432.96   84.19
   1   3   0 1339.17   84.19
   1   3   0 1472.95   84.19
   1   3   0 1340.67   84.19
   1   3   0 1419.66   84.29
   1   3   0 1231.58   84.09
   1   3   0 1428.56   84.39
  -2  -3   0    2.90    0.80
   2   3   0    3.30    0.50
   2   3   0    3.90    0.50
   2   3   0    2.80    0.40
   2   3   0    4.30    0.80
  -3  -3   0   34.10    2.60
   3   3   0   34.60    2.20
   3   3   0   32.60    2.30
   3   3   0   30.50    2.10
  -4  -3   0   40.10    3.10
  -4  -3   0   46.50    3.10
  -4  -3   0   35.20    2.90
  -4  -3   0   41.00    2.90
  -4  -3   0   37.10    2.90
  -4  -3   0   45.50    3.40
  -4  -3   0   43.30    3.00
  -4  -3   0   42.40    3.00
   4   3   0   47.20    3.20
   4   3   0   44.40    2.70
   4   3   0   41.50    3.10
  -5  -3   0    0.50    0.80
  -5  -3   0    0.30    0.70
  -5  -3   0    0.20    0.60
  -5  -3   0    0.10    0.70
  -5  -3   0   -0.30    0.70
  -5  -3   0    1.20    1.00
  -5  -3   0    0.40    1.60
   5   3   0   -0.10    0.50
   5   3   0    0.30    0.70
   5   3   0    0.50    1.10
  -6  -3   0   27.00    2.20
  -6  -3   0   28.30    2.20
  -6  -3   0   27.70    2.50
  -6  -3   0   24.00    2.00
  -6  -3   0   18.70    3.80
  -6  -3   0   24.00    2.30
  -6  -3   0   30.50    2.50
  -6  -3   0   21.90    2.00
   6   3   0   25.20    3.00
   6   3   0   25.90    2.10
   6   3   0   27.10    1.90
  -7  -3   0   40.40    3.30
  -7  -3   0   51.29    3.30
   7   3   0   46.00    3.10
   7   3   0   45.40    3.10
  -8  -3   0  124.89    8.00
  -8  -3   0  122.09    7.90
   8   3   0  119.19    7.90
   8   3   0  138.99    7.80
   6  -4   0    5.50    0.90
   6  -4   0    6.20    0.80
   6  -4   0    5.70    0.90
  -6   4   0    6.30    0.90
  -6   4   0    5.20    0.80
   5  -4   0   31.10    2.30
   5  -4   0   31.10    2.40
  -5   4   0   31.30    2.40
  -5   4   0   31.70    2.70
  -5   4   0   28.20    2.20
  -5   4   0   25.80    2.40
   4  -4   0  170.78   10.80
   4  -4   0  169.38   10.70
   4  -4   0  163.88   11.30
   4  -4   0  185.88   10.80
   4  -4   0  177.38   10.80
  -4   4   0  180.28   10.80
  -4   4   0  162.98   10.80
  -4   4   0  178.08   10.80
  -4   4   0  171.38   10.70
  -4   4   0  176.88   10.90
  -4   4   0  165.58   11.00
   3  -4   0   38.10    3.40
   3  -4   0   39.00    2.70
   3  -4   0   36.50    3.10
   3  -4   0   38.00    2.80
   3  -4   0   38.60    2.70
   3  -4   0   38.50    2.60
   3  -4   0   36.80    2.80
  -3   4   0   37.30    2.80
  -3   4   0   38.30    2.60
  -3   4   0   40.30    2.60
  -3   4   0   37.80    2.60
  -3   4   0   41.90    2.80
  -3   4   0   31.90    3.30
   2  -4   0  217.58   13.60
   2  -4   0  206.88   13.40
   2  -4   0  206.28   13.60
   2  -4   0  204.78   13.30
   2  -4   0  223.68   13.40
  -2   4   0  215.78   13.40
  -2   4   0  224.38   13.40
  -2   4   0  223.98   13.30
  -2   4   0  226.08   13.50
  -2   4   0  222.88   13.30
   1  -4   0  270.77   16.60
   1  -4   0  261.47   16.40
   1  -4   0  256.97   16.60
   1  -4   0  259.57   16.70
   1  -4   0  257.07   16.40
  -1   4   0  256.97   16.60
  -1   4   0  247.48   16.80
  -1   4   0  284.97   16.50
  -1   4   0  286.77   16.40
  -1   4   0  292.77   16.30
   0  -4   0   47.10    3.90
   0  -4   0   56.79    3.90
   0  -4   0   46.80    3.60
   0  -4   0   51.59    3.40
   0  -4   0   50.09    3.90
   0  -4   0   49.40    3.50
   0  -4   0   51.39    3.70
   0   4   0   53.59    3.90
   0   4   0   52.39    3.40
   0   4   0   59.39    3.40
   0   4   0   57.49    3.60
   0   4   0   58.59    3.50
   0   4   0   56.89    3.30
  -1  -4   0   33.00    2.70
  -1  -4   0   38.30    2.80
   1   4   0   39.00    2.60
   1   4   0   41.50    2.80
   1   4   0   40.00    2.80
   1   4   0   38.60    2.40
   1   4   0   39.70    2.50
  -2  -4   0  245.58   15.70
  -2  -4   0  273.67   15.90
  -2  -4   0  217.28   15.70
   2   4   0  252.07   15.80
   2   4   0  264.37   15.60
   2   4   0  282.67   15.80
   2   4   0  260.17   15.60
   2   4   0  244.08   15.70
  -3  -4   0  135.89    8.60
  -3  -4   0  136.79    8.70
  -3  -4   0  135.99    8.30
  -3  -4   0  122.59    8.30
  -3  -4   0  130.09    8.40
  -3  -4   0  118.19    8.30
   3   4   0  138.99    8.10
   3   4   0  139.59    8.40
  -4  -4   0    3.80    1.00
  -4  -4   0    2.60    1.20
  -4  -4   0    3.20    1.40
  -4  -4   0    3.10    1.00
   4   4   0    4.20    1.50
   4   4   0    3.70    0.50
  -5  -4   0   49.20    3.40
  -5  -4   0   46.60    3.30
  -5  -4   0   43.70    3.10
  -5  -4   0   46.50    3.20
  -5  -4   0   38.00    3.30
   5   4   0   41.50    3.10
   5   4   0   46.50    3.60
   5   4   0   42.80    2.90
  -6  -4   0  380.46   25.50
  -6  -4   0  349.27   26.20
  -6  -4   0  439.66   25.60
  -6  -4   0  482.35   25.60
  -6  -4   0  453.35   25.50
   6   4   0  360.96   25.70
   6   4   0  412.56   25.40
   6   4   0  440.96   25.30
  -7  -4   0    1.70    0.80
  -7  -4   0    1.30    0.90
  -7  -4   0    3.20    1.00
   7   4   0    2.10    0.70
  -8  -4   0   84.09    5.80
  -8  -4   0  104.99    5.90
  -8  -4   0   84.49    6.00
   8   4   0   98.09    5.80
   5  -5   0    7.00    0.90
   5  -5   0    8.80    1.20
  -5   5   0    7.60    0.90
  -5   5   0    7.60    1.00
  -5   5   0    7.20    1.40
   4  -5   0   27.40    2.10
   4  -5   0   28.10    2.20
  -4   5   0   28.80    2.20
  -4   5   0   28.10    2.20
  -4   5   0   23.10    2.00
   3  -5   0   -0.30    0.60
   3  -5   0    0.90    0.80
   3  -5   0   -1.40    1.20
   3  -5   0    0.00    0.70
   3  -5   0    0.80    0.80
  -3   5   0    1.00    0.80
  -3   5   0    1.00    0.50
  -3   5   0    2.00    1.50
  -3   5   0    1.40    0.70
  -3   5   0    0.30    0.60
   2  -5   0   19.90    1.60
   2  -5   0   22.40    1.60
   2  -5   0   21.80    2.30
   2  -5   0   21.40    1.80
   2  -5   0   22.70    1.80
  -2   5   0   21.90    2.10
  -2   5   0   19.70    1.70
  -2   5   0   25.30    1.70
  -2   5   0   22.20    1.70
  -2   5   0   20.80    2.00
   1  -5   0  112.49    7.20
   1  -5   0  111.49    7.20
  -1   5   0  114.69    7.10
  -1   5   0  116.89    7.20
  -1   5   0  119.39    7.10
  -1   5   0  113.59    7.30
   0  -5   0  260.77   15.80
   0  -5   0  251.47   16.00
   0  -5   0  254.77   15.80
   0  -5   0  263.47   15.90
   0  -5   0  265.27   15.80
   0  -5   0  233.58   15.80
   0   5   0  258.67   15.70
   0   5   0  269.17   15.80
   0   5   0  249.78   15.90
   0   5   0  268.37   15.70
  -1  -5   0  920.11   55.19
  -1  -5   0  848.12   54.99
  -1  -5   0  865.51   55.09
  -1  -5   0  914.81   55.09
  -1  -5   0  927.21   55.09
  -1  -5   0  948.01   55.19
   1   5   0  870.41   55.09
   1   5   0  915.01   54.99
   1   5   0  939.61   54.99
  -2  -5   0    6.00    1.00
  -2  -5   0    6.00    1.70
  -2  -5   0    5.40    1.00
  -2  -5   0    7.00    1.10
  -2  -5   0    3.80    0.80
  -2  -5   0    5.30    1.00
   2   5   0    4.90    0.70
  -3  -5   0  274.57   17.50
  -3  -5   0  298.97   17.50
  -3  -5   0  275.17   17.40
  -3  -5   0  251.97   17.50
  -3  -5   0  283.87   17.50
  -3  -5   0  292.47   17.90
   3   5   0  293.27   17.70
   3   5   0  294.47   17.30
  -4  -5   0  456.05   26.60
  -4  -5   0  453.75   26.70
  -4  -5   0  411.46   27.10
  -4  -5   0  410.66   26.60
  -5  -5   0   36.00    4.60
  -5  -5   0   43.90    3.20
  -5  -5   0   42.90    3.10
  -5  -5   0   39.90    3.00
   5   5   0   34.20    4.00
   5   5   0   44.20    2.80
  -6  -5   0  385.96   22.40
  -6  -5   0  386.36   22.00
  -6  -5   0  345.37   22.00
   6   5   0  343.27   21.80
   6   5   0  328.07   21.90
  -7  -5   0   49.20    3.30
  -7  -5   0   48.90    3.20
  -7  -5   0   50.19    3.30
   7   5   0   43.50    3.20
   4  -6   0  250.57   15.20
  -4   6   0  248.78   15.20
  -4   6   0  238.88   15.10
  -4   6   0  249.18   15.20
   3  -6   0    5.20    0.80
   3  -6   0    4.10    0.90
  -3   6   0    5.50    0.90
  -3   6   0    5.10    0.90
  -3   6   0    4.10    1.50
  -3   6   0    7.20    1.00
   2  -6   0  564.34   34.70
   2  -6   0  582.64   34.90
   2  -6   0  585.84   34.60
   2  -6   0  570.44   34.60
   2  -6   0  601.94   34.70
  -2   6   0  599.24   34.60
  -2   6   0  580.04   34.60
  -2   6   0  572.74   34.70
  -2   6   0  486.65   34.90
  -2   6   0  531.45   34.70
   1  -6   0  287.27   17.10
   1  -6   0  293.87   17.30
   1  -6   0  280.37   17.10
   1  -6   0  288.27   17.10
   1  -6   0  269.77   17.10
   1  -6   0  275.37   17.30
  -1   6   0  300.17   17.00
  -1   6   0  286.17   17.00
  -1   6   0  250.57   17.10
  -1   6   0  248.58   17.30
   0  -6   0  149.29    9.70
   0  -6   0  159.58    9.70
   0  -6   0  157.68    9.90
   0  -6   0  148.79    9.70
   0  -6   0  168.68    9.70
   0  -6   0  167.78    9.90
   0   6   0  144.19   10.00
   0   6   0  141.39    9.70
   0   6   0  156.28    9.60
   0   6   0  168.38    9.60
  -1  -6   0  246.98   14.80
  -1  -6   0  219.48   14.50
  -1  -6   0  232.08   14.60
  -1  -6   0  238.38   14.60
  -1  -6   0  238.98   14.70
  -1  -6   0  225.28   14.60
   1   6   0  252.37   14.50
   1   6   0  244.08   15.00
   1   6   0  237.38   14.50
  -2  -6   0   32.60    2.50
  -2  -6   0   28.50    2.40
  -2  -6   0   30.30    2.20
  -2  -6   0   29.70    2.60
   2   6   0   26.70    3.60
   2   6   0   32.70    2.10
   2   6   0   28.00    2.20
  -3  -6   0  178.98   11.20
  -3  -6   0  166.68   11.00
  -3  -6   0  185.68   11.30
   3   6   0  182.78   11.00
  -4  -6   0   16.10    2.00
  -4  -6   0   14.70    2.60
  -4  -6   0   17.20    1.90
  -4  -6   0   14.90    4.40
   4   6   0   16.70    1.50
  -5  -6   0  232.58   14.80
  -5  -6   0  253.07   14.90
   5   6   0  231.68   14.60
  -6  -6   0   14.20    1.40
  -6  -6   0   13.90    1.80
  -6  -6   0   16.50    1.80
   6   6   0   12.70    1.50
  -7  -6   0    4.60    0.80
  -7  -6   0    5.10    1.00
   3  -7   0    4.10    0.60
   3  -7   0    4.80    0.70
   3  -7   0    4.40    0.70
  -3   7   0    6.30    0.90
  -3   7   0    2.50    0.90
   2  -7   0   60.99    4.00
   2  -7   0   57.49    3.60
   2  -7   0   61.69    3.70
   2  -7   0   55.09    3.80
  -2   7   0   48.10    3.80
  -2   7   0   51.49    3.60
  -2   7   0   59.69    3.70
   1  -7   0    7.70    0.90
   1  -7   0    7.20    1.60
   1  -7   0    7.70    1.30
  -1   7   0    4.60    1.10
  -1   7   0    7.80    0.90
  -1   7   0    7.70    1.00
   0  -7   0   32.30    2.20
   0  -7   0   33.20    2.80
   0  -7   0   36.40    2.70
   0  -7   0   33.20    2.40
   0  -7   0   30.70    2.50
   0  -7   0   26.20    2.50
   0   7   0   33.10    2.30
   0   7   0   34.80    2.30
  -1  -7   0  202.48   12.20
  -1  -7   0  213.28   12.30
  -1  -7   0  193.88   12.10
  -1  -7   0  184.68   12.10
  -1  -7   0  205.88   12.00
   1   7   0  185.38   12.00
   1   7   0  207.88   12.00
   1   7   0  164.48   12.60
  -2  -7   0    8.00    1.30
  -2  -7   0   10.10    1.70
  -2  -7   0    8.70    1.00
   2   7   0    8.80    1.00
   2   7   0    7.60    1.20
   2   7   0    5.20    3.30
  -3  -7   0   51.39    3.60
  -3  -7   0   48.50    3.50
  -3  -7   0   44.30    3.20
   3   7   0   48.10    3.10
   3   7   0   46.50    3.30
  -4  -7   0    2.00    1.10
  -4  -7   0    6.60    1.10
  -5  -7   0    9.70    1.10
  -5  -7   0   10.80    1.30
   5   7   0    9.00    1.50
  -6  -7   0    7.10    1.00
  -6  -7   0    6.00    0.90
   2  -8   0    8.50    0.80
   2  -8   0    8.60    0.80
  -2   8   0   10.80    1.00
   1  -8   0   84.89    5.40
   1  -8   0   89.29    5.40
   1  -8   0   86.89    5.60
  -1   8   0   86.99    5.40
  -1   8   0   83.59    5.50
   0  -8   0   22.90    1.60
   0  -8   0   19.10    1.90
   0  -8   0   20.70    1.80
   0   8   0   23.50    2.00
   0   8   0   24.60    1.70
   0   8   0   24.60    1.70
  -1  -8   0   38.30    2.60
  -1  -8   0   37.00    2.30
  -1  -8   0   32.90    2.40
   1   8   0   29.70    2.30
   1   8   0   32.20    2.30
   1   8   0   31.30    2.50
  -2  -8   0   52.89    3.80
  -2  -8   0   57.69    3.70
  -2  -8   0   62.69    4.00
   2   8   0   56.99    3.60
   2   8   0   54.99    3.70
  -3  -8   0   31.20    2.40
  -3  -8   0   29.50    2.00
  -3  -8   0   27.90    2.10
   3   8   0   29.20    2.20
   3   8   0   29.50    2.20
  -4  -8   0    1.30    0.60
  -4  -8   0    0.60    0.60
  -5  -8   0   15.90    1.30
   4   8  -1   27.80    2.10
  -4  -8   1   30.50    2.00
  -4  -8   1   26.30    2.00
   3   8  -1   31.00    2.30
   3   8  -1   29.40    2.20
  -3  -8   1   35.70    2.30
  -3  -8   1   29.90    2.30
  -3  -8   1   36.10    2.40
   2   8  -1    0.50    0.60
   2   8  -1    1.60    0.60
  -2  -8   1    0.10    0.70
  -2  -8   1    1.40    0.70
  -2  -8   1    1.30    0.40
   1   8  -1  112.19    7.20
   1   8  -1  119.89    7.20
  -1  -8   1  114.59    7.30
  -1  -8   1  112.99    7.40
  -1  -8   1  119.89    7.20
   0   8  -1   -0.30    0.60
   0   8  -1    0.10    0.50
   0   8  -1    1.20    0.60
   0  -8   1    0.30    0.90
   0  -8   1   -0.20    0.30
  -1   8  -1   84.09    5.60
  -1   8  -1   95.99    5.70
  -1   8  -1   86.89    5.70
   1  -8   1   94.99    5.60
   1  -8   1   89.09    5.80
  -2   8  -1   38.80    2.50
  -2   8  -1   36.80    2.50
   2  -8   1   34.20    2.50
   2  -8   1   39.30    2.40
  -6  -7   1  146.09    9.00
   5   7  -1    1.60    0.80
   5   7  -1    1.80    0.90
  -5  -7   1    2.20    0.70
  -5  -7   1    2.30    0.70
   4   7  -1   60.69    3.90
   4   7  -1   56.99    4.00
  -4  -7   1   60.99    4.10
  -4  -7   1   65.69    4.30
   3   7  -1   25.20    1.80
   3   7  -1   24.00    1.90
  -3  -7   1   23.30    1.90
  -3  -7   1   22.70    2.30
   2   7  -1   21.90    1.60
   2   7  -1   21.40    1.70
  -2  -7   1   21.80    1.90
  -2  -7   1   24.20    2.20
  -2  -7   1   22.80    1.80
   1   7  -1  245.98   15.10
   1   7  -1  256.67   15.20
  -1  -7   1  252.07   15.20
  -1  -7   1  243.08   15.30
  -1  -7   1  242.88   15.20
  -1  -7   1  244.68   15.40
   0   7  -1   24.60    1.80
   0   7  -1   23.30    1.80
   0   7  -1   23.60    4.10
   0  -7   1   23.10    2.00
   0  -7   1   24.00    2.40
   0  -7   1   24.70    2.30
   0  -7   1   23.90    1.70
   0  -7   1   23.50    1.80
  -1   7  -1   64.29    3.90
  -1   7  -1   61.59    3.90
   1  -7   1   58.09    4.00
  -2   7  -1   20.60    1.60
  -2   7  -1   20.50    2.10
  -2   7  -1   21.60    1.60
   2  -7   1   18.70    1.90
   2  -7   1   19.50    1.70
   2  -7   1   19.20    1.50
   2  -7   1   22.20    1.70
   2  -7   1   23.10    1.70
  -3   7  -1    9.70    1.10
  -3   7  -1    8.50    1.00
   3  -7   1    8.90    1.30
   3  -7   1    9.30    0.80
   3  -7   1    8.60    1.10
   6   6  -1  243.98   14.60
  -6  -6   1  239.08   14.70
  -6  -6   1  207.38   14.80
  -6  -6   1  267.27   14.80
   5   6  -1   18.30    1.60
   5   6  -1   15.80    1.50
  -5  -6   1   16.60    2.00
   4   6  -1   32.00    2.50
   4   6  -1   34.00    2.20
  -4  -6   1   28.00    6.10
  -4  -6   1   35.00    2.70
  -4  -6   1   27.10    2.90
  -4  -6   1   32.70    2.40
   3   6  -1  382.16   24.30
   3   6  -1  371.56   23.70
   3   6  -1  410.96   23.70
  -3  -6   1  385.76   23.90
  -3  -6   1  378.36   23.80
  -3  -6   1  403.36   24.00
  -3  -6   1  390.26   23.90
   2   6  -1   60.39    3.70
   2   6  -1   56.79    3.80
  -2  -6   1   58.19    3.80
  -2  -6   1   59.19    4.10
  -2  -6   1   62.99    4.00
  -2  -6   1   59.99    4.20
  -2  -6   1   49.10    3.90
   1   6  -1  295.07   18.50
   1   6  -1  316.77   18.50
  -1  -6   1  291.37   18.60
  -1  -6   1  305.07   18.60
  -1  -6   1  295.97   18.60
  -1  -6   1  312.07   18.80
  -1  -6   1  307.37   18.70
   0   6  -1   20.00    1.50
   0   6  -1   20.60    1.50
   0  -6   1   19.80    1.70
   0  -6   1   21.30    1.70
   0  -6   1   20.80    2.30
   0  -6   1   20.90    2.20
   0  -6   1   21.60    1.80
  -1   6  -1  166.28   10.10
  -1   6  -1  151.68   10.50
  -1   6  -1  169.08   10.00
  -1   6  -1  145.89   10.10
   1  -6   1  173.88   10.30
   1  -6   1  162.68   10.10
   1  -6   1  177.18   10.10
   1  -6   1  170.18   10.10
   1  -6   1  150.78   10.10
   1  -6   1  158.98   10.30
  -2   6  -1   12.70    1.20
  -2   6  -1   11.90    1.30
  -2   6  -1   12.30    1.50
  -2   6  -1   14.50    2.80
  -2   6  -1   14.60    1.20
   2  -6   1   13.30    1.40
   2  -6   1   13.50    1.30
   2  -6   1   14.00    1.40
   2  -6   1   13.40    1.40
   2  -6   1   13.10    2.10
  -3   6  -1   40.30    3.30
  -3   6  -1   51.29    3.30
  -3   6  -1   47.00    3.40
   3  -6   1   49.60    3.40
   3  -6   1   52.69    3.40
   3  -6   1   52.39    3.40
  -4   6  -1  321.67   20.00
   4  -6   1  353.76   20.10
   4  -6   1  307.07   20.00
  -5   6  -1    0.20    0.40
  -5   6  -1    0.80    0.80
   5  -6   1   -0.10    0.30
   5  -6   1   -0.20    0.40
   7   5  -1    2.20    0.70
   7   5  -1    1.70    0.60
  -7  -5   1    3.30    0.70
  -7  -5   1    3.20    0.70
  -7  -5   1    2.80    0.90
   6   5  -1  156.48   10.00
   6   5  -1  157.58   10.00
  -6  -5   1  172.98   10.20
   5   5  -1    1.00    0.70
   5   5  -1   -1.90    2.30
   5   5  -1    1.40    0.90
  -5  -5   1   -0.40    0.90
  -5  -5   1    2.10    2.60
  -5  -5   1    0.20    0.70
  -5  -5   1    0.80    1.00
   4   5  -1   19.70    1.80
   4   5  -1   18.80    3.30
   4   5  -1   22.40    1.60
  -4  -5   1   16.70    2.10
  -4  -5   1   21.80    1.80
  -4  -5   1   23.00    2.10
  -4  -5   1   15.20    5.40
  -4  -5   1   19.10    2.50
   3   5  -1   31.60    2.50
   3   5  -1   31.50    3.10
   3   5  -1   36.00    2.30
  -3  -5   1   34.30    2.70
  -3  -5   1   31.70    3.30
  -3  -5   1   34.20    2.90
  -3  -5   1   36.00    2.70
  -3  -5   1   34.70    2.70
  -3  -5   1   34.10    2.60
   2   5  -1  536.35   30.10
   2   5  -1  539.65   29.70
   2   5  -1  469.15   29.70
  -2  -5   1  494.15   30.10
  -2  -5   1  466.15   30.10
  -2  -5   1  496.25   29.80
  -2  -5   1  444.06   29.70
  -2  -5   1  448.06   29.80
  -2  -5   1  501.45   29.90
   1   5  -1  628.94   45.30
   1   5  -1  727.23   45.00
   1   5  -1  816.92   45.30
   1   5  -1  781.32   44.90
  -1  -5   1  688.73   45.20
  -1  -5   1  760.72   45.00
  -1  -5   1  782.32   45.10
  -1  -5   1  727.13   45.00
  -1  -5   1  743.73   45.10
   0   5  -1   51.19    3.20
   0   5  -1   54.69    3.10
   0   5  -1   49.70    3.20
   0   5  -1   47.30    3.40
   0  -5   1   48.40    3.40
   0  -5   1   49.20    3.30
   0  -5   1   51.99    3.60
   0  -5   1   48.60    3.60
   0  -5   1   47.50    3.20
   0  -5   1   45.30    3.30
  -1   5  -1   51.59    3.20
  -1   5  -1   48.20    3.30
  -1   5  -1   49.80    3.20
  -1   5  -1   49.40    3.50
   1  -5   1   50.29    3.60
   1  -5   1   49.40    3.20
   1  -5   1   47.10    3.30
  -2   5  -1    3.70    0.60
  -2   5  -1    3.80    1.10
  -2   5  -1    3.70    0.70
  -2   5  -1    5.60    0.80
   2  -5   1    3.20    1.30
   2  -5   1    4.60    0.70
   2  -5   1    5.40    0.80
   2  -5   1    3.10    0.70
  -3   5  -1  257.27   15.40
  -3   5  -1  267.67   15.50
  -3   5  -1  240.38   15.50
  -3   5  -1  249.68   15.40
  -3   5  -1  228.88   15.60
   3  -5   1  241.88   15.70
   3  -5   1  249.88   15.50
   3  -5   1  240.98   15.40
   3  -5   1  261.27   15.50
   3  -5   1  271.07   15.50
  -4   5  -1    1.10    2.80
  -4   5  -1   -0.50    0.80
  -4   5  -1    1.70    1.00
  -4   5  -1   -0.80    1.00
  -4   5  -1    0.10    0.90
   4  -5   1    0.80    0.70
   4  -5   1   -0.40    0.50
   4  -5   1    0.40    0.70
  -5   5  -1   70.29    4.60
  -5   5  -1   74.59    4.50
  -5   5  -1   60.29    4.60
   5  -5   1   69.89    4.50
   5  -5   1   79.29    4.60
  -6   5  -1    2.60    0.70
  -6   5  -1    1.00    0.60
  -6   5  -1    1.20    0.90
   6  -5   1    1.60    0.50
   6  -5   1    1.30    0.50
   7   4  -1  108.99    6.70
   7   4  -1  100.59    6.70
  -7  -4   1  111.39    7.00
  -7  -4   1  102.89    6.80
  -7  -4   1  114.79    6.90
   6   4  -1  152.38    9.60
   6   4  -1  147.59    9.60
  -6  -4   1  167.78    9.90
  -6  -4   1  154.98    9.70
  -6  -4   1  152.08    9.70
  -6  -4   1  153.98    9.80
   5   4  -1    4.50    0.70
   5   4  -1    5.10    1.70
   5   4  -1    4.00    0.70
  -5  -4   1    2.90    1.00
  -5  -4   1    3.10    1.10
  -5  -4   1    4.80    1.00
  -5  -4   1    3.80    2.50
  -5  -4   1    5.90    1.00
   4   4  -1  185.08   12.60
   4   4  -1  208.28   12.20
   4   4  -1  188.28   12.30
  -4  -4   1  208.98   12.50
  -4  -4   1  175.78   12.20
  -4  -4   1  207.08   12.40
  -4  -4   1  205.98   13.00
  -4  -4   1  214.48   12.50
   3   4  -1   83.19    4.90
   3   4  -1   81.89    5.30
   3   4  -1   78.39    5.50
   3   4  -1   74.09    5.00
  -3  -4   1   80.09    5.10
  -3  -4   1   82.89    5.10
  -3  -4   1   79.49    5.30
  -3  -4   1   85.49    5.60
  -3  -4   1   70.59    5.10
  -3  -4   1   71.09    5.00
  -3  -4   1   80.69    5.10
   2   4  -1    4.40    1.10
   2   4  -1    2.40    2.10
   2   4  -1    2.10    0.90
   2   4  -1    4.70    0.50
   2   4  -1    7.10    1.10
  -2  -4   1    3.80    0.90
  -2  -4   1    3.10    1.20
  -2  -4   1    6.10    0.90
  -2  -4   1    3.30    1.00
  -2  -4   1    4.70    1.20
  -2  -4   1    4.00    1.00
   1   4  -1    1.70    0.30
   1   4  -1    1.00    0.40
   1   4  -1    1.50    0.90
   1   4  -1    0.60    0.90
   1   4  -1    1.60    0.60
   1   4  -1    1.80    0.60
   1   4  -1    1.50    0.60
  -1  -4   1    0.90    0.70
  -1  -4   1   -0.50    1.00
  -1  -4   1   -0.10    1.00
  -1  -4   1    1.40    0.90
  -1  -4   1    1.60    1.20
  -1  -4   1   -0.10    1.00
   0   4  -1    7.60    1.70
   0   4  -1    7.10    0.60
   0   4  -1    6.40    1.00
   0   4  -1    7.30    0.80
   0   4  -1    6.60    0.70
   0   4  -1    8.30    0.90
   0  -4   1    5.00    0.70
   0  -4   1    6.80    0.90
   0  -4   1    8.20    1.20
   0  -4   1    6.40    1.40
   0  -4   1    6.00    0.90
   0  -4   1    6.20    1.30
   0  -4   1    5.50    1.20
  -1   4  -1   31.40    2.10
  -1   4  -1   24.90    3.50
  -1   4  -1   32.60    2.00
  -1   4  -1   30.30    2.00
  -1   4  -1   30.90    2.00
  -1   4  -1   29.80    2.50
   1  -4   1   31.70    3.00
   1  -4   1   29.70    2.10
   1  -4   1   29.00    2.70
   1  -4   1   31.00    2.60
   1  -4   1   28.90    2.10
   1  -4   1   27.50    2.10
   1  -4   1   26.50    2.30
  -2   4  -1    6.90    1.00
  -2   4  -1    6.10    0.80
  -2   4  -1    4.30    0.80
  -2   4  -1    6.80    0.90
   2  -4   1    7.00    1.20
   2  -4   1    5.70    1.40
   2  -4   1    6.60    0.90
   2  -4   1    4.00    2.40
   2  -4   1    6.20    0.70
   2  -4   1    5.10    0.80
  -3   4  -1  192.78   11.80
  -3   4  -1  176.98   11.70
  -3   4  -1  195.28   11.60
  -3   4  -1  202.98   11.70
  -3   4  -1  181.78   11.50
  -3   4  -1  192.48   11.60
   3  -4   1  179.08   11.90
   3  -4   1  180.28   11.60
   3  -4   1  174.88   11.50
   3  -4   1  198.08   11.60
  -4   4  -1    2.60    1.30
  -4   4  -1    2.60    1.20
  -4   4  -1    3.50    0.80
  -4   4  -1    6.60    1.00
  -4   4  -1    7.00    1.00
  -4   4  -1    5.40    1.00
   4  -4   1    5.10    0.80
   4  -4   1    5.30    0.80
   4  -4   1    5.00    1.00
   4  -4   1    3.10    1.90
   4  -4   1    4.00    0.90
  -5   4  -1  261.87   14.80
  -5   4  -1  224.38   14.80
  -5   4  -1  215.08   14.80
  -5   4  -1  249.58   14.90
   5  -4   1  241.18   14.90
   5  -4   1  244.68   14.80
  -6   4  -1   69.69    4.20
  -6   4  -1   63.79    4.10
  -6   4  -1   59.89    4.10
   6  -4   1   57.09    4.00
   6  -4   1   67.89    4.30
   6  -4   1   62.79    4.00
   8   3  -1    6.90    1.00
  -8  -3   1    7.60    1.10
  -8  -3   1    6.60    0.90
   7   3  -1    1.80    1.30
   7   3  -1    0.30    0.70
  -7  -3   1    0.00    0.90
  -7  -3   1    0.90    1.10
  -7  -3   1    0.20    0.60
  -7  -3   1    0.40    0.80
   6   3  -1  112.39    8.50
   6   3  -1  135.29    7.90
  -6  -3   1  136.69    8.10
  -6  -3   1  120.69    7.80
  -6  -3   1  137.49    8.10
  -6  -3   1  108.89    8.90
  -6  -3   1  124.29    8.10
  -6  -3   1  135.09    8.10
   5   3  -1   80.79    5.40
   5   3  -1   86.09    5.10
  -5  -3   1   81.59    5.20
  -5  -3   1   80.69    5.10
  -5  -3   1   73.29    5.20
  -5  -3   1   80.89    5.20
  -5  -3   1   73.09    5.90
  -5  -3   1   73.69    5.00
  -5  -3   1   82.29    5.30
   4   3  -1   31.10    3.50
   4   3  -1   31.00    2.70
   4   3  -1   35.10    2.20
   4   3  -1   32.90    2.20
  -4  -3   1   33.70    2.50
  -4  -3   1   35.50    3.00
  -4  -3   1   28.40    2.80
  -4  -3   1   29.70    2.30
  -4  -3   1   32.60    2.40
  -4  -3   1   32.40    2.40
  -4  -3   1   33.50    2.30
   3   3  -1    3.30    1.00
   3   3  -1    2.60    0.70
   3   3  -1    3.60    1.10
   3   3  -1    3.40    0.50
  -3  -3   1    4.20    0.70
  -3  -3   1    2.90    1.00
  -3  -3   1    4.10    0.90
  -3  -3   1    2.80    0.80
  -3  -3   1    0.90    1.10
  -3  -3   1    2.50    1.00
  -3  -3   1    4.40    1.00
   2   3  -1  451.95   28.30
   2   3  -1  455.95   28.20
   2   3  -1  444.16   28.00
   2   3  -1  477.15   28.10
   2   3  -1  478.45   28.10
  -2  -3   1  441.86   28.10
  -2  -3   1  471.65   28.30
   1   3  -1  117.69    7.30
   1   3  -1  113.39    7.90
   1   3  -1  125.09    7.50
   1   3  -1  127.19    7.50
   1   3  -1  114.29    7.30
   1   3  -1  121.49    7.50
   1   3  -1  126.19    7.50
  -1  -3   1  113.39    7.40
  -1  -3   1  112.29    7.40
  -1  -3   1  120.09    7.50
   0   3  -1   82.19    5.30
   0   3  -1   84.59    5.50
   0   3  -1   98.89    5.50
   0   3  -1   89.99    5.40
   0   3  -1   86.19    5.30
   0  -3   1   78.79    5.40
   0  -3   1   85.59    5.50
   0  -3   1   83.69    5.40
  -1   3  -1    8.50    0.80
  -1   3  -1    9.90    0.90
  -1   3  -1   10.20    0.80
  -1   3  -1   10.20    1.20
   1  -3   1   10.80    1.30
   1  -3   1    8.50    1.00
  -2   3  -1  247.38   15.30
  -2   3  -1  268.77   15.60
  -2   3  -1  230.18   15.70
  -2   3  -1  244.78   15.30
  -2   3  -1  282.47   15.40
  -2   3  -1  267.67   15.50
   2  -3   1  251.07   15.40
   2  -3   1  252.67   15.50
   2  -3   1  247.28   15.30
   2  -3   1  241.98   15.50
   2  -3   1  231.18   15.60
   2  -3   1  244.58   15.40
  -3   3  -1  190.48   12.20
  -3   3  -1  198.38   12.00
  -3   3  -1  226.08   12.10
  -3   3  -1  192.48   12.50
  -3   3  -1  210.58   12.20
  -3   3  -1  191.78   12.00
  -3   3  -1  174.78   12.10
  -3   3  -1  197.88   12.10
   3  -3   1  195.08   12.10
   3  -3   1  204.08   12.20
   3  -3   1  183.78   12.30
   3  -3   1  202.48   12.00
   3  -3   1  183.18   12.00
   3  -3   1  182.58   12.70
   3  -3   1  188.78   12.00
  -4   3  -1  110.19    7.10
  -4   3  -1  114.59    7.00
  -4   3  -1  118.89    7.10
  -4   3  -1  104.69    6.90
  -4   3  -1  108.09    7.10
  -4   3  -1  116.89    7.10
  -4   3  -1   97.59    7.00
   4  -3   1  114.59    7.10
   4  -3   1  112.49    7.10
   4  -3   1  105.79    7.20
   4  -3   1  121.39    7.00
   4  -3   1  100.19    6.90
  -5   3  -1  575.94   34.70
  -5   3  -1  506.25   34.60
  -5   3  -1  515.65   34.80
  -5   3  -1  626.04   34.70
  -5   3  -1  542.95   34.70
  -5   3  -1  610.44   34.70
   5  -3   1  580.24   34.70
   5  -3   1  582.74   34.60
   5  -3   1  507.65   34.90
   5  -3   1  624.04   34.70
  -6   3  -1   38.90    3.30
  -6   3  -1   44.40    3.20
   6  -3   1   52.19    3.10
   6  -3   1   49.20    3.40
   6  -3   1   36.80    3.00
  -7   3  -1  103.19    5.80
  -7   3  -1   91.49    5.80
   7  -3   1   78.29    5.80
   7  -3   1   95.49    5.70
   8   2  -1    0.80    0.70
  -8  -2   1    1.60    0.60
  -8  -2   1    1.80    0.80
   7   2  -1  108.49    6.60
   7   2  -1  100.79    6.60
   7   2  -1  105.79    6.60
  -7  -2   1   97.29    6.70
  -7  -2   1  103.29    6.50
  -7  -2   1  104.69    6.60
  -7  -2   1  108.79    6.80
  -7  -2   1  105.79    6.70
   6   2  -1   41.70    4.00
   6   2  -1   50.39    3.30
   6   2  -1   55.49    3.40
   6   2  -1   48.50    3.40
  -6  -2   1   47.80    3.30
  -6  -2   1   51.79    3.50
  -6  -2   1   50.29    3.50
  -6  -2   1   40.40    5.00
  -6  -2   1   47.50    3.50
  -6  -2   1   51.49    3.40
   5   2  -1  109.09    6.20
   5   2  -1   98.99    6.50
   5   2  -1  100.49    6.20
  -5  -2   1   97.99    6.30
  -5  -2   1   96.19    6.30
  -5  -2   1   93.49    6.90
  -5  -2   1   96.69    6.40
  -5  -2   1  102.49    6.50
  -5  -2   1   96.99    6.20
   4   2  -1   12.40    1.30
   4   2  -1   12.90    1.00
   4   2  -1   11.30    1.60
  -4  -2   1    9.70    1.70
  -4  -2   1   12.00    1.40
  -4  -2   1   12.40    1.30
  -4  -2   1   11.90    1.40
  -4  -2   1   11.30    1.60
  -4  -2   1   10.10    1.30
  -4  -2   1   14.20    1.50
   3   2  -1  104.79    6.40
   3   2  -1  111.49    6.50
   3   2  -1   91.79    6.30
   3   2  -1  105.39    6.30
  -3  -2   1   93.49    6.40
  -3  -2   1  110.19    6.70
  -3  -2   1   96.79    6.50
   2   2  -1   88.89    5.40
   2   2  -1   90.99    5.40
   2   2  -1   81.79    5.30
   2   2  -1   87.19    5.40
  -2  -2   1   83.39    5.40
  -2  -2   1   90.89    5.60
  -2  -2   1   82.19    5.40
   1   2  -1  546.15   36.40
   1   2  -1  656.23   36.60
   1   2  -1  658.43   36.60
   1   2  -1  564.84   36.40
   1   2  -1  506.35   36.40
   1   2  -1  640.54   36.50
   1   2  -1  603.74   36.60
  -1  -2   1  619.34   36.60
  -1  -2   1  598.24   36.50
  -1  -2   1  588.94   36.50
  -1  -2   1  622.84   36.50
   0   2  -1 8853.11  559.84
   0   2  -1 9999.00  560.04
   0   2  -1 9534.35  559.74
   0   2  -1 9649.83  560.04
   0  -2   1 8909.11  559.94
   0  -2   1 8601.64  559.64
   0  -2   1 9002.30  560.04
  -1   2  -1 1148.09   67.79
  -1   2  -1 1042.20   67.69
  -1   2  -1 1252.37   67.79
  -1   2  -1 1183.28   67.79
  -1   2  -1 1166.18   67.89
   1  -2   1 1009.70   67.69
   1  -2   1 1074.19   67.69
   1  -2   1 1052.39   67.79
   1  -2   1 1140.89   67.79
   1  -2   1 1154.08   67.79
   1  -2   1 1041.30   67.79
  -2   2  -1    2.60    0.60
  -2   2  -1    1.50    0.30
  -2   2  -1    1.60    1.00
  -2   2  -1    1.40    0.40
  -2   2  -1    1.70    0.30
   2  -2   1    2.50    0.80
   2  -2   1    1.40    0.40
   2  -2   1    1.30    0.40
   2  -2   1    1.90    0.50
   2  -2   1    1.30    0.70
   2  -2   1    0.70    0.70
  -3   2  -1   43.30    3.30
  -3   2  -1   43.80    2.80
  -3   2  -1   45.20    2.80
  -3   2  -1   40.00    2.80
  -3   2  -1   38.60    3.00
  -3   2  -1   44.70    2.90
   3  -2   1   42.20    3.30
   3  -2   1   42.30    2.80
   3  -2   1   40.20    2.70
   3  -2   1   42.90    3.30
   3  -2   1   42.80    2.90
   3  -2   1   40.60    2.70
  -4   2  -1   58.99    4.20
  -4   2  -1   62.79    4.30
  -4   2  -1   60.09    5.60
  -4   2  -1   64.19    4.20
  -4   2  -1   65.79    4.30
  -4   2  -1   58.69    4.20
  -4   2  -1   69.39    4.10
  -4   2  -1   65.69    4.20
   4  -2   1   67.09    4.10
   4  -2   1   66.29    4.10
   4  -2   1   66.19    4.30
   4  -2   1   59.79    4.40
   4  -2   1   62.19    4.10
  -5   2  -1    0.90    0.70
  -5   2  -1    1.30    0.90
  -5   2  -1    1.30    0.70
  -5   2  -1    0.70    1.20
  -5   2  -1    1.30    1.10
  -5   2  -1    0.90    0.80
   5  -2   1    1.40    0.60
   5  -2   1    0.80    0.80
   5  -2   1    0.50    1.20
   5  -2   1   -0.10    1.10
  -6   2  -1    1.00    0.90
  -6   2  -1    2.60    1.80
  -6   2  -1    2.30    1.00
  -6   2  -1    1.70    2.10
  -6   2  -1    0.70    1.90
  -6   2  -1    0.50    0.90
   6  -2   1    1.10    0.80
   6  -2   1    0.50    1.40
   6  -2   1    4.50    2.40
   6  -2   1    0.60    0.90
   6  -2   1    2.20    1.30
  -7   2  -1   15.60    1.50
  -7   2  -1   15.30    1.70
   7  -2   1   17.40    1.60
   7  -2   1   17.10    1.30
   8   1  -1   11.50    1.30
   8   1  -1   13.60    1.10
  -8  -1   1   12.30    1.20
  -8  -1   1    9.90    1.10
  -8  -1   1   12.30    1.20
   7   1  -1   66.49    4.40
   7   1  -1   66.69    4.30
   7   1  -1   66.59    4.40
  -7  -1   1   64.59    4.40
  -7  -1   1   70.29    4.40
  -7  -1   1   70.39    4.50
  -7  -1   1   62.99    4.40
   6   1  -1  714.23   44.90
   6   1  -1  687.03   45.20
   6   1  -1  700.43   44.90
   6   1  -1  752.02   44.90
  -6  -1   1  780.32   45.00
  -6  -1   1  768.92   45.00
  -6  -1   1  758.72   45.00
  -6  -1   1  735.83   45.00
  -6  -1   1  736.53   44.90
   5   1  -1  182.78   11.80
   5   1  -1  200.18   11.80
   5   1  -1  198.58   12.00
  -5  -1   1  182.28   12.30
  -5  -1   1  190.08   11.90
  -5  -1   1  184.48   11.80
  -5  -1   1  199.78   11.90
   4   1  -1    1.50    1.10
   4   1  -1   -1.00    1.80
   4   1  -1    1.50    0.80
   4   1  -1    1.30    0.60
   4   1  -1    1.40    0.40
  -4  -1   1    1.90    0.80
  -4  -1   1    1.70    0.70
  -4  -1   1    2.90    0.60
  -4  -1   1    1.50    0.70
  -4  -1   1    1.30    0.70
  -4  -1   1    1.00    1.00
  -4  -1   1    0.70    1.30
  -4  -1   1    0.90    0.70
  -4  -1   1    0.30    0.80
   3   1  -1  156.08    8.90
   3   1  -1  141.69    8.80
   3   1  -1  146.89    8.90
   3   1  -1  145.59    8.90
   3   1  -1  138.99    8.70
   3   1  -1  128.99    8.80
  -3  -1   1  152.38    9.10
  -3  -1   1  140.59    8.90
  -3  -1   1  129.89    8.80
  -3  -1   1  146.39    8.70
  -3  -1   1  143.59    8.70
   2   1  -1  761.12   44.90
   2   1  -1  638.44   44.80
   2   1  -1  797.02   45.00
   2   1  -1  730.83   44.90
  -2  -1   1  760.82   44.90
  -2  -1   1  754.42   44.90
  -2  -1   1  774.02   45.10
  -2  -1   1  738.43   44.90
  -2  -1   1  693.43   44.80
   1   1  -1    1.60    0.20
   1   1  -1    0.70    0.30
  -1  -1   1    1.10    0.30
  -1  -1   1    1.10    0.30
   0   1  -1  349.67   23.00
   0   1  -1  331.17   23.00
   0   1  -1  392.46   23.10
   0   1  -1  398.86   23.10
   0   1  -1  378.66   23.10
   0   1  -1  335.97   23.00
   0  -1   1  391.26   23.10
   0  -1   1  403.16   23.10
   0  -1   1  357.06   23.00
   0  -1   1  388.76   23.10
  -1   1  -1  854.11   52.09
  -1   1  -1  852.91   52.09
  -1   1  -1  875.71   52.09
  -1   1  -1  879.81   52.09
   1  -1   1  867.11   52.09
   1  -1   1  884.11   52.09
   1  -1   1  864.41   51.99
   1  -1   1  844.42   52.09
   1  -1   1  778.42   51.99
  -2   1  -1   80.29    5.70
  -2   1  -1  100.19    5.80
  -2   1  -1   97.99    5.90
  -2   1  -1  100.19    5.80
  -2   1  -1   86.59    5.90
   2  -1   1   88.59    5.90
   2  -1   1   96.29    5.90
   2  -1   1   86.09    5.70
   2  -1   1   96.19    5.90
   2  -1   1   99.59    5.80
  -3   1  -1    0.20    0.30
  -3   1  -1    0.60    0.30
  -3   1  -1    0.20    0.70
  -3   1  -1   -0.20    0.60
  -3   1  -1    1.10    0.90
   3  -1   1    0.10    0.90
   3  -1   1   -0.30    0.20
   3  -1   1    0.20    0.40
   3  -1   1   -0.50    1.10
   3  -1   1    0.40    0.50
  -4   1  -1  209.08   13.20
  -4   1  -1  210.08   13.60
  -4   1  -1  198.78   13.20
  -4   1  -1  190.48   13.20
  -4   1  -1  233.98   13.30
  -4   1  -1  204.78   13.20
  -4   1  -1  240.68   13.20
   4  -1   1  231.68   13.30
   4  -1   1  218.98   13.20
   4  -1   1  220.78   13.10
   4  -1   1  200.88   13.50
   4  -1   1  211.48   13.80
  -5   1  -1  519.85   31.40
  -5   1  -1  524.25   31.40
  -5   1  -1  537.05   31.40
  -5   1  -1  498.15   31.40
  -5   1  -1  478.55   31.50
  -5   1  -1  491.45   31.40
   5  -1   1  508.85   31.40
   5  -1   1  514.65   31.30
   5  -1   1  526.95   31.30
   5  -1   1  537.35   31.60
  -6   1  -1  480.95   28.90
  -6   1  -1  493.25   28.80
  -6   1  -1  435.66   28.80
   6  -1   1  496.05   28.80
   6  -1   1  466.15   29.10
   6  -1   1  453.85   28.80
   6  -1   1  469.55   28.70
  -7   1  -1    0.50    0.70
  -7   1  -1    0.60    0.90
   7  -1   1    0.30    0.70
   7  -1   1    1.50    1.40
   7  -1   1    0.10    0.80
  -8   1  -1   43.80    3.00
  -8   1  -1   48.90    3.00
  -8   1  -1   47.70    3.00
   8  -1   1   43.00    2.90
  -8   0   1   73.79    4.90
  -8   0   1   75.99    4.90
  -8   0   1   77.79    4.80
  -8   0   1   79.19    4.80
   7   0  -1  133.69    8.70
   7   0  -1  133.39    8.70
   7   0  -1  156.78    9.20
  -7   0   1  141.49    8.80
  -7   0   1  128.19    8.80
  -7   0   1  145.99    8.80
  -7   0   1  146.29    8.90
   6   0  -1   22.20    2.80
   6   0  -1   24.60    2.00
   6   0  -1   24.90    2.10
  -6   0   1   29.40    2.30
  -6   0   1   26.80    2.20
  -6   0   1   27.40    2.00
  -6   0   1   23.30    2.40
   5   0  -1 1232.38   75.59
   5   0  -1 1237.78   75.59
   5   0  -1 1262.37   75.79
  -5   0   1 1313.27   75.69
  -5   0   1 1250.37   75.59
  -5   0   1 1158.18   75.69
  -5   0   1 1249.38   75.59
   4   0  -1    1.10    0.90
   4   0  -1    0.30    1.30
   4   0  -1    1.00    0.50
   4   0  -1    2.50    0.50
   4   0  -1    2.70    2.40
  -4   0   1    1.80    0.70
  -4   0   1    0.30    1.00
  -4   0   1    1.90    0.50
  -4   0   1    2.70    0.70
  -4   0   1    3.00    1.10
  -4   0   1    1.90    0.70
  -4   0   1   -0.80    1.70
  -4   0   1    1.50    0.50
  -4   0   1   -0.30    0.80
   3   0  -1  155.88    9.30
   3   0  -1  142.59    9.40
   3   0  -1  138.59    9.20
  -3   0   1  147.69    9.40
  -3   0   1  160.18    9.30
  -3   0   1  153.48    9.20
  -3   0   1  148.59    9.40
   2   0  -1  424.86   26.70
   2   0  -1  463.25   26.70
   2   0  -1  460.85   26.70
   2   0  -1  404.86   26.60
   2   0  -1  385.66   26.60
  -2   0   1  464.45   26.60
  -2   0   1  444.06   26.70
  -2   0   1  452.75   26.70
  -2   0   1  439.56   26.60
   1   0  -1 2310.57  135.29
   1   0  -1 2072.19  135.09
   1   0  -1 2347.27  135.09
  -1   0   1 2170.38  135.29
  -1   0   1 2019.00  135.09
  -1   0   1 2292.97  135.09
  -1   0   1 2345.37  135.29
   0   0  -1    4.30    0.50
   0   0  -1    4.20    0.40
   0   0  -1    4.70    0.40
   0   0  -1    4.60    0.40
   0   0  -1    3.90    0.30
   0   0   1    5.10    0.40
   0   0   1    4.30    0.40
   0   0   1    4.10    0.50
   0   0   1    5.30    0.40
   0   0   1    4.70    0.30
  -1   0  -1  175.88   11.30
  -1   0  -1  203.38   11.40
  -1   0  -1  169.08   11.30
  -1   0  -1  186.28   11.30
  -1   0  -1  193.28   11.40
   1   0   1  187.58   11.40
   1   0   1  188.78   11.40
   1   0   1  174.08   11.30
   1   0   1  184.08   11.40
  -2   0  -1 2166.48  134.89
  -2   0  -1 2155.08  134.59
  -2   0  -1 2220.68  134.49
  -2   0  -1 2338.57  134.49
   2   0   1 2005.20  134.29
   2   0   1 2317.37  134.59
   2   0   1 2274.87  134.59
  -3   0  -1 1200.78   68.99
  -3   0  -1 1184.28   69.09
  -3   0  -1 1108.19   68.99
  -3   0  -1 1100.59   68.99
  -3   0  -1 1199.48   68.99
   3   0   1 1142.09   68.99
   3   0   1  987.40   68.89
   3   0   1 1116.29   68.99
   3   0   1 1164.98   69.09
  -4   0  -1  651.23   35.70
  -4   0  -1  638.34   35.90
  -4   0  -1  547.15   35.70
  -4   0  -1  571.74   35.70
  -4   0  -1  584.44   36.00
  -4   0  -1  548.55   35.80
  -4   0  -1  535.25   35.70
   4   0   1  597.44   35.70
   4   0   1  593.04   35.70
   4   0   1  647.24   35.80
   4   0   1  576.24   36.10
   4   0   1  546.65   35.70
  -5   0  -1   22.80    1.70
  -5   0  -1   20.60    2.10
  -5   0  -1   20.40    2.30
  -5   0  -1   21.20    1.70
  -5   0  -1   20.90    1.90
  -5   0  -1   21.70    1.80
  -5   0  -1   19.90    2.30
  -5   0  -1   23.90    2.10
  -5   0  -1   22.30    1.90
   5   0   1   22.90    1.90
   5   0   1   24.40    1.70
   5   0   1   18.80    1.80
   5   0   1   22.00    1.60
  -6   0  -1  442.86   25.60
  -6   0  -1  401.56   25.60
  -6   0  -1  431.56   25.60
  -6   0  -1  398.36   25.60
  -6   0  -1  447.86   25.60
  -6   0  -1  400.36   25.60
  -6   0  -1  388.16   25.90
   6   0   1  435.96   25.60
   6   0   1  438.36   25.50
   6   0   1  372.86   25.50
   6   0   1  435.56   25.90
  -7   0  -1   93.09    6.00
  -7   0  -1   98.39    6.00
   7   0   1   88.49    5.90
   7   0   1   92.79    5.90
  -8   0  -1   36.50    2.70
  -8   0  -1   39.10    2.60
  -8   0  -1   36.70    2.60
   8   0   1   40.90    2.60
   8   0   1   41.00    2.90
   7  -1  -1  123.09    7.70
  -7   1   1  122.99    7.80
  -7   1   1  119.59    7.70
  -7   1   1  121.39    7.80
  -7   1   1  128.49    7.80
   6  -1  -1  120.69    7.00
   6  -1  -1  109.89    7.10
   6  -1  -1  102.59    7.20
   6  -1  -1  104.59    7.20
   6  -1  -1  108.59    7.80
  -6   1   1  119.09    7.20
  -6   1   1  114.99    7.20
  -6   1   1  117.19    7.20
   5  -1  -1   22.80    2.30
   5  -1  -1   26.80    2.00
   5  -1  -1   28.40    2.10
   5  -1  -1   24.80    2.10
   5  -1  -1   26.80    2.40
  -5   1   1   27.10    2.10
  -5   1   1   24.00    2.40
  -5   1   1   25.60    2.30
  -5   1   1   26.50    2.00
  -5   1   1   27.70    2.30
   4  -1  -1  127.99    7.90
   4  -1  -1  110.39    8.00
   4  -1  -1  128.29    7.80
   4  -1  -1  115.69    8.50
   4  -1  -1  135.89    8.00
   4  -1  -1  130.19    7.90
  -4   1   1  128.69    8.00
  -4   1   1  137.89    8.00
  -4   1   1  139.89    7.90
  -4   1   1  117.19    8.60
  -4   1   1  121.79    7.90
  -4   1   1  121.09    8.00
   3  -1  -1 1888.21  116.29
   3  -1  -1 2134.89  116.29
   3  -1  -1 1837.12  116.09
   3  -1  -1 1754.22  116.09
   3  -1  -1 1823.92  116.09
  -3   1   1 1948.01  116.09
  -3   1   1 1841.72  116.29
  -3   1   1 1824.52  115.99
  -3   1   1 2014.70  116.19
  -3   1   1 2086.09  116.29
  -3   1   1 1878.61  116.39
   2  -1  -1   67.39    4.20
   2  -1  -1   66.99    4.10
   2  -1  -1   65.39    4.20
   2  -1  -1   60.99    4.00
  -2   1   1   65.49    4.30
  -2   1   1   59.19    4.00
  -2   1   1   67.49    4.10
  -2   1   1   68.49    4.10
  -2   1   1   66.59    4.10
  -2   1   1   66.29    4.20
   1  -1  -1   20.00    1.50
  -1   1   1   20.90    1.50
  -1   1   1   20.30    1.60
   0  -1  -1   14.00    1.00
   0  -1  -1   14.30    1.00
   0  -1  -1   15.40    1.00
   0  -1  -1   13.70    1.00
   0   1   1   13.10    0.90
   0   1   1   16.50    1.00
   0   1   1   14.70    1.00
   0   1   1   14.60    1.00
   0   1   1   14.30    1.00
  -1  -1  -1 4659.63  295.77
  -1  -1  -1 4728.23  295.57
   1   1   1 5201.58  295.77
  -2  -1  -1   36.80    2.40
  -2  -1  -1   36.60    2.20
  -2  -1  -1   34.40    2.30
  -2  -1  -1   33.30    2.20
  -2  -1  -1   35.80    2.20
   2   1   1   35.50    2.20
   2   1   1   33.80    2.20
   2   1   1   31.50    2.10
   2   1   1   36.20    2.20
  -3  -1  -1   14.40    1.30
  -3  -1  -1   14.70    1.20
  -3  -1  -1   13.80    1.10
  -3  -1  -1   13.60    1.10
  -3  -1  -1   12.80    0.90
   3   1   1   12.70    1.10
   3   1   1   12.90    1.00
   3   1   1   15.10    1.20
   3   1   1   13.00    0.90
  -4  -1  -1   53.99    3.90
  -4  -1  -1   55.79    3.70
  -4  -1  -1   58.69    3.60
  -4  -1  -1   59.59    4.40
  -4  -1  -1   49.50    3.60
  -4  -1  -1   61.39    3.80
  -4  -1  -1   58.89    4.00
   4   1   1   59.69    3.70
   4   1   1   51.19    3.70
   4   1   1   53.39    3.60
   4   1   1   56.39    4.10
   4   1   1   61.89    3.60
  -5  -1  -1    3.20    0.70
  -5  -1  -1    3.60    0.60
  -5  -1  -1    4.20    0.70
  -5  -1  -1    3.30    1.00
  -5  -1  -1    3.60    0.70
  -5  -1  -1    3.10    0.70
  -5  -1  -1    4.10    1.50
  -5  -1  -1    5.40    1.50
  -5  -1  -1    3.10    1.00
  -5  -1  -1    3.50    0.80
   5   1   1    2.30    0.60
   5   1   1    4.30    1.00
   5   1   1    2.70    0.50
  -6  -1  -1   47.70    3.80
  -6  -1  -1   51.19    4.50
  -6  -1  -1   54.19    3.40
  -6  -1  -1   50.59    3.50
  -6  -1  -1   41.80    4.20
  -6  -1  -1   52.09    3.60
  -6  -1  -1   50.49    3.40
   6   1   1   53.99    3.40
   6   1   1   47.60    3.40
  -7  -1  -1    0.30    1.00
  -7  -1  -1    0.20    0.70
  -7  -1  -1    0.50    0.60
  -7  -1  -1   -1.20    1.00
  -7  -1  -1    0.10    0.80
   7   1   1   -0.50    0.70
   7   1   1    0.40    0.70
  -8  -1  -1   61.59    3.90
  -8  -1  -1   64.79    3.80
  -8  -1  -1   54.19    3.70
  -8  -1  -1   59.29    3.90
   8   1   1   59.39    3.80
   8   1   1   56.69    3.70
   8   1   1   53.39    3.90
   7  -2  -1   44.80    2.70
  -7   2   1   41.40    2.90
  -7   2   1   41.00    2.80
  -7   2   1   37.40    2.80
  -7   2   1   40.00    2.70
   6  -2  -1  104.69    6.20
   6  -2  -1   94.09    6.30
  -6   2   1   95.49    6.40
  -6   2   1   96.79    6.30
  -6   2   1  101.09    6.30
   5  -2  -1   72.79    5.10
   5  -2  -1   68.09    5.20
   5  -2  -1   81.29    5.10
   5  -2  -1   79.19    5.40
   5  -2  -1   89.69    5.20
  -5   2   1   97.29    6.80
  -5   2   1   72.09    5.20
  -5   2   1   82.19    5.30
  -5   2   1   82.89    5.40
  -5   2   1   77.69    5.30
   4  -2  -1   76.79    4.70
   4  -2  -1   70.99    4.70
   4  -2  -1   76.49    4.70
   4  -2  -1   71.49    4.90
   4  -2  -1   78.19    5.00
   4  -2  -1   70.59    4.70
  -4   2   1   69.89    5.00
  -4   2   1   72.79    4.90
  -4   2   1   71.99    4.70
  -4   2   1   78.59    4.80
  -4   2   1   68.69    4.80
  -4   2   1   72.49    4.90
  -4   2   1   82.89    5.00
   3  -2  -1  101.99    7.00
   3  -2  -1  107.29    6.90
   3  -2  -1  119.29    7.00
   3  -2  -1  111.89    6.90
   3  -2  -1  114.99    7.30
  -3   2   1  111.69    6.90
  -3   2   1  114.49    7.00
  -3   2   1  101.69    7.00
  -3   2   1  111.09    7.30
  -3   2   1  110.59    6.90
  -3   2   1  113.79    6.90
   2  -2  -1  677.23   43.40
   2  -2  -1  658.13   43.60
   2  -2  -1  653.23   43.40
   2  -2  -1  764.12   43.50
   2  -2  -1  690.43   43.60
  -2   2   1  755.92   43.50
  -2   2   1  696.83   43.70
  -2   2   1  765.22   43.50
  -2   2   1  768.12   43.60
   1  -2  -1 1568.34   96.79
   1  -2  -1 1607.74   96.79
   1  -2  -1 1677.03   96.89
   1  -2  -1 1529.75   96.79
  -1   2   1 1481.55   96.69
  -1   2   1 1614.24   96.89
  -1   2   1 1575.84   96.89
  -1   2   1 1632.94   96.79
  -1   2   1 1649.73   96.79
   0  -2  -1    9.50    0.80
   0  -2  -1    9.30    0.80
   0   2   1   10.00    0.80
   0   2   1    9.70    0.70
   0   2   1   10.50    0.80
   0   2   1    9.90    0.80
  -1  -2  -1  215.28   14.20
   1   2   1  238.78   14.10
   1   2   1  241.48   14.20
  -2  -2  -1   35.00    2.40
  -2  -2  -1   36.20    2.50
  -3  -2  -1   30.40    2.10
  -3  -2  -1   29.10    1.90
  -3  -2  -1   29.00    2.30
  -3  -2  -1   31.20    1.90
   3   2   1   27.80    1.90
   3   2   1   31.90    1.90
   3   2   1   25.90    1.90
  -4  -2  -1   51.69    3.80
  -4  -2  -1   52.39    3.80
  -4  -2  -1   50.79    3.80
  -4  -2  -1   60.59    3.80
  -4  -2  -1   56.99    3.70
  -4  -2  -1   50.29    3.70
  -4  -2  -1   55.09    3.80
  -4  -2  -1   61.79    4.10
   4   2   1   61.49    3.70
   4   2   1   59.09    3.50
   4   2   1   59.39    3.90
  -5  -2  -1   62.99    4.50
  -5  -2  -1   73.79    5.00
  -5  -2  -1   65.49    4.70
  -5  -2  -1   72.09    4.50
  -5  -2  -1   67.29    4.40
  -5  -2  -1   60.39    4.30
  -5  -2  -1   68.59    4.40
   5   2   1   73.29    4.30
   5   2   1   70.79    4.60
   5   2   1   67.39    4.40
  -6  -2  -1  346.17   21.00
  -6  -2  -1  331.07   21.10
  -6  -2  -1  353.36   21.10
  -6  -2  -1  351.56   21.10
  -6  -2  -1  318.67   20.90
   6   2   1  348.97   20.90
   6   2   1  346.27   21.00
  -7  -2  -1   64.19    4.20
  -7  -2  -1   64.99    4.30
  -7  -2  -1   63.29    4.30
  -7  -2  -1   59.39    4.50
  -7  -2  -1   64.59    4.50
   7   2   1   64.89    4.30
   7   2   1   63.79    4.20
  -8  -2  -1  148.49    8.70
  -8  -2  -1  120.39    8.60
   8   2   1  141.29    8.70
   8   2   1  142.79    8.60
   8   2   1  141.89    8.60
   7  -3  -1    8.60    1.20
  -7   3   1   10.30    0.90
  -7   3   1    8.20    1.00
   6  -3  -1  126.19    8.20
   6  -3  -1  132.79    8.10
   6  -3  -1  131.89    8.30
  -6   3   1  125.39    8.30
  -6   3   1  127.99    8.20
  -6   3   1  139.19    8.20
   5  -3  -1   -0.20    0.80
   5  -3  -1    0.30    1.00
   5  -3  -1   -0.10    2.70
   5  -3  -1   -0.30    0.70
  -5   3   1    0.00    0.70
  -5   3   1   -1.10    1.80
  -5   3   1   -0.30    1.00
  -5   3   1    1.10    1.10
   4  -3  -1   37.90    3.10
   4  -3  -1   35.00    2.60
   4  -3  -1   34.00    2.60
   4  -3  -1   38.10    2.50
  -4   3   1   36.50    2.80
  -4   3   1   37.00    2.80
  -4   3   1   35.60    3.00
  -4   3   1   36.80    2.60
  -4   3   1   35.40    2.60
   3  -3  -1    9.60    1.30
   3  -3  -1    7.80    1.00
   3  -3  -1    8.00    1.00
   3  -3  -1    8.40    0.80
   3  -3  -1    8.00    1.40
   3  -3  -1    4.60    2.80
   3  -3  -1    9.70    1.40
  -3   3   1    9.60    1.50
  -3   3   1    7.80    0.90
  -3   3   1    8.00    0.80
  -3   3   1    7.70    1.10
  -3   3   1    8.90    1.20
  -3   3   1    8.80    1.00
   2  -3  -1    9.80    1.70
   2  -3  -1   10.50    1.20
   2  -3  -1   10.10    1.30
   2  -3  -1   10.00    1.30
   2  -3  -1    8.20    1.30
  -2   3   1   12.40    1.50
  -2   3   1   10.40    0.80
  -2   3   1    9.90    1.00
  -2   3   1    9.80    1.00
  -2   3   1   11.20    2.20
  -2   3   1    9.90    1.10
   1  -3  -1   12.40    1.50
   1  -3  -1   10.00    1.70
   1  -3  -1   13.00    1.30
   1  -3  -1   12.20    1.10
  -1   3   1   15.90    1.70
  -1   3   1   13.20    1.00
  -1   3   1   12.60    1.40
  -1   3   1   10.90    1.20
  -1   3   1   15.30    1.10
  -1   3   1   14.30    1.00
   0  -3  -1  857.81   52.49
   0  -3  -1  854.31   52.49
   0  -3  -1  761.22   52.49
   0   3   1  898.81   52.49
   0   3   1  890.51   52.49
   0   3   1  910.61   52.49
   0   3   1  822.72   52.39
   0   3   1  912.41   52.49
  -1  -3  -1  111.49    6.90
  -1  -3  -1  117.29    7.10
   1   3   1   95.29    6.90
   1   3   1  123.09    6.90
   1   3   1  110.09    7.00
   1   3   1  120.09    6.90
   1   3   1  112.79    6.90
  -2  -3  -1 1051.79   65.49
   2   3   1 1096.59   65.39
  -3  -3  -1  167.68   11.20
  -3  -3  -1  187.18   11.40
   3   3   1  193.68   11.60
   3   3   1  167.48   11.00
  -4  -3  -1  419.16   27.40
  -4  -3  -1  425.76   27.40
  -4  -3  -1  505.65   27.90
  -4  -3  -1  441.36   27.50
  -4  -3  -1  419.06   27.40
  -4  -3  -1  472.05   27.60
  -4  -3  -1  425.06   27.40
   4   3   1  451.75   27.30
   4   3   1  484.85   27.50
   4   3   1  441.56   28.00
  -5  -3  -1  147.79    9.00
  -5  -3  -1  121.09    9.20
  -5  -3  -1  151.88    9.00
  -5  -3  -1  132.29    9.00
  -5  -3  -1  150.68    9.60
   5   3   1  154.48    8.80
   5   3   1  148.19    9.10
   5   3   1  134.49    8.90
  -6  -3  -1   19.50    3.40
  -6  -3  -1   22.70    2.00
  -6  -3  -1   21.20    2.40
  -6  -3  -1   25.90    2.10
  -6  -3  -1   22.70    2.10
  -6  -3  -1   24.50    2.20
   6   3   1   21.90    2.80
   6   3   1   24.00    2.00
  -7  -3  -1  138.99    8.60
  -7  -3  -1  132.79    8.70
   7   3   1  130.69    8.50
   7   3   1  138.39    8.40
  -8  -3  -1    1.90    2.00
  -8  -3  -1    2.70    0.60
  -8  -3  -1    3.60    0.90
   8   3   1    4.40    0.80
   8   3   1    3.10    0.80
   6  -4  -1   26.10    1.90
   6  -4  -1   26.40    1.70
  -6   4   1   26.70    1.80
  -6   4   1   22.40    1.90
  -6   4   1   25.00    1.80
   5  -4  -1   20.50    1.60
   5  -4  -1   23.80    1.90
  -5   4   1   22.00    2.30
  -5   4   1   23.10    2.10
   4  -4  -1    5.90    2.60
   4  -4  -1    2.80    0.70
   4  -4  -1    1.90    0.80
  -4   4   1    3.70    1.10
  -4   4   1    3.50    1.20
  -4   4   1    2.40    1.30
  -4   4   1    3.20    0.70
  -4   4   1    1.20    1.50
   3  -4  -1   87.19    5.70
   3  -4  -1   78.29    5.20
   3  -4  -1   79.59    5.70
   3  -4  -1   82.89    5.30
   3  -4  -1   82.39    5.40
   3  -4  -1   85.19    5.30
  -3   4   1   87.19    5.30
  -3   4   1   82.29    5.50
  -3   4   1   75.09    5.40
  -3   4   1   84.29    5.30
   2  -4  -1  679.23   45.30
   2  -4  -1  749.42   45.30
   2  -4  -1  707.93   45.30
   2  -4  -1  747.93   45.40
   2  -4  -1  709.73   45.50
   2  -4  -1  751.22   45.50
   2  -4  -1  765.42   45.30
  -2   4   1  792.32   45.30
  -2   4   1  789.32   45.30
  -2   4   1  761.02   45.50
  -2   4   1  713.23   45.40
  -2   4   1  769.42   45.40
   1  -4  -1   57.09    5.00
   1  -4  -1   61.19    4.50
   1  -4  -1   58.29    4.00
   1  -4  -1   64.09    4.10
   1  -4  -1   64.39    4.10
   1  -4  -1   63.89    4.40
   1  -4  -1   59.89    4.10
  -1   4   1   65.59    4.50
  -1   4   1   66.39    4.10
  -1   4   1   68.19    4.00
  -1   4   1   66.49    4.00
   0  -4  -1  134.99    9.30
   0  -4  -1  149.49    9.30
   0  -4  -1  137.29    9.50
   0  -4  -1  149.99    9.50
   0  -4  -1  145.09    9.50
   0  -4  -1  142.89    9.30
   0   4   1  164.18    9.20
   0   4   1  140.89    9.30
   0   4   1  167.78    9.30
   0   4   1  160.28    9.40
   0   4   1  166.08    9.50
   0   4   1  152.88    9.60
   1   4   1    1.30    0.50
   1   4   1    0.90    0.30
   1   4   1    2.80    0.80
   1   4   1    0.10    0.60
  -2  -4  -1   11.20    1.80
  -2  -4  -1   14.10    1.70
  -2  -4  -1   14.90    1.60
   2   4   1   14.50    1.20
   2   4   1   14.90    1.10
   2   4   1   15.30    1.50
  -3  -4  -1    1.80    1.10
  -3  -4  -1    0.90    1.00
  -3  -4  -1    0.20    0.90
  -3  -4  -1    0.90    0.90
  -3  -4  -1    0.40    0.90
   3   4   1    0.90    1.90
   3   4   1    0.80    0.90
  -4  -4  -1    4.20    1.00
  -4  -4  -1    4.60    1.00
  -4  -4  -1    4.50    0.90
  -4  -4  -1    6.30    1.30
  -4  -4  -1    4.90    1.50
   4   4   1    4.90    0.60
  -5  -4  -1  209.28   13.50
  -5  -4  -1  236.68   13.60
  -5  -4  -1  191.98   13.60
  -5  -4  -1  221.18   14.10
  -5  -4  -1  225.48   13.50
  -5  -4  -1  232.48   13.60
   5   4   1  207.38   13.70
  -6  -4  -1    6.80    1.10
  -6  -4  -1    6.50    1.30
  -6  -4  -1    6.30    1.10
  -6  -4  -1    4.30    0.90
  -6  -4  -1    3.70    2.90
   6   4   1    4.80    0.80
   6   4   1    1.50    2.20
  -7  -4  -1   14.80    1.40
  -7  -4  -1   17.60    2.00
  -7  -4  -1   14.70    1.70
  -7  -4  -1   13.60    2.00
   7   4   1   13.50    1.60
   7   4   1   10.80    1.80
  -8  -4  -1    3.20    0.70
  -8  -4  -1    2.90    1.80
  -8  -4  -1    2.50    0.60
   8   4   1    3.90    0.70
   5  -5  -1   37.90    2.50
   5  -5  -1   30.30    2.40
   5  -5  -1   37.50    2.40
  -5   5   1   34.10    2.40
  -5   5   1   35.00    2.50
  -5   5   1   36.10    3.10
   4  -5  -1  111.29    7.90
   4  -5  -1  127.69    7.90
   4  -5  -1  136.39    8.00
  -4   5   1  114.89    8.00
  -4   5   1  123.69    7.90
  -4   5   1  147.29    8.10
   3  -5  -1    2.70    0.80
   3  -5  -1    1.70    0.70
   3  -5  -1    0.70    0.90
   3  -5  -1    3.10    0.90
  -3   5   1    1.90    1.50
  -3   5   1    2.80    0.80
  -3   5   1    2.00    1.00
  -3   5   1    4.00    0.90
   2  -5  -1   31.10    2.80
   2  -5  -1   29.30    2.30
   2  -5  -1   33.30    2.30
   2  -5  -1   29.80    2.30
   2  -5  -1   32.20    2.30
  -2   5   1   26.80    2.50
  -2   5   1   35.00    2.30
  -2   5   1   35.40    2.30
  -2   5   1   30.60    2.20
  -2   5   1   29.80    2.60
   1  -5  -1   18.70    1.90
   1  -5  -1   22.60    1.70
   1  -5  -1   22.80    1.70
   1  -5  -1   22.70    1.70
  -1   5   1   19.00    1.90
  -1   5   1   22.00    1.60
  -1   5   1   22.60    1.60
  -1   5   1   21.40    1.60
   0  -5  -1  111.59    7.10
   0  -5  -1  110.69    6.80
   0  -5  -1  102.39    6.80
   0  -5  -1  113.79    6.80
   0  -5  -1  106.19    7.00
   0  -5  -1  101.29    6.80
   0   5   1  101.19    6.70
   0   5   1  115.19    6.90
   0   5   1  109.29    6.80
   0   5   1  114.89    6.70
  -1  -5  -1  210.38   13.40
  -1  -5  -1  214.88   13.50
  -1  -5  -1  218.58   13.50
  -1  -5  -1  219.48   13.50
  -1  -5  -1  220.98   13.60
   1   5   1  218.68   13.50
   1   5   1  225.18   13.30
   1   5   1  222.18   13.40
  -2  -5  -1  156.78    9.50
  -2  -5  -1  140.59    9.40
  -2  -5  -1  156.28    9.60
  -2  -5  -1  157.98    9.30
  -2  -5  -1  140.69    9.40
   2   5   1  152.28    9.20
  -3  -5  -1  239.58   15.70
  -3  -5  -1  243.58   15.50
  -3  -5  -1  262.57   16.00
   3   5   1  266.57   15.80
  -4  -5  -1   13.60    2.60
  -4  -5  -1   12.50    1.80
  -4  -5  -1   14.40    1.60
  -4  -5  -1   15.10    1.70
   4   5   1   13.80    1.40
  -5  -5  -1  145.49    9.60
  -5  -5  -1  156.18    9.50
  -5  -5  -1  142.89   10.40
  -5  -5  -1  162.58    9.50
   5   5   1  166.68    9.30
   5   5   1  129.79    9.90
  -6  -5  -1    9.90    1.40
  -6  -5  -1   11.80    1.60
  -6  -5  -1    9.30    1.90
  -6  -5  -1   12.90    1.70
   6   5   1    8.80    1.30
  -7  -5  -1  229.08   13.00
  -7  -5  -1  218.58   13.00
  -7  -5  -1  200.48   13.00
   7   5   1  192.08   12.90
   4  -6  -1   30.90    2.20
  -4   6   1   28.60    2.30
  -4   6   1   35.90    2.30
  -4   6   1   30.40    2.30
   3  -6  -1   60.49    4.20
   3  -6  -1   69.39    4.20
  -3   6   1   72.49    4.20
  -3   6   1   56.79    4.10
  -3   6   1   64.69    4.20
  -3   6   1   57.49    4.30
   2  -6  -1  220.18   13.20
   2  -6  -1  214.08   13.40
   2  -6  -1  210.88   13.20
   2  -6  -1  210.98   13.10
   2  -6  -1  216.98   13.20
  -2   6   1  233.38   13.20
  -2   6   1  212.38   13.10
  -2   6   1  200.38   13.20
  -2   6   1  200.08   13.20
   1  -6  -1   51.99    3.40
   1  -6  -1   51.69    3.80
   1  -6  -1   50.49    3.30
   1  -6  -1   48.40    3.30
   1  -6  -1   51.39    3.30
  -1   6   1   45.90    3.30
  -1   6   1   53.79    3.30
  -1   6   1   44.30    3.90
  -1   6   1   51.39    3.30
  -1   6   1   47.30    3.50
   0  -6  -1  385.56   23.20
   0  -6  -1  389.86   23.30
   0  -6  -1  362.76   23.10
   0  -6  -1  392.96   23.20
   0  -6  -1  365.66   23.20
   0  -6  -1  389.46   23.20
   0  -6  -1  376.46   23.40
   0   6   1  337.37   23.40
   0   6   1  390.06   23.20
   0   6   1  417.86   23.10
   0   6   1  363.56   23.20
  -1  -6  -1   57.29    3.90
  -1  -6  -1   57.69    4.00
  -1  -6  -1   64.19    4.30
  -1  -6  -1   59.49    4.10
  -1  -6  -1   62.79    3.90
   1   6   1   66.89    3.80
   1   6   1   54.89    3.90
   1   6   1   59.69    3.90
  -2  -6  -1  189.78   12.10
  -2  -6  -1  201.68   12.30
  -2  -6  -1  207.38   12.40
  -2  -6  -1  181.58   12.20
   2   6   1  201.88   12.50
  -3  -6  -1   49.99    3.50
  -3  -6  -1   48.10    3.60
  -3  -6  -1   44.50    3.10
   3   6   1   48.30    3.10
  -4  -6  -1   68.39    4.30
  -4  -6  -1   58.09    4.20
  -4  -6  -1   68.99    4.50
  -4  -6  -1   54.09    4.50
   4   6   1   62.59    4.00
  -5  -6  -1  158.08    9.20
  -5  -6  -1  127.19    9.10
  -5  -6  -1  145.09    9.00
  -6  -6  -1    2.60    0.80
  -6  -6  -1    3.20    1.10
  -6  -6  -1    1.40    0.70
  -7  -6  -1  277.47   17.30
  -7  -6  -1  288.37   17.40
   3  -7  -1   23.20    1.70
   3  -7  -1   25.00    1.70
  -3   7   1   22.80    1.70
   2  -7  -1   38.90    2.80
   2  -7  -1   39.40    2.70
   2  -7  -1   41.70    3.10
   2  -7  -1   39.70    2.70
   2  -7  -1   39.70    2.70
  -2   7   1   43.60    2.90
  -2   7   1   39.10    2.70
   1  -7  -1   51.09    3.10
   1  -7  -1   49.10    3.30
  -1   7   1   55.39    3.20
  -1   7   1   41.50    3.40
  -1   7   1   40.70    3.40
  -1   7   1   48.90    3.20
   0  -7  -1  281.07   17.40
   0  -7  -1  276.67   17.40
   0  -7  -1  277.87   17.60
   0  -7  -1  281.97   17.50
   0   7   1  289.87   17.30
   0   7   1  291.97   17.40
  -1  -7  -1   56.19    4.20
  -1  -7  -1   55.39    4.00
  -1  -7  -1   63.09    4.30
  -1  -7  -1   60.69    3.80
   1   7   1   58.19    3.90
   1   7   1   59.79    3.80
  -2  -7  -1  173.08   10.50
  -2  -7  -1  156.68   10.50
  -2  -7  -1  179.88   10.60
  -2  -7  -1  191.88   10.80
   2   7   1  155.28   10.40
   2   7   1  148.49   11.30
   2   7   1  175.98   10.40
  -3  -7  -1    1.70    0.70
  -3  -7  -1    2.20    1.20
  -3  -7  -1    2.30    1.10
   3   7   1    2.30    0.60
  -4  -7  -1   20.30    1.80
  -5  -7  -1   34.80    2.60
  -5  -7  -1   35.30    2.80
  -6  -7  -1   71.49    4.30
  -6  -7  -1   57.99    4.10
   1  -8  -1    7.40    1.30
   1  -8  -1    7.70    1.00
   1  -8  -1    7.20    0.80
  -1   8   1    7.20    0.90
   0  -8  -1   13.00    1.40
   0  -8  -1   13.40    1.40
   0  -8  -1   14.30    1.10
   0   8   1   14.00    1.20
   0   8   1   13.00    1.30
  -1  -8  -1   -0.70    0.80
  -1  -8  -1    0.90    0.60
  -1  -8  -1    1.10    1.10
  -1  -8  -1    0.60    0.90
   1   8   1    0.10    0.60
   1   8   1    0.40    0.60
  -2  -8  -1   18.50    1.60
  -2  -8  -1   18.80    1.40
  -2  -8  -1   18.30    1.70
   2   8   1   19.60    1.60
   2   8   1   16.20    2.30
  -3  -8  -1   45.40    3.20
  -3  -8  -1   49.80    3.20
  -3  -8  -1   45.80    2.90
   3   8   1   39.50    3.20
  -4  -8  -1  302.97   18.60
  -4  -8   2   23.80    1.70
   3   8  -2   70.49    4.00
  -3  -8   2   55.59    4.00
  -3  -8   2   58.99    4.00
  -3  -8   2   64.69    4.20
   2   8  -2   11.00    1.30
   2   8  -2    7.10    1.00
  -2  -8   2    8.20    1.10
  -2  -8   2    8.40    1.10
  -2  -8   2    8.20    0.90
   1   8  -2   42.60    2.80
   1   8  -2   44.10    2.80
  -1  -8   2   40.80    3.00
  -1  -8   2   43.50    2.80
  -1  -8   2   41.60    2.90
   0   8  -2   64.99    4.50
   0   8  -2   75.69    4.60
   0   8  -2   77.89    4.70
   0  -8   2   78.49    4.60
   0  -8   2   70.79    4.60
   0  -8   2   69.99    4.80
  -1   8  -2    6.50    0.70
  -1   8  -2    6.80    0.80
   1  -8   2    6.70    0.70
   1  -8   2    6.80    0.70
   1  -8   2    5.50    1.20
   5   7  -2    0.70    0.60
  -5  -7   2    1.80    0.80
  -5  -7   2    0.80    0.80
   4   7  -2    0.90    0.60
   4   7  -2    0.60    0.50
  -4  -7   2    0.70    0.90
  -4  -7   2    1.80    1.00
   3   7  -2   30.00    1.90
   3   7  -2   23.10    2.40
   3   7  -2   30.00    2.00
  -3  -7   2   27.90    2.40
  -3  -7   2   25.10    2.20
  -3  -7   2   30.90    2.40
   2   7  -2  209.58   12.60
   2   7  -2  218.68   12.70
  -2  -7   2  213.98   12.80
  -2  -7   2  181.08   12.70
   1   7  -2   12.10    1.10
   1   7  -2    9.60    1.10
  -1  -7   2   13.10    1.70
  -1  -7   2   11.20    1.70
  -1  -7   2   10.00    1.30
  -1  -7   2   12.20    1.80
   0   7  -2  116.09    7.40
   0   7  -2  118.19    7.40
   0  -7   2  123.09    7.60
   0  -7   2  118.49    7.40
  -1   7  -2   21.00    1.70
  -1   7  -2   21.80    1.50
   1  -7   2   18.20    2.20
   1  -7   2   19.20    1.60
   1  -7   2   21.30    1.60
   1  -7   2   18.40    1.70
   1  -7   2   20.50    1.90
  -2   7  -2    1.20    0.50
  -2   7  -2    1.70    0.50
  -2   7  -2    1.60    0.80
   2  -7   2    1.20    0.50
   2  -7   2    0.60    0.40
   2  -7   2    1.60    0.40
   2  -7   2    0.80    1.30
  -3   7  -2  112.19    7.20
  -3   7  -2  125.69    7.20
   3  -7   2  125.99    7.20
   3  -7   2   97.59    7.20
   3  -7   2  124.79    7.20
   3  -7   2  106.99    7.10
   6   6  -2   16.90    1.50
   6   6  -2   20.40    1.50
  -6  -6   2   19.10    1.70
  -6  -6   2   19.60    1.60
   5   6  -2   27.40    2.10
  -5  -6   2   31.10    2.50
  -5  -6   2   26.30    2.30
   4   6  -2  155.18    9.40
   4   6  -2  156.38    9.30
  -4  -6   2  149.09    9.50
  -4  -6   2  142.49    9.50
  -4  -6   2  150.58    9.60
   3   6  -2    3.40    0.70
   3   6  -2    8.50    3.20
  -3  -6   2    6.10    1.20
  -3  -6   2    4.40    1.00
  -3  -6   2    5.70    0.90
  -3  -6   2    5.10    1.10
   2   6  -2  103.99    6.40
   2   6  -2  106.79    6.40
   2   6  -2  100.49    7.30
  -2  -6   2   99.19    6.40
  -2  -6   2  104.69    6.60
  -2  -6   2   98.39    6.60
  -2  -6   2  103.19    6.50
  -2  -6   2  101.99    6.70
  -2  -6   2  105.89    6.70
   1   6  -2   73.69    4.50
   1   6  -2   69.09    5.20
   1   6  -2   73.29    4.40
   1   6  -2   64.39    4.70
  -1  -6   2   73.09    4.80
  -1  -6   2   67.89    4.90
  -1  -6   2   68.39    4.60
  -1  -6   2   66.39    4.50
  -1  -6   2   73.49    4.70
   0   6  -2    1.00    0.60
   0   6  -2    1.00    0.40
   0   6  -2    1.20    1.90
   0  -6   2    0.60    1.10
   0  -6   2    1.20    0.80
   0  -6   2    0.70    0.50
   0  -6   2    0.50    1.10
  -1   6  -2    5.70    1.00
  -1   6  -2    6.80    2.10
  -1   6  -2    4.30    0.70
  -1   6  -2    4.20    1.00
   1  -6   2    4.20    1.10
   1  -6   2    4.30    1.00
   1  -6   2    4.40    0.70
   1  -6   2    4.60    0.80
   1  -6   2    3.40    1.40
  -2   6  -2    1.30    2.90
  -2   6  -2    1.10    0.80
  -2   6  -2    0.90    0.60
  -2   6  -2    3.30    2.70
  -2   6  -2    0.80    0.50
  -2   6  -2    1.20    1.30
   2  -6   2    1.20    0.60
   2  -6   2    2.10    1.40
   2  -6   2    1.30    0.70
   2  -6   2    0.70    0.70
   2  -6   2    1.50    0.80
  -3   6  -2  324.67   17.90
  -3   6  -2  256.37   18.00
  -3   6  -2  255.87   18.00
   3  -6   2  316.77   18.00
   3  -6   2  289.47   18.20
   3  -6   2  314.37   17.90
  -4   6  -2    6.80    1.10
   4  -6   2    9.00    1.20
   4  -6   2    7.40    1.10
   4  -6   2    8.80    1.20
  -5   6  -2  176.48   10.00
  -5   6  -2  143.09   10.20
   5  -6   2  166.88   10.00
   7   5  -2  111.19    6.90
  -7  -5   2  111.69    7.00
  -7  -5   2  111.49    6.90
   6   5  -2  156.28    9.50
   6   5  -2  153.48    9.40
   6   5  -2  155.58    9.60
  -6  -5   2  133.49    9.60
  -6  -5   2  159.68    9.60
  -6  -5   2  160.38    9.60
   5   5  -2   57.19    3.80
   5   5  -2   57.99    3.70
  -5  -5   2   53.09    3.90
  -5  -5   2   58.19    4.10
  -5  -5   2   53.09    5.70
  -5  -5   2   57.89    4.00
   4   5  -2   53.39    3.40
   4   5  -2   56.29    3.30
   4   5  -2   40.20    5.00
  -4  -5   2   54.69    3.60
  -4  -5   2   45.90    3.50
  -4  -5   2   47.10    3.70
  -4  -5   2   52.09    3.60
  -4  -5   2   47.50    5.10
   3   5  -2    4.20    2.00
   3   5  -2    4.00    0.60
   3   5  -2    4.50    0.70
  -3  -5   2    2.10    1.40
  -3  -5   2    3.40    1.00
  -3  -5   2    2.60    0.80
  -3  -5   2    4.40    2.30
  -3  -5   2    4.90    1.00
  -3  -5   2    2.30    1.00
  -3  -5   2    3.60    1.00
   2   5  -2  826.42   46.70
   2   5  -2  773.72   46.70
   2   5  -2  803.12   47.20
  -2  -5   2  763.12   47.20
  -2  -5   2  716.43   46.90
  -2  -5   2  762.22   46.90
  -2  -5   2  776.52   46.90
  -2  -5   2  725.03   46.80
   1   5  -2   15.00    1.30
   1   5  -2   14.50    1.90
   1   5  -2   17.20    1.20
  -1  -5   2   16.20    1.50
  -1  -5   2   14.60    1.40
   0   5  -2  366.36   24.70
   0   5  -2  423.66   25.00
   0   5  -2  388.26   24.80
   0   5  -2  417.56   24.70
   0   5  -2  435.96   24.60
   0   5  -2  385.46   24.70
   0  -5   2  413.76   24.90
  -1   5  -2  119.89    7.80
  -1   5  -2  125.49    7.60
  -1   5  -2  109.59    7.70
  -1   5  -2  127.69    8.00
  -1   5  -2  134.29    7.60
   1  -5   2  131.89    7.80
   1  -5   2  111.09    7.70
   1  -5   2  120.69    7.70
   1  -5   2  125.69    7.70
  -2   5  -2   41.80    3.40
  -2   5  -2   44.20    2.80
  -2   5  -2   41.80    3.30
  -2   5  -2   43.60    2.80
  -2   5  -2   38.70    2.80
   2  -5   2   37.30    3.40
   2  -5   2   43.60    2.90
   2  -5   2   41.50    2.80
   2  -5   2   43.50    2.90
  -3   5  -2   13.60    1.30
  -3   5  -2    8.60    1.70
  -3   5  -2   10.00    3.10
  -3   5  -2    8.30    1.20
  -3   5  -2   13.50    1.80
  -3   5  -2   12.60    1.20
  -3   5  -2   10.90    1.30
   3  -5   2    9.40    1.40
   3  -5   2   11.30    1.30
   3  -5   2    8.80    1.80
  -4   5  -2   14.10    1.40
  -4   5  -2   18.40    1.60
  -4   5  -2   17.90    1.60
   4  -5   2   15.70    1.40
   4  -5   2   15.10    1.60
   4  -5   2   16.90    1.40
  -5   5  -2  278.37   19.20
  -5   5  -2  312.67   19.30
  -5   5  -2  324.87   19.20
   5  -5   2  329.87   19.20
   5  -5   2  323.37   19.30
  -6   5  -2   15.30    1.10
  -6   5  -2   15.30    1.30
   7   4  -2  150.78    9.50
   7   4  -2  143.89    9.50
  -7  -4   2  168.98    9.60
  -7  -4   2  155.98    9.60
  -7  -4   2  148.99    9.60
   6   4  -2   77.69    5.00
   6   4  -2   80.79    5.10
   5   4  -2  182.78   13.30
   5   4  -2  217.38   12.90
   5   4  -2  243.38   13.10
  -5  -4   2  231.58   13.20
  -5  -4   2  181.28   13.90
  -5  -4   2  208.98   13.00
  -5  -4   2  212.58   13.00
  -5  -4   2  196.48   12.90
  -5  -4   2  207.88   13.10
   4   4  -2   24.80    3.00
   4   4  -2   26.10    2.00
  -4  -4   2   23.00    2.30
  -4  -4   2   29.00    2.40
  -4  -4   2   28.40    2.20
  -4  -4   2   28.50    2.80
  -4  -4   2   23.60    1.90
  -4  -4   2   25.20    2.10
  -4  -4   2   26.30    2.20
   3   4  -2   99.39    6.30
   3   4  -2  105.79    6.20
   3   4  -2  104.09    6.70
  -3  -4   2   93.39    6.30
  -3  -4   2  102.09    6.40
  -3  -4   2  101.39    6.40
  -3  -4   2  102.69    6.50
  -3  -4   2   97.39    6.50
  -3  -4   2  106.49    7.00
  -3  -4   2   93.99    6.40
   2   4  -2   65.69    3.70
   2   4  -2   58.89    4.70
   2   4  -2   63.79    4.10
  -2  -4   2   60.29    4.10
  -2  -4   2   58.29    4.00
  -2  -4   2   50.89    4.30
  -2  -4   2   61.49    4.10
  -2  -4   2   67.39    4.40
  -2  -4   2   55.69    4.00
  -2  -4   2   52.99    3.80
   1   4  -2  138.89    8.20
   1   4  -2  148.59    8.50
   1   4  -2  147.49    8.20
   1   4  -2  141.79    8.70
  -1  -4   2  128.99    8.30
  -1  -4   2  117.89    8.40
  -1  -4   2  138.69    8.40
  -1  -4   2  127.29    8.70
  -1  -4   2  119.69    8.30
  -1  -4   2  119.59    8.70
   0   4  -2 1759.12   99.29
   0   4  -2 1748.23   99.49
   0   4  -2 1806.12   99.49
   0   4  -2 1666.93   99.69
   0   4  -2 1794.12   99.39
   0   4  -2 1622.94   99.29
   0  -4   2 1413.16   99.29
   0  -4   2 1536.65   99.29
   0  -4   2 1577.34   99.39
   0  -4   2 1576.84   99.19
   0  -4   2 1528.55   99.49
   0  -4   2 1516.45   99.39
   0  -4   2 1704.93   99.39
  -1   4  -2  215.68   12.60
  -1   4  -2  210.58   12.30
  -1   4  -2  181.48   12.50
  -1   4  -2  218.48   12.50
  -1   4  -2  218.18   12.40
  -1   4  -2  217.78   12.40
  -1   4  -2  194.68   12.70
   1  -4   2  185.18   12.70
   1  -4   2  173.98   12.50
   1  -4   2  187.68   12.40
   1  -4   2  203.48   13.20
   1  -4   2  213.58   12.60
   1  -4   2  203.38   12.40
  -2   4  -2    1.20    0.40
  -2   4  -2    1.60    0.90
  -2   4  -2    1.20    1.10
  -2   4  -2    0.90    0.40
  -2   4  -2    0.30    0.30
  -2   4  -2    0.30    0.70
   2  -4   2    1.00    0.40
   2  -4   2    1.10    1.50
   2  -4   2    3.90    2.90
   2  -4   2    0.40    1.00
   2  -4   2    0.50    0.60
   2  -4   2    1.50    0.60
  -3   4  -2   70.69    4.50
  -3   4  -2   67.09    4.40
  -3   4  -2   70.29    4.50
  -3   4  -2   74.99    4.60
  -3   4  -2   68.49    4.70
  -3   4  -2   61.79    4.90
   3  -4   2   68.59    4.50
   3  -4   2   71.89    4.60
   3  -4   2   62.89    4.90
   3  -4   2   73.99    4.50
  -4   4  -2   90.79    5.20
  -4   4  -2   73.29    5.20
  -4   4  -2   76.29    5.10
  -4   4  -2   82.79    5.30
  -4   4  -2   78.49    5.10
  -4   4  -2   74.59    5.50
   4  -4   2   84.49    5.10
   4  -4   2   84.29    5.20
   4  -4   2   73.39    5.20
   4  -4   2   81.29    5.10
   4  -4   2   70.99    5.80
  -5   4  -2    0.20    0.90
  -5   4  -2    0.70    0.60
  -5   4  -2    1.30    1.00
   5  -4   2   -0.20    0.80
  -6   4  -2    7.50    0.90
  -6   4  -2    8.30    1.30
   6  -4   2    7.30    1.10
   6  -4   2    6.60    0.90
   6  -4   2    6.70    0.90
   7   3  -2   72.79    4.70
   7   3  -2   70.19    4.70
  -7  -3   2   71.19    4.80
  -7  -3   2   85.69    5.00
  -7  -3   2   71.09    4.70
  -7  -3   2   69.99    4.80
   6   3  -2  366.76   22.80
   6   3  -2  366.96   22.80
  -6  -3   2  377.36   22.90
  -6  -3   2  362.46   22.70
  -6  -3   2  399.86   22.90
  -6  -3   2  372.36   23.00
  -6  -3   2  360.26   22.80
   5   3  -2   10.20    1.30
   5   3  -2    9.10    1.00
  -5  -3   2    9.10    1.40
  -5  -3   2   14.40    3.00
  -5  -3   2    8.50    1.50
  -5  -3   2    8.70    1.30
  -5  -3   2    7.10    1.30
   4   3  -2    7.30    0.80
   4   3  -2    5.90    0.90
   4   3  -2    9.90    1.80
  -4  -3   2    6.20    1.00
  -4  -3   2    8.20    1.50
  -4  -3   2    7.30    1.30
  -4  -3   2    6.30    1.50
   3   3  -2  138.19    8.70
   3   3  -2  147.99    8.40
   3   3  -2  137.69    8.90
  -3  -3   2  127.39    8.60
  -3  -3   2  148.29    9.00
  -3  -3   2  135.49    8.60
  -3  -3   2  128.59    8.60
  -3  -3   2  133.59    8.60
   2   3  -2   50.49    3.70
   2   3  -2   46.60    3.20
   2   3  -2   53.39    3.20
   2   3  -2   52.89    3.60
   2   3  -2   49.50    3.90
   2   3  -2   53.19    3.40
  -2  -3   2   47.30    3.60
  -2  -3   2   42.90    3.50
  -2  -3   2   54.49    3.60
   1   3  -2   99.29    6.90
   1   3  -2  119.09    7.20
   1   3  -2  116.79    6.90
   1   3  -2  115.29    7.20
  -1  -3   2  113.89    7.00
  -1  -3   2  107.79    7.10
  -1  -3   2  103.99    7.10
  -1  -3   2  119.69    7.20
   0   3  -2  139.39    8.10
   0   3  -2  122.09    8.20
   0   3  -2  128.39    8.20
   0   3  -2  127.69    8.30
   0   3  -2  138.29    8.30
   0   3  -2  135.69    8.20
   0  -3   2  124.09    8.30
   0  -3   2  134.39    8.40
   0  -3   2  139.09    8.20
  -1   3  -2  141.09    8.70
  -1   3  -2  148.89    8.80
  -1   3  -2  151.88    8.70
  -1   3  -2  133.59    9.00
  -1   3  -2  146.49    8.70
   1  -3   2  129.89    9.00
   1  -3   2  144.89    8.90
   1  -3   2  143.59    8.70
   1  -3   2  139.09    9.00
   1  -3   2  133.09    8.70
  -2   3  -2   25.00    2.20
  -2   3  -2   26.60    1.80
  -2   3  -2   22.50    1.60
  -2   3  -2   25.00    1.60
  -2   3  -2   23.60    1.80
   2  -3   2   19.60    1.70
   2  -3   2   22.10    2.20
   2  -3   2   24.20    1.70
   2  -3   2   22.20    2.60
   2  -3   2   20.90    1.90
   2  -3   2   23.60    1.90
   2  -3   2   23.30    1.70
   2  -3   2   22.30    2.20
  -3   3  -2   48.50    3.20
  -3   3  -2   52.49    3.20
  -3   3  -2   47.60    3.40
  -3   3  -2   42.10    4.30
  -3   3  -2   47.90    3.20
  -3   3  -2   50.29    3.50
  -3   3  -2   51.99    3.40
  -3   3  -2   48.80    3.30
   3  -3   2   45.80    3.30
   3  -3   2   43.10    4.70
   3  -3   2   48.70    3.40
   3  -3   2   49.50    3.20
   3  -3   2   48.90    3.20
   3  -3   2   50.49    3.50
  -4   3  -2  286.77   17.80
  -4   3  -2  295.87   17.70
  -4   3  -2  298.27   17.70
  -4   3  -2  301.57   17.70
  -4   3  -2  249.18   17.70
   4  -3   2  275.47   17.90
   4  -3   2  286.67   17.70
   4  -3   2  296.07   17.60
   4  -3   2  289.47   17.60
  -5   3  -2    0.70    0.70
  -5   3  -2   -1.20    1.20
  -5   3  -2   -1.00    0.90
  -5   3  -2    0.20    0.60
  -5   3  -2    3.20    1.50
  -5   3  -2   -0.10    0.80
   5  -3   2    0.80    1.00
   5  -3   2    0.20    1.00
   5  -3   2   -0.10    0.70
   5  -3   2   -3.20    1.90
  -6   3  -2  656.23   46.20
   6  -3   2  748.23   46.30
   6  -3   2  835.22   46.20
   6  -3   2  794.42   46.10
  -7   3  -2    7.40    1.00
  -7   3  -2    9.90    0.90
   7  -3   2    6.90    1.40
   7  -3   2   10.20    0.90
   7  -3   2   10.00    1.10
   7   2  -2   12.30    1.40
   7   2  -2   10.60    1.50
  -7  -2   2   12.40    1.70
  -7  -2   2   11.90    1.30
  -7  -2   2   14.40    1.40
  -7  -2   2   11.70    1.30
   6   2  -2   -1.70    1.90
   6   2  -2    1.00    0.70
   6   2  -2    2.40    0.80
   6   2  -2    2.10    0.90
  -6  -2   2   -0.60    3.80
  -6  -2   2    1.10    0.80
  -6  -2   2    1.60    0.70
  -6  -2   2    0.90    0.80
  -6  -2   2    1.60    0.70
  -6  -2   2    2.30    1.10
   5   2  -2  648.34   37.20
   5   2  -2  544.15   37.10
   5   2  -2  658.53   37.20
   5   2  -2  618.34   37.50
  -5  -2   2  600.54   37.30
  -5  -2   2  569.64   37.90
  -5  -2   2  620.94   37.30
  -5  -2   2  624.94   37.40
  -5  -2   2  618.84   37.30
  -5  -2   2  597.94   37.20
   4   2  -2    7.40    0.80
   4   2  -2    7.20    1.40
   4   2  -2    8.00    1.20
   4   2  -2    6.80    1.20
   4   2  -2    7.30    0.90
  -4  -2   2    7.20    1.10
  -4  -2   2    6.20    1.10
  -4  -2   2    6.40    1.00
  -4  -2   2    6.80    1.10
  -4  -2   2    7.10    1.10
  -4  -2   2    7.40    1.30
  -4  -2   2    9.00    1.20
   3   2  -2    0.80    2.50
   3   2  -2    1.50    1.20
   3   2  -2    1.50    0.40
   3   2  -2   -0.10    0.90
   3   2  -2    0.90    0.50
  -3  -2   2    1.00    1.20
  -3  -2   2    0.00    0.90
  -3  -2   2    1.80    0.70
  -3  -2   2   -0.10    0.70
  -3  -2   2    0.70    0.80
  -3  -2   2    2.20    0.70
   2   2  -2   26.40    1.90
   2   2  -2   27.70    2.10
   2   2  -2   29.50    2.00
   2   2  -2   26.80    1.70
   2   2  -2   24.40    1.90
   2   2  -2   26.60    2.40
  -2  -2   2   26.80    2.00
  -2  -2   2   24.80    2.00
   1   2  -2 1007.20   62.09
   1   2  -2 1084.39   62.19
   1   2  -2 1027.70   62.19
   1   2  -2 1031.60   62.19
   1   2  -2 1071.09   62.29
  -1  -2   2 1018.90   62.19
  -1  -2   2  931.11   62.09
  -1  -2   2 1055.79   62.19
  -1  -2   2  977.30   62.19
   0   2  -2 4055.89  252.77
   0   2  -2 3972.30  252.37
   0   2  -2 3846.72  252.47
   0   2  -2 4273.67  252.87
   0   2  -2 4197.58  252.57
   0   2  -2 4242.78  252.87
   0   2  -2 4257.57  252.97
   0  -2   2 4313.07  252.87
   0  -2   2 4128.89  252.47
   0  -2   2 4317.47  253.17
   0  -2   2 4138.09  252.57
  -1   2  -2  531.85   33.40
  -1   2  -2  595.14   33.50
  -1   2  -2  574.54   33.50
  -1   2  -2  582.54   33.40
  -1   2  -2  551.14   33.40
  -1   2  -2  532.05   33.30
  -1   2  -2  547.95   33.50
   1  -2   2  542.15   33.50
   1  -2   2  519.15   33.50
   1  -2   2  578.44   33.40
   1  -2   2  560.74   33.50
   1  -2   2  498.05   33.30
   1  -2   2  523.15   33.50
  -2   2  -2  418.26   26.40
  -2   2  -2  453.35   26.20
  -2   2  -2  453.05   26.40
  -2   2  -2  437.36   26.30
   2  -2   2  422.16   26.30
   2  -2   2  443.16   26.40
   2  -2   2  404.86   26.20
   2  -2   2  407.66   26.40
   2  -2   2  441.36   26.40
   2  -2   2  422.26   26.30
  -3   2  -2    4.50    0.70
  -3   2  -2    4.30    0.60
  -3   2  -2    4.30    0.90
  -3   2  -2    5.10    0.70
  -3   2  -2    5.20    1.20
  -3   2  -2    4.70    1.10
   3  -2   2    3.50    0.70
   3  -2   2    2.70    1.20
   3  -2   2    7.40    1.80
   3  -2   2    6.40    0.80
   3  -2   2    4.80    0.70
   3  -2   2    4.40    0.60
  -4   2  -2  203.58   14.80
  -4   2  -2  221.88   14.00
  -4   2  -2  214.78   14.10
  -4   2  -2  241.98   14.00
  -4   2  -2  233.08   14.10
  -4   2  -2  238.38   14.10
  -4   2  -2  241.18   14.20
   4  -2   2  245.08   14.20
   4  -2   2  218.08   13.90
   4  -2   2  213.08   14.20
   4  -2   2  225.98   13.90
   4  -2   2  228.28   14.00
  -5   2  -2  216.18   12.80
  -5   2  -2  177.38   12.80
  -5   2  -2  216.78   12.80
  -5   2  -2  200.38   12.90
  -5   2  -2  213.38   12.70
  -5   2  -2  211.08   12.70
  -5   2  -2  202.38   12.70
   5  -2   2  217.68   12.70
   5  -2   2  210.08   12.70
   5  -2   2  184.38   12.80
   5  -2   2  205.08   13.00
  -6   2  -2  291.37   16.60
  -6   2  -2  285.67   16.50
  -6   2  -2  278.07   16.50
  -6   2  -2  294.17   16.50
  -6   2  -2  249.08   16.90
   6  -2   2  243.38   16.90
   6  -2   2  236.28   16.60
   6  -2   2  258.37   16.40
   6  -2   2  249.58   16.40
   6  -2   2  275.87   16.40
  -7   2  -2    0.20    0.80
  -7   2  -2    0.60    0.50
   7  -2   2   -0.10    0.90
   7  -2   2    0.90    0.50
   7  -2   2    0.30    1.60
   7   1  -2   14.20    1.30
   7   1  -2   13.80    1.50
   7   1  -2   13.60    1.80
  -7  -1   2   14.30    1.70
  -7  -1   2   16.60    1.40
  -7  -1   2   14.20    1.50
   6   1  -2    1.10    0.80
   6   1  -2    2.20    0.80
   6   1  -2    3.10    1.90
   6   1  -2    1.50    0.80
  -6  -1   2    2.20    0.90
  -6  -1   2    1.50    1.10
  -6  -1   2    0.30    1.10
  -6  -1   2    0.40    0.80
  -6  -1   2    0.50    3.10
  -6  -1   2    1.10    0.80
   5   1  -2  172.78   10.70
   5   1  -2  178.88   10.40
   5   1  -2  160.48   10.40
  -5  -1   2  164.28   10.40
  -5  -1   2  175.08   10.50
  -5  -1   2  172.38   10.50
  -5  -1   2  168.88   10.40
  -5  -1   2  146.19   11.00
  -5  -1   2  164.18   10.40
   4   1  -2  200.28   12.80
   4   1  -2  214.68   12.70
   4   1  -2  209.98   12.80
   4   1  -2  202.48   12.90
   4   1  -2  220.58   12.90
  -4  -1   2  200.68   12.80
  -4  -1   2  194.08   13.50
  -4  -1   2  219.88   12.90
  -4  -1   2  192.98   12.80
  -4  -1   2  211.48   13.20
  -4  -1   2  211.08   12.80
  -4  -1   2  209.68   12.80
   3   1  -2  728.93   43.40
   3   1  -2  704.03   43.30
   3   1  -2  696.23   43.30
   3   1  -2  666.13   43.50
   3   1  -2  733.53   43.50
  -3  -1   2  714.23   43.30
  -3  -1   2  672.63   43.50
  -3  -1   2  780.42   43.70
   2   1  -2   29.40    2.40
   2   1  -2   30.10    2.00
   2   1  -2   27.00    2.00
   2   1  -2   30.30    2.10
   2   1  -2   30.10    2.10
  -2  -1   2   30.40    1.90
  -2  -1   2   31.40    2.10
  -2  -1   2   29.30    2.10
  -2  -1   2   29.10    1.90
   1   1  -2    6.60    0.90
   1   1  -2    6.40    0.70
   1   1  -2    7.40    0.90
   1   1  -2    8.80    1.10
   1   1  -2    7.10    0.90
  -1  -1   2    6.80    0.90
  -1  -1   2    7.80    0.90
  -1  -1   2    7.90    0.90
   0   1  -2    7.40    0.60
   0   1  -2    8.40    0.80
   0   1  -2    6.90    0.60
   0   1  -2    8.40    0.70
   0   1  -2    8.30    0.70
   0   1  -2    8.70    0.90
   0  -1   2    7.90    0.70
   0  -1   2    9.00    0.80
   0  -1   2    8.40    1.00
  -1   1  -2 2597.84  152.28
  -1   1  -2 2415.06  151.88
  -1   1  -2 2679.13  152.08
  -1   1  -2 2549.15  152.08
  -1   1  -2 2617.34  151.88
  -1   1  -2 2217.88  151.68
  -1   1  -2 2612.44  152.08
   1  -1   2 2608.94  152.18
   1  -1   2 2505.15  151.98
   1  -1   2 2531.65  151.98
   1  -1   2 2378.86  151.98
   1  -1   2 2426.26  151.98
   1  -1   2 2342.07  151.68
  -2   1  -2  347.57   20.70
  -2   1  -2  305.47   20.60
  -2   1  -2  340.87   20.80
  -2   1  -2  344.77   20.60
  -2   1  -2  350.06   20.70
  -2   1  -2  315.57   20.60
   2  -1   2  361.96   20.80
   2  -1   2  351.06   20.80
   2  -1   2  347.87   20.70
   2  -1   2  319.67   20.60
  -3   1  -2    1.60    0.50
  -3   1  -2    1.70    0.30
  -3   1  -2    2.90    0.80
  -3   1  -2    2.30    1.10
   3  -1   2    1.60    0.40
   3  -1   2    1.50    0.50
   3  -1   2    1.20    0.30
   3  -1   2    1.20    0.70
   3  -1   2    1.00    1.00
   3  -1   2    2.70    0.50
  -4   1  -2  197.18   12.40
  -4   1  -2  185.98   12.40
  -4   1  -2  197.08   12.80
  -4   1  -2  180.38   12.40
  -4   1  -2  203.68   12.40
  -4   1  -2  199.18   12.40
  -4   1  -2  215.78   12.30
   4  -1   2  202.18   12.30
   4  -1   2  208.98   12.30
   4  -1   2  196.58   12.30
   4  -1   2  219.78   12.50
   4  -1   2  197.58   12.70
   4  -1   2  196.68   13.00
  -5   1  -2   30.20    2.10
  -5   1  -2   29.10    2.10
  -5   1  -2   28.80    2.10
  -5   1  -2   28.20    2.30
  -5   1  -2   27.30    2.40
  -5   1  -2   28.20    2.30
   5  -1   2   29.70    2.50
   5  -1   2   27.90    2.00
   5  -1   2   28.10    2.10
   5  -1   2   30.20    2.00
  -6   1  -2   75.89    6.00
  -6   1  -2   81.39    5.30
  -6   1  -2   79.89    5.30
  -6   1  -2   85.49    5.40
  -6   1  -2   78.69    5.40
  -6   1  -2   80.59    5.30
   6  -1   2   86.59    5.30
   6  -1   2   81.39    5.20
   6  -1   2   78.89    5.80
   6  -1   2   83.89    5.20
   7  -1   2   59.29    3.80
   7  -1   2   56.89    4.00
  -8   1  -2   39.10    2.50
  -8   1  -2   36.10    2.40
   8  -1   2   37.60    2.40
   8  -1   2   34.30    3.00
   7   0  -2   32.80    2.20
   7   0  -2   30.50    2.40
  -7   0   2   35.50    2.30
  -7   0   2   33.00    2.50
  -7   0   2   31.90    2.60
  -7   0   2   31.30    2.30
   6   0  -2  301.97   18.20
   6   0  -2  280.97   18.20
   6   0  -2  263.37   18.60
   6   0  -2  297.87   18.20
  -6   0   2  312.47   18.20
  -6   0   2  302.57   18.20
  -6   0   2  291.27   18.20
  -6   0   2  296.27   18.20
  -6   0   2  314.07   18.30
   5   0  -2  105.49    6.60
   5   0  -2  106.59    6.90
   5   0  -2  120.09    6.70
   5   0  -2   99.69    6.60
  -5   0   2  101.69    7.40
  -5   0   2  103.79    6.70
  -5   0   2  102.09    6.70
  -5   0   2  102.99    6.80
  -5   0   2  100.79    6.60
   4   0  -2   21.80    1.60
   4   0  -2   22.40    1.60
   4   0  -2   23.00    1.80
   4   0  -2   22.20    1.60
   4   0  -2   16.20    2.70
  -4   0   2   21.90    1.80
  -4   0   2   19.60    1.80
  -4   0   2   22.00    2.20
  -4   0   2   20.10    2.10
  -4   0   2   21.10    3.60
  -4   0   2   20.60    1.80
  -4   0   2   22.20    1.60
  -4   0   2   22.40    1.80
   3   0  -2   32.90    2.40
   3   0  -2   33.20    2.40
   3   0  -2   33.00    2.30
   3   0  -2   33.80    2.60
   3   0  -2   32.80    3.00
   3   0  -2   33.50    2.20
  -3   0   2   36.20    2.20
  -3   0   2   34.20    2.30
  -3   0   2   32.90    2.70
   2   0  -2  599.94   35.20
   2   0  -2  615.14   35.30
   2   0  -2  571.24   35.10
   2   0  -2  578.74   35.50
   2   0  -2  566.54   35.20
   2   0  -2  581.74   35.30
  -2   0   2  542.05   35.10
  -2   0   2  586.44   35.30
  -2   0   2  533.75   35.10
  -2   0   2  597.34   35.30
  -2   0   2  591.54   35.20
  -2   0   2  576.24   35.30
   1   0  -2 3176.28  223.78
   1   0  -2 3841.92  224.28
   1   0  -2 3753.02  224.28
   1   0  -2 3889.51  224.18
   1   0  -2 3730.13  224.48
  -1   0   2 4016.80  224.38
  -1   0   2 3916.31  224.28
  -1   0   2 3715.73  224.38
  -1   0   2 3359.36  223.78
  -1   0   2 3482.25  223.78
   0   0  -2   10.30    0.90
   0   0  -2   10.80    0.80
   0   0  -2    9.20    0.70
   0   0  -2    8.70    0.80
   0   0  -2    9.90    0.80
   0   0   2    9.70    0.80
   0   0   2   10.10    0.80
   0   0   2   10.30    0.80
   0   0   2   10.40    0.90
  -1   0  -2 1833.82  107.29
  -1   0  -2 1814.82  107.19
  -1   0  -2 1700.53  107.19
  -1   0  -2 1688.13  107.19
  -1   0  -2 1682.53  107.39
   1   0   2 1791.12  107.49
   1   0   2 1569.84  106.99
   1   0   2 1905.61  107.29
   1   0   2 1801.72  107.19
   1   0   2 1841.92  107.29
  -2   0  -2  824.72   49.99
  -2   0  -2  837.72   49.99
  -2   0  -2  848.62   49.99
  -2   0  -2  837.42   50.09
   2   0   2  861.11   50.09
   2   0   2  800.32   50.19
   2   0   2  853.41   50.09
   2   0   2  772.62   49.99
   2   0   2  770.12   50.09
  -3   0  -2  227.38   13.90
  -3   0  -2  228.18   13.90
  -3   0  -2  220.38   14.00
   3   0   2  226.48   14.20
   3   0   2  251.37   13.90
   3   0   2  234.58   14.00
   3   0   2  225.38   14.10
   3   0   2  235.98   14.00
   3   0   2  195.38   13.90
  -4   0  -2  110.69    7.40
  -4   0  -2  110.99    7.40
  -4   0  -2  106.79    7.30
  -4   0  -2  115.09    7.60
  -4   0  -2  114.69    7.30
  -4   0  -2  108.39    7.40
  -4   0  -2  131.29    7.30
  -4   0  -2  126.89    7.40
   4   0   2  123.69    7.20
   4   0   2  112.19    7.30
   4   0   2  118.09    7.80
   4   0   2  110.99    7.30
   4   0   2  123.79    7.80
   4   0   2  123.09    7.40
   4   0   2  126.69    7.70
  -5   0  -2    9.00    1.30
  -5   0  -2   12.20    1.20
  -5   0  -2   14.50    1.20
  -5   0  -2   11.00    1.40
  -5   0  -2   12.20    1.10
  -5   0  -2   12.60    1.60
  -5   0  -2   11.80    1.60
  -5   0  -2   11.40    1.40
   5   0   2   12.50    1.10
   5   0   2   14.60    1.70
   5   0   2   11.40    1.20
   5   0   2   12.30    1.30
  -6   0  -2  381.56   24.00
  -6   0  -2  396.76   23.60
  -6   0  -2  394.76   23.70
  -6   0  -2  376.16   23.60
  -6   0  -2  379.46   23.60
  -6   0  -2  388.66   23.60
  -6   0  -2  383.66   23.60
   6   0   2  393.96   23.50
   6   0   2  397.76   23.50
   6   0   2  353.16   23.50
  -7   0  -2   62.29    4.10
  -7   0  -2   60.49    4.00
  -7   0  -2   57.19    4.00
   7   0   2   65.49    4.10
   7   0   2   56.29    4.00
  -8   0  -2  108.19    7.20
  -8   0  -2  122.79    7.40
  -8   0  -2  126.19    7.30
   8   0   2  121.09    7.20
   8   0   2  105.59    7.40
   7  -1  -2  102.89    5.50
  -7   1   2   82.49    5.70
  -7   1   2   87.49    5.60
  -7   1   2   94.79    5.60
  -7   1   2   73.69    5.60
   6  -1  -2  268.27   15.60
   6  -1  -2  232.78   15.70
   6  -1  -2  222.78   15.50
  -6   1   2  265.47   15.70
  -6   1   2  269.47   15.70
  -6   1   2  275.87   15.70
  -6   1   2  237.38   15.70
   5  -1  -2    8.50    1.10
   5  -1  -2   11.70    2.70
   5  -1  -2    6.70    0.90
   5  -1  -2    6.30    1.20
   5  -1  -2    7.00    1.20
   5  -1  -2    7.90    1.30
  -5   1   2    8.50    1.50
  -5   1   2    8.80    1.20
  -5   1   2    8.40    1.40
  -5   1   2    8.10    1.10
   4  -1  -2  677.23   38.00
   4  -1  -2  624.94   37.80
   4  -1  -2  628.94   37.80
   4  -1  -2  650.33   37.80
   4  -1  -2  615.64   37.80
   4  -1  -2  539.15   37.80
  -4   1   2  628.84   37.90
  -4   1   2  646.94   37.80
  -4   1   2  600.24   37.90
  -4   1   2  596.04   37.90
  -4   1   2  640.34   37.90
  -4   1   2  624.34   37.90
  -4   1   2  595.54   38.10
   3  -1  -2  177.88   12.20
   3  -1  -2  211.28   12.30
   3  -1  -2  200.38   12.20
   3  -1  -2  203.58   12.50
   3  -1  -2  196.58   12.20
   3  -1  -2  192.28   13.00
   3  -1  -2  203.48   12.20
  -3   1   2  205.88   12.50
  -3   1   2  200.98   12.50
  -3   1   2  216.88   12.20
  -3   1   2  215.58   12.30
  -3   1   2  187.38   12.30
  -3   1   2  185.78   12.20
  -3   1   2  192.08   12.20
   2  -1  -2  216.88   13.80
   2  -1  -2  203.58   13.60
   2  -1  -2  215.98   13.60
   2  -1  -2  191.18   13.60
   2  -1  -2  234.58   13.80
   2  -1  -2  237.88   13.60
   2  -1  -2  224.08   13.90
  -2   1   2  217.78   13.80
  -2   1   2  238.78   13.60
  -2   1   2  240.08   13.60
  -2   1   2  223.88   13.70
   1  -1  -2 1419.76   87.09
   1  -1  -2 1409.16   87.29
   1  -1  -2 1452.85   87.09
   1  -1  -2 1430.56   87.19
   1  -1  -2 1455.95   87.19
  -1   1   2 1510.05   87.49
  -1   1   2 1482.95   87.19
  -1   1   2 1452.85   87.29
  -1   1   2 1260.77   86.99
  -1   1   2 1467.45   87.09
   0  -1  -2  624.14   37.70
   0  -1  -2  592.54   37.70
   0  -1  -2  650.83   37.80
   0  -1  -2  605.24   37.70
   0  -1  -2  605.24   37.70
   0   1   2  630.74   37.70
   0   1   2  645.44   37.80
   0   1   2  627.54   37.70
   0   1   2  603.04   37.70
  -1  -1  -2   19.60    1.30
  -1  -1  -2   19.60    1.40
  -1  -1  -2   19.30    1.50
  -1  -1  -2   21.20    1.30
   1   1   2   21.40    1.30
   1   1   2   17.60    1.30
   1   1   2   21.40    1.30
   1   1   2   20.90    1.50
  -2  -1  -2  302.57   17.90
  -2  -1  -2  279.17   17.80
  -2  -1  -2  275.87   17.70
  -2  -1  -2  286.77   17.70
   2   1   2  302.27   17.70
   2   1   2  268.57   17.70
   2   1   2  297.27   17.90
   2   1   2  311.17   17.70
  -3  -1  -2  432.96   28.20
  -3  -1  -2  456.05   28.30
  -3  -1  -2  441.16   28.20
  -3  -1  -2  504.05   28.40
   3   1   2  494.75   28.60
   3   1   2  496.75   28.30
   3   1   2  421.96   28.10
   3   1   2  458.75   28.20
   3   1   2  461.55   28.20
  -4  -1  -2 1390.76   80.39
  -4  -1  -2 1317.27   80.49
  -4  -1  -2 1244.78   80.49
  -4  -1  -2 1214.28   80.39
  -4  -1  -2 1249.68   80.39
  -4  -1  -2 1496.35   80.69
  -4  -1  -2 1239.48   80.49
   4   1   2 1247.48   80.29
   4   1   2 1305.17   80.49
   4   1   2 1439.46   80.49
   4   1   2 1330.37   80.49
   4   1   2 1371.36   80.39
   4   1   2 1352.86   80.89
  -5  -1  -2  391.16   22.40
  -5  -1  -2  345.97   22.10
  -5  -1  -2  360.76   22.10
  -5  -1  -2  339.57   22.00
  -5  -1  -2  381.36   22.10
  -5  -1  -2  385.96   22.50
  -5  -1  -2  358.86   22.10
  -5  -1  -2  343.97   22.20
   5   1   2  364.56   22.00
   5   1   2  349.47   22.00
   5   1   2  379.86   22.20
   5   1   2  328.37   22.00
  -6  -1  -2   32.30    2.50
  -6  -1  -2   32.10    2.60
  -6  -1  -2   31.50    2.50
  -6  -1  -2   30.60    2.30
  -6  -1  -2   30.40    3.20
  -6  -1  -2   33.70    2.40
   6   1   2   31.00    2.40
   6   1   2   31.20    2.30
   6   1   2   39.80    3.20
  -7  -1  -2    6.00    1.00
  -7  -1  -2    4.80    0.90
  -7  -1  -2    2.60    1.10
  -7  -1  -2    3.00    0.80
  -7  -1  -2    3.90    0.90
   7   1   2    4.30    1.00
   7   1   2    3.60    0.80
  -8  -1  -2   10.50    1.20
  -8  -1  -2    8.60    1.10
  -8  -1  -2    9.70    1.00
  -8  -1  -2    9.60    1.10
   8   1   2    9.10    1.00
   8   1   2   10.20    1.40
   8   1   2    9.30    1.20
   7  -2  -2   25.20    1.60
   7  -2  -2   23.60    2.40
  -7   2   2   21.80    1.80
  -7   2   2   23.60    1.80
   6  -2  -2  164.18   10.20
   6  -2  -2  157.18   10.40
  -6   2   2  168.68   10.40
  -6   2   2  174.78   10.40
  -6   2   2  158.18   10.30
   5  -2  -2    0.80    2.10
   5  -2  -2    2.10    1.00
   5  -2  -2    2.80    1.60
   5  -2  -2    1.40    0.70
   5  -2  -2    1.50    0.90
  -5   2   2    1.40    1.90
  -5   2   2    1.70    1.10
  -5   2   2    2.10    1.00
  -5   2   2    1.30    1.00
  -5   2   2    1.00    1.10
   4  -2  -2    2.60    0.70
   4  -2  -2    3.90    1.20
   4  -2  -2    3.30    1.90
   4  -2  -2    4.10    0.80
   4  -2  -2    3.70    0.80
   4  -2  -2    3.70    1.00
  -4   2   2    3.70    0.80
  -4   2   2    3.30    1.00
  -4   2   2    4.70    1.10
  -4   2   2    3.30    1.00
  -4   2   2    6.10    1.10
  -4   2   2    3.90    0.70
   3  -2  -2    6.30    1.00
   3  -2  -2    6.10    0.90
   3  -2  -2    6.50    0.70
   3  -2  -2    6.60    1.90
   3  -2  -2   11.00    5.00
   3  -2  -2    6.50    1.00
   3  -2  -2    5.70    0.70
  -3   2   2    5.70    1.20
  -3   2   2    5.40    0.90
  -3   2   2    5.90    0.70
  -3   2   2    6.20    1.00
  -3   2   2    4.30    1.30
  -3   2   2    4.50    1.50
   2  -2  -2 1713.23  107.39
   2  -2  -2 1852.11  107.59
   2  -2  -2 1692.23  107.69
   2  -2  -2 1576.34  107.59
   2  -2  -2 1935.31  107.49
  -2   2   2 1693.23  107.69
  -2   2   2 1587.24  107.39
  -2   2   2 1765.82  107.49
  -2   2   2 1906.51  107.59
  -2   2   2 1866.31  107.69
  -2   2   2 1879.91  107.69
   1  -2  -2   26.50    2.10
   1  -2  -2   25.10    1.90
   1  -2  -2   24.90    2.10
   1  -2  -2   22.20    2.00
   1  -2  -2   29.10    1.80
  -1   2   2   27.10    1.80
  -1   2   2   22.60    1.70
  -1   2   2   27.60    1.80
  -1   2   2   28.00    1.90
  -1   2   2   22.40    1.80
  -1   2   2   27.20    2.00
   0  -2  -2  225.08   13.20
   0  -2  -2  201.98   13.10
   0   2   2  199.08   13.00
   0   2   2  215.38   13.10
   0   2   2  220.68   13.20
   0   2   2  224.18   13.10
  -1  -2  -2  275.17   17.20
  -1  -2  -2  247.38   17.00
  -1  -2  -2  282.27   17.00
   1   2   2  280.67   17.00
   1   2   2  282.57   17.00
   1   2   2  292.17   17.10
   1   2   2  293.87   17.00
  -2  -2  -2  730.53   45.60
  -2  -2  -2  717.33   45.60
   2   2   2  795.62   45.70
  -3  -2  -2   13.10    1.20
   3   2   2   13.50    1.10
   3   2   2   13.20    1.00
   3   2   2   13.40    1.00
  -4  -2  -2    2.20    0.70
  -4  -2  -2    2.20    0.60
  -4  -2  -2    3.40    0.80
  -4  -2  -2    2.60    1.00
  -4  -2  -2    1.90    0.50
  -4  -2  -2    1.70    0.60
  -4  -2  -2    1.60    0.50
   4   2   2    1.10    0.90
   4   2   2    2.50    0.70
   4   2   2    3.30    1.60
   4   2   2    1.70    0.40
  -5  -2  -2  117.09    8.00
  -5  -2  -2  123.29    8.00
  -5  -2  -2  127.49    8.00
  -5  -2  -2  133.29    8.30
  -5  -2  -2  141.39    8.00
  -5  -2  -2  120.39    7.90
  -5  -2  -2  129.19    8.50
  -5  -2  -2  123.99    8.20
  -5  -2  -2  132.89    8.10
  -5  -2  -2  128.79    8.00
   5   2   2  131.99    8.10
   5   2   2  137.09    7.90
   5   2   2  111.99    8.40
   5   2   2  121.89    7.90
  -6  -2  -2   86.19    6.40
  -6  -2  -2  100.99    6.70
  -6  -2  -2   95.79    6.80
  -6  -2  -2   93.89    6.30
  -6  -2  -2  109.99    6.50
  -6  -2  -2   98.29    6.60
  -6  -2  -2  106.99    6.60
  -6  -2  -2  105.29    6.40
   6   2   2  106.69    6.30
   6   2   2  102.19    6.40
  -7  -2  -2   69.29    4.60
  -7  -2  -2   67.09    4.50
  -7  -2  -2   66.69    4.50
  -7  -2  -2   68.69    4.50
   7   2   2   66.59    4.40
   7   2   2   65.49    4.50
   7   2   2   78.79    6.40
  -8  -2  -2    4.20    0.70
  -8  -2  -2    5.00    0.80
   8   2   2    4.20    0.80
   8   2   2    4.70    0.90
   8   2   2    4.50    0.70
   6  -3  -2   25.00    2.10
   6  -3  -2   24.00    1.80
  -6   3   2   21.60    1.80
  -6   3   2   21.30    2.00
  -6   3   2   26.50    2.20
   5  -3  -2   82.69    5.20
   5  -3  -2   79.19    5.30
   5  -3  -2   79.39    5.00
  -5   3   2   77.09    5.20
  -5   3   2   72.19    5.20
  -5   3   2   85.79    5.30
   4  -3  -2  164.98   10.40
   4  -3  -2  176.38   10.20
   4  -3  -2  169.18   10.20
   4  -3  -2  157.78   11.10
  -4   3   2  161.28   10.40
  -4   3   2  160.48   10.30
  -4   3   2  168.48   10.30
  -4   3   2  177.08   10.50
  -4   3   2  170.18   10.30
  -4   3   2  141.89   10.30
   3  -3  -2   12.20    1.40
   3  -3  -2   11.60    1.20
   3  -3  -2    9.10    1.70
   3  -3  -2    7.50    1.40
  -3   3   2   11.10    1.20
  -3   3   2   13.00    1.30
  -3   3   2   13.00    1.80
  -3   3   2   11.50    1.10
  -3   3   2   11.40    1.10
  -3   3   2   11.00    1.30
   2  -3  -2    8.00    1.20
   2  -3  -2   10.10    1.40
   2  -3  -2    6.70    0.90
   2  -3  -2    8.00    1.60
   2  -3  -2    5.30    1.60
   2  -3  -2    7.40    0.90
   2  -3  -2    9.70    1.40
  -2   3   2    7.60    1.30
  -2   3   2    7.40    0.90
  -2   3   2    7.20    3.40
  -2   3   2    7.80    1.00
  -2   3   2    8.40    0.70
  -2   3   2    7.60    0.90
   1  -3  -2   50.59    3.90
   1  -3  -2   53.49    3.60
   1  -3  -2   57.19    3.90
   1  -3  -2   51.89    3.60
   1  -3  -2   55.19    3.50
  -1   3   2   56.89    3.50
  -1   3   2   58.29    4.20
  -1   3   2   55.29    3.60
  -1   3   2   48.70    3.50
  -1   3   2   56.79    3.70
  -1   3   2   59.59    3.50
   0  -3  -2   81.99    5.10
   0  -3  -2   73.49    5.10
   0   3   2   82.09    5.20
   0   3   2   85.69    5.10
   0   3   2   86.29    5.10
   0   3   2   74.29    5.00
  -1  -3  -2  128.79    8.80
   1   3   2  141.79    8.90
   1   3   2  147.79    8.80
   1   3   2  151.68    8.90
   1   3   2  148.39    8.80
  -2  -3  -2  715.03   45.10
   2   3   2  761.22   45.00
  -3  -3  -2   56.49    3.80
  -3  -3  -2   49.60    3.60
   3   3   2   53.69    3.90
  -4  -3  -2  177.48   10.80
  -4  -3  -2  160.38   10.60
  -4  -3  -2  160.58   10.70
  -4  -3  -2  163.08   10.60
  -4  -3  -2  189.88   11.10
  -4  -3  -2  160.58   10.60
  -4  -3  -2  173.38   10.60
  -4  -3  -2  165.18   10.70
   4   3   2  180.98   10.60
   4   3   2  176.48   11.50
  -5  -3  -2  114.09    7.70
  -5  -3  -2  116.89    7.60
  -5  -3  -2  120.29    7.70
  -5  -3  -2  114.29    7.60
  -5  -3  -2  122.59    8.20
  -5  -3  -2  123.59    7.90
  -5  -3  -2  117.39    7.80
  -5  -3  -2  121.39    7.60
   5   3   2  127.99    7.50
   5   3   2  128.19    7.80
  -6  -3  -2  202.98   14.90
  -6  -3  -2  229.08   14.60
  -6  -3  -2  242.68   14.70
  -6  -3  -2  227.28   14.60
  -6  -3  -2  243.18   14.50
  -6  -3  -2  225.28   15.30
  -6  -3  -2  249.18   14.60
   6   3   2  229.08   14.80
   6   3   2  247.28   14.50
   6   3   2  252.27   14.40
  -7  -3  -2  167.28   10.40
  -7  -3  -2  171.98   10.40
  -7  -3  -2  155.08   10.40
   7   3   2  165.38   10.30
   7   3   2  168.08   10.20
  -8  -3  -2   10.20    1.30
  -8  -3  -2    9.50    1.00
  -8  -3  -2   11.90    1.30
   8   3   2    7.40    1.30
   8   3   2   10.50    1.30
   8   3   2    9.80    1.40
   6  -4  -2    2.10    0.70
   6  -4  -2    2.30    0.50
   6  -4  -2    2.90    0.70
  -6   4   2    5.70    1.10
  -6   4   2    3.10    0.50
   5  -4  -2   68.19    4.20
   5  -4  -2   60.29    4.00
   5  -4  -2   59.09    4.00
  -5   4   2   64.59    4.20
  -5   4   2   61.09    4.20
  -5   4   2   62.99    4.20
   4  -4  -2   83.49    4.90
   4  -4  -2   75.29    4.70
   4  -4  -2   79.39    4.90
  -4   4   2   68.19    5.30
  -4   4   2   74.59    4.90
  -4   4   2   72.29    4.90
  -4   4   2   73.19    4.90
  -4   4   2   75.29    4.90
  -4   4   2   74.19    5.20
  -4   4   2   66.59    5.00
   3  -4  -2   39.90    2.60
   3  -4  -2   41.40    2.70
   3  -4  -2   40.00    2.80
   3  -4  -2   31.60    3.60
  -3   4   2   36.20    3.00
  -3   4   2   37.10    2.60
  -3   4   2   38.80    2.60
  -3   4   2   32.00    2.90
  -3   4   2   36.90    2.60
   2  -4  -2    9.40    1.40
   2  -4  -2   11.10    1.00
   2  -4  -2   13.60    1.30
   2  -4  -2   11.30    1.50
  -2   4   2    8.60    1.40
  -2   4   2    9.10    1.10
  -2   4   2   10.00    0.90
  -2   4   2   10.00    1.30
  -2   4   2   10.20    1.10
   1  -4  -2   63.79    4.40
   1  -4  -2   59.79    4.60
   1  -4  -2   77.59    4.40
   1  -4  -2   66.39    4.50
   1  -4  -2   73.39    4.80
   1  -4  -2   73.39    4.50
   1  -4  -2   61.89    5.10
  -1   4   2   64.09    4.90
  -1   4   2   69.59    4.40
  -1   4   2   76.19    4.50
  -1   4   2   73.59    4.40
   0  -4  -2  220.18   13.40
   0  -4  -2  202.78   13.10
   0  -4  -2  208.58   13.00
   0  -4  -2  203.28   12.90
   0  -4  -2  202.38   12.90
   0   4   2  221.38   13.00
   0   4   2  208.68   13.00
   0   4   2  194.48   12.90
   0   4   2  217.28   12.80
   0   4   2  222.08   12.90
  -1  -4  -2  712.53   43.90
  -1  -4  -2  708.53   43.90
  -1  -4  -2  654.13   43.90
  -1  -4  -2  708.03   44.10
  -1  -4  -2  694.03   43.90
   1   4   2  799.92   44.00
   1   4   2  772.12   43.90
  -2  -4  -2   44.60    3.30
  -2  -4  -2   44.10    3.50
  -2  -4  -2   44.40    3.00
   2   4   2   47.70    3.00
   2   4   2   52.49    3.10
   2   4   2   46.50    3.20
  -3  -4  -2  114.49    7.50
  -3  -4  -2  120.19    7.50
  -3  -4  -2  120.69    7.60
  -3  -4  -2  130.99    7.90
  -3  -4  -2  118.99    7.60
  -3  -4  -2  108.79    7.70
  -3  -4  -2  114.39    7.60
   3   4   2  123.89    8.00
   3   4   2  126.79    7.50
  -4  -4  -2  139.19    8.60
  -4  -4  -2  152.08    9.10
  -4  -4  -2  130.49    8.50
  -4  -4  -2  139.99    8.50
  -4  -4  -2  127.69    8.50
  -4  -4  -2  123.69    8.60
   4   4   2  138.19    8.70
  -5  -4  -2   17.60    1.80
  -5  -4  -2   15.70    1.90
  -5  -4  -2   19.30    2.20
  -5  -4  -2   18.20    1.80
  -5  -4  -2   17.00    2.20
   5   4   2   15.80    2.30
   5   4   2   17.20    1.50
  -6  -4  -2   64.29    4.20
  -6  -4  -2   57.89    4.10
  -6  -4  -2   57.59    4.30
  -6  -4  -2   62.69    4.10
   6   4   2   60.39    3.90
   6   4   2   54.89    5.10
  -7  -4  -2  291.37   20.30
  -7  -4  -2  349.47   20.30
  -7  -4  -2  360.56   20.30
  -7  -4  -2  323.67   20.20
   7   4   2  321.97   20.20
  -8  -4  -2    6.50    1.00
   8   4   2    6.20    1.20
   5  -5  -2   10.40    1.20
   5  -5  -2    9.40    1.10
   5  -5  -2   11.00    1.00
  -5   5   2    9.90    1.20
   4  -5  -2    2.20    0.80
   4  -5  -2    2.10    0.80
   4  -5  -2    2.10    0.70
  -4   5   2    1.30    1.00
  -4   5   2    0.80    1.10
  -4   5   2    1.50    1.10
  -4   5   2    1.80    0.80
   3  -5  -2    1.00    0.70
   3  -5  -2    0.00    0.60
   3  -5  -2    1.40    0.70
  -3   5   2    0.70    0.80
  -3   5   2    1.10    1.20
  -3   5   2   -0.40    0.80
  -3   5   2    0.40    0.70
  -3   5   2    2.10    1.70
   2  -5  -2   31.20    2.10
   2  -5  -2   29.30    2.20
   2  -5  -2   25.80    2.50
   2  -5  -2   28.60    2.70
   2  -5  -2   27.80    2.20
  -2   5   2   27.70    2.10
  -2   5   2   29.80    2.10
  -2   5   2   24.30    2.90
  -2   5   2   30.60    2.70
  -2   5   2   30.40    2.20
   1  -5  -2   70.59    4.50
   1  -5  -2   73.89    4.90
   1  -5  -2   67.79    4.50
   1  -5  -2   68.39    4.50
   1  -5  -2   70.59    4.50
  -1   5   2   69.89    4.50
  -1   5   2   69.59    4.70
  -1   5   2   69.79    4.50
   0  -5  -2  238.08   14.50
   0  -5  -2  234.88   14.80
   0  -5  -2  229.58   14.50
   0  -5  -2  208.08   14.60
   0   5   2  227.08   14.50
   0   5   2  247.88   14.60
   0   5   2  257.87   14.40
   0   5   2  243.48   14.50
  -1  -5  -2  503.35   30.40
  -1  -5  -2  518.75   30.40
  -1  -5  -2  479.95   30.40
  -1  -5  -2  482.55   30.60
  -1  -5  -2  479.35   30.50
  -1  -5  -2  499.05   30.40
   1   5   2  511.85   30.30
   1   5   2  513.75   30.50
  -2  -5  -2  292.77   18.20
  -2  -5  -2  306.57   18.20
  -2  -5  -2  295.57   18.30
  -2  -5  -2  285.57   18.40
   2   5   2  314.77   18.30
   2   5   2  279.27   18.10
   2   5   2  307.67   18.20
  -3  -5  -2   69.49    4.70
  -3  -5  -2   68.79    4.80
  -3  -5  -2   69.49    4.90
   3   5   2   77.99    4.90
  -4  -5  -2    4.50    1.00
  -4  -5  -2    6.90    1.00
  -4  -5  -2    4.10    0.90
  -4  -5  -2    3.90    1.10
  -4  -5  -2    2.90    1.30
  -4  -5  -2    4.80    1.10
  -5  -5  -2  168.08   10.90
  -5  -5  -2  181.48   10.90
  -5  -5  -2  168.48   11.00
  -5  -5  -2  178.08   10.90
  -6  -5  -2   91.89    6.50
  -6  -5  -2   99.89    6.40
  -6  -5  -2  104.39    6.40
  -6  -5  -2  102.49    6.40
   6   5   2   93.09    6.20
  -7  -5  -2    3.90    1.20
  -7  -5  -2    5.90    1.10
  -7  -5  -2    5.10    1.00
  -7  -5  -2    5.40    0.80
   7   5   2    3.80    1.20
  -8  -5  -2    0.40    0.50
  -8  -5  -2    1.30    0.50
   4  -6  -2   45.20    3.00
   4  -6  -2   47.90    3.00
  -4   6   2   47.40    3.10
   3  -6  -2  178.08   10.80
   3  -6  -2  192.48   10.80
  -3   6   2  150.48   10.90
  -3   6   2  174.08   10.70
   2  -6  -2  221.78   13.10
   2  -6  -2  201.48   13.30
   2  -6  -2  208.88   13.10
   2  -6  -2  215.48   13.10
  -2   6   2  225.28   13.10
  -2   6   2  188.48   13.20
  -2   6   2  225.88   13.10
   1  -6  -2  304.17   18.50
   1  -6  -2  303.17   18.50
   1  -6  -2  321.47   18.80
  -1   6   2  324.87   18.50
  -1   6   2  276.77   18.80
  -1   6   2  282.87   18.60
   0  -6  -2  131.09    8.20
   0  -6  -2  117.59    7.80
   0  -6  -2  113.19    7.80
   0  -6  -2  128.39    7.90
   0  -6  -2  130.89    7.80
   0  -6  -2  120.09    8.10
   0   6   2  118.49    7.90
   0   6   2  133.19    7.80
   0   6   2  134.89    7.80
  -1  -6  -2   10.50    1.90
  -1  -6  -2   10.50    1.40
  -1  -6  -2   11.20    2.00
  -1  -6  -2    9.30    1.20
   1   6   2    9.10    1.20
   1   6   2   11.60    1.00
   1   6   2    8.90    1.30
   1   6   2    7.90    1.70
  -2  -6  -2   97.39    6.60
  -2  -6  -2  104.79    6.50
  -2  -6  -2  106.79    6.80
  -2  -6  -2  105.09    6.70
  -3  -6  -2   40.70    3.00
  -3  -6  -2   33.90    2.90
  -3  -6  -2   40.60    3.10
  -3  -6  -2   38.10    2.60
  -4  -6  -2  682.73   38.30
  -4  -6  -2  587.94   38.10
  -4  -6  -2  652.93   38.10
  -4  -6  -2  571.54   38.00
  -5  -6  -2   41.90    3.10
  -5  -6  -2   38.60    3.10
  -5  -6  -2   41.50    3.20
  -6  -6  -2  154.98    9.50
  -6  -6  -2  153.78    9.50
  -6  -6  -2  145.79    9.50
  -7  -6  -2    1.10    0.60
  -7  -6  -2    0.60    1.10
  -7  -6  -2    0.40    0.90
   3  -7  -2   64.99    3.70
  -3   7   2   51.59    3.70
  -3   7   2   57.49    3.70
   2  -7  -2   97.69    6.40
   2  -7  -2  111.29    6.40
   2  -7  -2  107.19    6.40
  -2   7   2   97.59    6.40
  -2   7   2   99.69    6.40
   1  -7  -2  123.29    8.10
   1  -7  -2  142.09    8.50
   1  -7  -2  136.89    8.20
   1  -7  -2  120.49    8.10
  -1   7   2  135.59    8.10
  -1   7   2  129.69    8.20
   0  -7  -2   42.50    2.90
   0  -7  -2   43.00    3.20
   0  -7  -2   41.40    2.80
   0   7   2   41.30    2.80
   0   7   2   40.30    2.80
  -1  -7  -2  114.09    7.10
  -1  -7  -2  103.89    6.70
  -1  -7  -2  101.29    6.90
  -1  -7  -2  110.59    6.70
   1   7   2  108.29    6.60
   1   7   2  103.49    6.70
  -2  -7  -2    7.60    1.00
  -2  -7  -2    6.60    1.40
  -2  -7  -2    8.20    1.40
  -2  -7  -2    6.40    0.90
   2   7   2    6.80    1.00
   2   7   2    9.80    3.70
  -3  -7  -2   26.20    2.00
  -3  -7  -2   29.20    2.50
  -3  -7  -2   23.90    2.10
  -4  -7  -2  284.87   17.50
  -4  -7  -2  285.27   17.60
  -5  -7  -2   12.90    1.30
  -5  -7  -2   12.40    1.40
  -6  -7  -2    2.60    0.90
  -6  -7  -2    4.10    0.70
   1  -8  -2  225.68   13.40
   1  -8  -2  228.68   13.40
  -1   8   2  203.18   13.40
   0  -8  -2    6.10    1.00
   0  -8  -2    5.40    0.80
   0  -8  -2    6.90    1.10
   0   8   2    6.70    1.00
   0   8   2    5.00    0.80
  -1  -8  -2   14.60    1.50
  -1  -8  -2   14.40    1.20
  -1  -8  -2   17.20    1.80
   1   8   2   19.70    1.60
   1   8   2   14.80    1.60
  -2  -8  -2    3.40    0.60
  -2  -8  -2    4.30    0.90
  -2  -8  -2    1.70    1.20
  -2  -8  -2    2.40    0.60
   2   8   2    4.10    1.30
   2   8   2    3.30    0.90
  -3  -8  -2   65.99    4.10
  -3  -8  -2   54.39    4.00
  -3  -8  -2   55.89    3.70
  -4  -8  -2    2.20    0.70
  -4  -8  -2    2.10    0.80
  -4  -8  -2    3.40    0.80
  -5  -8  -2    6.20    1.00
  -5  -8  -2    3.90    1.20
   3   8  -3   74.19    4.70
  -3  -8   3   76.69    5.00
   2   8  -3  165.98   10.00
  -2  -8   3  157.28   10.10
  -2  -8   3  153.68   10.00
  -2  -8   3  172.68   10.00
   1   8  -3    2.00    0.70
   1   8  -3   -0.10    0.50
  -1  -8   3    0.80    0.40
  -1  -8   3    0.30    0.60
  -1  -8   3    0.70    1.40
   0   8  -3   20.00    1.40
   0   8  -3   16.90    1.40
   0  -8   3   19.00    1.50
   0  -8   3   22.90    1.40
  -1   8  -3    2.90    0.60
  -1   8  -3    1.30    0.60
   1  -8   3    2.00    0.40
   1  -8   3    2.20    0.30
   5   7  -3   50.19    3.20
  -5  -7   3   50.69    3.30
   4   7  -3    1.40    0.60
   4   7  -3    0.50    0.50
  -4  -7   3   -0.10    0.80
  -4  -7   3    0.80    0.90
   3   7  -3   65.79    4.60
   3   7  -3   77.09    4.60
   3   7  -3   71.69    4.60
  -3  -7   3   76.99    4.80
  -3  -7   3   73.49    4.80
   2   7  -3  116.39    7.10
   2   7  -3  119.79    7.10
   2   7  -3  111.29    7.20
  -2  -7   3  110.79    7.30
  -2  -7   3  112.19    7.20
  -2  -7   3  113.49    7.10
   1   7  -3  234.98   14.90
   1   7  -3  257.07   14.90
  -1  -7   3  230.68   15.00
  -1  -7   3  260.97   15.10
  -1  -7   3  240.58   14.90
  -1  -7   3  238.68   14.90
  -1  -7   3  236.08   14.80
   0   7  -3  207.28   13.70
   0   7  -3  234.18   13.70
   0  -7   3  227.28   13.70
   0  -7   3  242.98   13.70
   0  -7   3  224.38   13.70
   0  -7   3  196.98   13.90
   0  -7   3  229.78   13.90
  -1   7  -3    0.10    0.50
  -1   7  -3    0.20    0.70
   1  -7   3    0.50    0.40
   1  -7   3   -0.20    0.60
   1  -7   3    0.10    1.40
   1  -7   3    0.90    0.40
  -2   7  -3   61.19    4.00
  -2   7  -3   66.19    4.00
  -2   7  -3   51.69    4.10
   2  -7   3   61.89    3.90
   2  -7   3   65.89    4.00
   2  -7   3   65.29    4.00
  -3   7  -3    4.50    0.70
   3  -7   3    6.40    0.60
   3  -7   3    5.30    0.70
   3  -7   3    5.60    0.70
   6   6  -3   91.99    5.80
  -6  -6   3   98.19    5.90
  -6  -6   3   88.99    5.80
   5   6  -3   65.69    4.50
   5   6  -3   71.89    4.50
  -5  -6   3   75.99    4.70
  -5  -6   3   69.59    4.60
   4   6  -3   11.60    1.10
   4   6  -3    9.80    1.20
  -4  -6   3    9.90    1.50
   3   6  -3   12.50    1.10
   3   6  -3   11.80    1.30
   3   6  -3    9.20    6.40
  -3  -6   3    9.90    1.80
  -3  -6   3    9.70    1.20
  -3  -6   3   11.70    1.50
  -3  -6   3   11.70    1.40
   2   6  -3  117.69    7.30
   2   6  -3  114.39    8.40
   2   6  -3  132.49    7.40
  -2  -6   3  116.29    7.60
  -2  -6   3  122.79    7.60
  -2  -6   3  115.99    7.40
  -2  -6   3  117.69    7.40
  -2  -6   3  110.09    7.50
  -2  -6   3  116.89    7.70
   1   6  -3   18.30    3.30
   1   6  -3   27.20    2.20
   1   6  -3   27.00    1.80
  -1  -6   3   24.40    2.40
  -1  -6   3   27.10    2.20
  -1  -6   3   24.40    2.10
  -1  -6   3   22.70    2.50
  -1  -6   3   26.60    1.90
   0   6  -3  319.67   21.20
   0   6  -3  323.77   20.70
   0   6  -3  345.87   20.70
   0  -6   3  356.86   20.80
   0  -6   3  361.76   20.70
   0  -6   3  351.86   20.90
   0  -6   3  302.27   20.90
   0  -6   3  342.47   20.70
  -1   6  -3    1.50    0.60
  -1   6  -3    0.10    1.00
  -1   6  -3    1.40    2.60
  -1   6  -3    0.70    0.50
   1  -6   3   -0.80    1.50
   1  -6   3    0.20    0.60
   1  -6   3    0.60    0.70
   1  -6   3    0.90    0.80
  -2   6  -3    8.40    1.30
  -2   6  -3    7.60    1.00
  -2   6  -3    7.20    1.10
   2  -6   3    7.50    1.10
   2  -6   3    8.50    1.10
   2  -6   3    8.00    1.20
  -3   6  -3   43.30    3.00
  -3   6  -3   48.70    3.70
  -3   6  -3   47.80    3.00
   3  -6   3   38.80    3.10
   3  -6   3   42.40    3.00
   3  -6   3   45.70    3.00
   3  -6   3   45.80    3.00
  -4   6  -3   75.19    4.90
   4  -6   3   77.29    4.90
   4  -6   3   69.39    4.80
   4  -6   3   86.69    5.10
   6   5  -3   75.29    4.90
   6   5  -3   83.49    5.00
   6   5  -3   82.29    4.80
  -6  -5   3   79.19    4.90
  -6  -5   3   65.99    5.00
   5   5  -3   68.69    4.80
   5   5  -3   71.79    4.60
   5   5  -3   74.89    4.60
  -5  -5   3   73.39    4.70
   4   5  -3  129.69    7.30
   4   5  -3   97.39    9.00
   4   5  -3  126.79    7.40
  -4  -5   3  109.99    7.40
  -4  -5   3  121.49    7.60
  -4  -5   3  125.99    7.70
  -4  -5   3  102.39    9.10
  -4  -5   3  119.39    7.50
   3   5  -3  152.98   10.80
   3   5  -3  169.08   10.00
   3   5  -3  173.48   10.10
  -3  -5   3  165.58   10.30
  -3  -5   3  167.28   11.30
  -3  -5   3  165.88   10.20
  -3  -5   3  165.38   10.20
  -3  -5   3  140.69   10.00
   2   5  -3   47.30    2.80
   2   5  -3   43.30    2.80
   2   5  -3   43.70    3.80
  -2  -5   3   40.70    4.70
  -2  -5   3   40.20    2.90
  -2  -5   3   42.40    3.00
  -2  -5   3   41.60    3.00
  -2  -5   3   38.00    3.00
  -2  -5   3   40.10    3.10
   1   5  -3   75.99    5.40
   1   5  -3   77.39    4.90
  -1  -5   3   78.19    4.90
  -1  -5   3   79.19    5.20
  -1  -5   3   73.49    5.20
  -1  -5   3   77.89    5.00
  -1  -5   3   76.69    4.90
   0   5  -3  334.67   19.50
   0   5  -3  313.87   19.90
   0   5  -3  319.77   19.60
   0  -5   3  306.17   19.80
   0  -5   3  314.37   19.60
   0  -5   3  322.87   19.60
   0  -5   3  327.87   19.70
   0  -5   3  317.07   19.70
  -1   5  -3  229.38   12.90
  -1   5  -3  227.28   12.90
  -1   5  -3  186.28   12.90
  -1   5  -3  197.08   13.10
  -1   5  -3  192.78   12.90
  -1   5  -3  217.88   13.30
   1  -5   3  195.88   13.20
   1  -5   3  232.48   13.10
   1  -5   3  201.88   12.90
   1  -5   3  222.68   13.00
   1  -5   3  204.38   12.90
   1  -5   3  204.98   13.00
  -2   5  -3    1.80    0.90
  -2   5  -3    1.30    0.70
  -2   5  -3    2.70    0.50
   2  -5   3    2.00    0.80
   2  -5   3    3.00    0.50
  -3   5  -3   19.60    2.00
  -3   5  -3   18.90    2.00
  -3   5  -3   22.60    2.60
  -3   5  -3   20.20    1.70
  -3   5  -3   23.30    3.10
  -3   5  -3   24.20    1.80
  -3   5  -3   22.20    1.90
   3  -5   3   24.80    1.90
   3  -5   3   24.70    1.80
   3  -5   3   25.10    1.80
  -4   5  -3   91.69    6.40
   4  -5   3   91.69    6.20
   4  -5   3  105.39    6.40
   4  -5   3  110.79    6.40
  -5   5  -3   23.30    2.10
  -5   5  -3   24.00    1.70
   5  -5   3   22.80    1.90
   5  -5   3   25.00    2.00
   5  -5   3   22.30    1.70
   7   4  -3   21.40    1.50
   7   4  -3   19.80    1.50
  -7  -4   3   16.30    1.90
   6   4  -3   23.60    1.60
  -6  -4   3   20.50    2.00
  -6  -4   3   17.20    1.60
  -6  -4   3   16.80    1.70
  -6  -4   3   23.00    1.80
   5   4  -3  502.25   32.40
   5   4  -3  535.95   32.40
   5   4  -3  440.96   32.80
  -5  -4   3  588.94   32.80
  -5  -4   3  520.85   32.50
  -5  -4   3  563.64   32.50
  -5  -4   3  588.34   32.60
  -5  -4   3  511.75   32.40
  -5  -4   3  527.65   32.50
   4   4  -3    3.70    0.70
   4   4  -3    3.80    0.70
  -4  -4   3    2.70    0.80
  -4  -4   3    3.20    0.80
  -4  -4   3    1.20    2.70
  -4  -4   3    2.70    1.10
  -4  -4   3    4.90    0.90
  -4  -4   3    2.90    1.00
  -4  -4   3    3.10    0.80
   3   4  -3   72.39    4.50
   3   4  -3   74.29    4.50
   3   4  -3   67.29    5.00
  -3  -4   3   63.19    4.60
  -3  -4   3   68.99    4.60
  -3  -4   3   66.99    4.50
  -3  -4   3   73.09    5.40
  -3  -4   3   68.49    4.70
  -3  -4   3   72.29    4.70
  -3  -4   3   71.09    4.70
   2   4  -3   38.90    2.30
   2   4  -3   34.70    3.10
   2   4  -3   34.90    2.30
  -2  -4   3   32.50    2.70
  -2  -4   3   32.00    2.50
  -2  -4   3   32.90    2.50
  -2  -4   3   32.10    2.90
  -2  -4   3   38.50    3.10
  -2  -4   3   35.40    2.70
  -2  -4   3   34.50    2.40
   1   4  -3   56.59    5.30
   1   4  -3   76.79    4.20
   1   4  -3   68.69    4.60
   1   4  -3   70.59    4.30
  -1  -4   3   67.89    4.70
  -1  -4   3   63.99    4.40
  -1  -4   3   65.99    4.40
  -1  -4   3   60.69    4.70
  -1  -4   3   69.79    4.60
  -1  -4   3   70.29    4.40
   0   4  -3 1348.67   77.79
   0   4  -3 1392.46   77.79
   0   4  -3 1360.86   78.09
   0   4  -3 1327.47   77.79
   0  -4   3 1088.29   77.89
   0  -4   3 1188.78   77.99
   0  -4   3 1272.47   78.09
   0  -4   3 1389.76   77.99
   0  -4   3 1098.49   77.89
   0  -4   3 1346.17   77.79
  -1   4  -3   10.60    1.10
  -1   4  -3    8.60    0.90
  -1   4  -3    8.70    0.90
  -1   4  -3    8.10    1.00
  -1   4  -3    9.70    1.20
  -1   4  -3    7.90    1.60
   1  -4   3    9.20    1.70
   1  -4   3   16.50    2.90
   1  -4   3   11.90    1.10
   1  -4   3    8.00    1.10
   1  -4   3    7.90    1.00
  -2   4  -3  184.88   11.90
  -2   4  -3  166.48   11.70
  -2   4  -3  180.98   11.90
  -2   4  -3  207.78   11.70
  -2   4  -3  179.98   11.90
  -2   4  -3  202.58   11.80
  -2   4  -3  204.28   11.70
   2  -4   3  179.78   11.80
   2  -4   3  201.78   11.70
  -3   4  -3   13.10    2.20
  -3   4  -3   12.00    1.80
  -3   4  -3   12.60    1.50
  -3   4  -3   13.40    1.80
  -3   4  -3   12.70    1.10
  -3   4  -3   13.20    1.30
   3  -4   3   12.50    1.50
   3  -4   3   11.60    1.30
   3  -4   3   13.30    1.10
  -4   4  -3   67.19    5.30
  -4   4  -3   74.69    5.00
  -4   4  -3   82.39    5.00
  -4   4  -3   73.39    4.90
  -4   4  -3   73.59    4.90
   4  -4   3   78.89    4.90
   4  -4   3   75.69    4.90
  -5   4  -3   49.60    3.20
  -5   4  -3   38.80    3.10
  -5   4  -3   39.90    3.30
  -5   4  -3   54.89    3.40
   5  -4   3   49.40    3.30
   5  -4   3   41.40    3.20
   5  -4   3   47.90    3.10
   5  -4   3   49.10    3.10
  -6   4  -3  105.69    6.80
  -6   4  -3  109.49    6.80
   6  -4   3  110.29    6.90
   7   3  -3   15.60    1.20
   7   3  -3   10.50    1.50
  -7  -3   3   13.10    1.40
  -7  -3   3   12.80    2.10
  -7  -3   3   14.50    1.60
   6   3  -3   28.50    2.10
   6   3  -3   31.30    2.30
  -6  -3   3   29.20    2.30
  -6  -3   3   28.80    2.20
   5   3  -3  115.09    8.40
   5   3  -3  131.19    7.90
  -5  -3   3  125.99    7.90
  -5  -3   3  131.09    8.00
  -5  -3   3  124.89    8.10
  -5  -3   3  106.79    9.10
  -5  -3   3  126.89    8.10
  -5  -3   3  145.49    8.20
   4   3  -3   52.59    3.30
   4   3  -3   46.20    4.00
  -4  -3   3   52.09    3.50
  -4  -3   3   52.19    3.60
  -4  -3   3   46.10    3.60
  -4  -3   3   54.19    3.50
  -4  -3   3   51.09    4.10
  -4  -3   3   46.70    3.30
   3   3  -3  129.69    8.10
   3   3  -3  127.69    8.40
   3   3  -3  143.49    8.00
  -3  -3   3  125.39    8.10
  -3  -3   3  134.29    8.20
  -3  -3   3  138.09    8.70
  -3  -3   3  125.49    8.10
  -3  -3   3  117.19    8.20
  -3  -3   3  128.49    8.20
   2   3  -3   79.99    5.00
   2   3  -3   72.89    5.30
   2   3  -3   85.59    6.00
   2   3  -3   82.59    4.60
  -2  -3   3   67.89    5.30
  -2  -3   3   70.09    4.80
  -2  -3   3   83.59    4.90
  -2  -3   3   68.59    4.70
  -2  -3   3   73.09    4.80
  -2  -3   3   65.59    4.80
  -2  -3   3   72.19    5.00
  -2  -3   3   71.99    5.00
   1   3  -3   84.49    6.00
   1   3  -3   90.59    5.80
   1   3  -3   93.09    5.70
   1   3  -3   80.59    6.00
   1   3  -3   84.79    5.40
   1   3  -3   96.19    5.40
  -1  -3   3   78.49    5.80
  -1  -3   3   79.79    5.50
  -1  -3   3   80.49    5.50
  -1  -3   3   97.79    5.60
   0   3  -3    9.10    1.70
   0   3  -3   10.10    0.90
   0   3  -3   11.00    0.90
   0   3  -3   11.30    1.50
   0   3  -3   11.00    0.80
   0   3  -3   10.50    1.30
   0   3  -3   11.50    1.60
   0  -3   3   11.60    1.20
   0  -3   3    9.20    1.50
  -1   3  -3 1288.17   78.19
  -1   3  -3 1322.77   78.19
  -1   3  -3 1290.67   78.19
  -1   3  -3 1332.07   78.49
  -1   3  -3 1342.37   78.39
  -1   3  -3 1246.98   78.39
   1  -3   3 1250.27   78.19
   1  -3   3 1387.86   78.29
   1  -3   3 1114.29   78.19
   1  -3   3 1321.97   78.49
   1  -3   3 1263.17   78.19
  -2   3  -3  145.69    8.50
  -2   3  -3  139.89    8.30
  -2   3  -3  123.19    8.50
  -2   3  -3  132.09    8.30
  -2   3  -3  141.69    8.40
  -2   3  -3  134.69    8.50
  -2   3  -3  132.09    8.80
  -2   3  -3  132.09    8.40
   2  -3   3  125.29    8.40
   2  -3   3  125.29    9.00
   2  -3   3  135.99    9.00
   2  -3   3  140.09    8.60
   2  -3   3  119.09    8.30
   2  -3   3  153.68    8.70
   2  -3   3  128.29    8.30
   2  -3   3  145.39    8.30
   2  -3   3  133.19    8.40
  -3   3  -3   26.60    2.50
  -3   3  -3   31.50    2.30
  -3   3  -3   28.80    2.30
  -3   3  -3   32.90    2.10
  -3   3  -3   32.10    2.30
  -3   3  -3   29.00    2.10
  -3   3  -3   28.70    2.40
  -3   3  -3   28.10    2.10
   3  -3   3   26.80    2.30
   3  -3   3   31.10    2.20
   3  -3   3   29.30    2.00
   3  -3   3   30.50    2.30
   3  -3   3   25.00    2.20
   3  -3   3   31.00    2.50
   3  -3   3   29.60    2.10
  -4   3  -3   45.90    3.20
  -4   3  -3   46.10    3.40
  -4   3  -3   50.59    3.20
  -4   3  -3   48.70    3.20
  -4   3  -3   47.90    3.30
   4  -3   3   42.20    3.10
   4  -3   3   46.60    3.00
   4  -3   3   47.00    3.30
   4  -3   3   42.50    3.60
   4  -3   3   45.20    3.20
   4  -3   3   41.50    3.20
  -5   3  -3  351.46   20.60
  -5   3  -3  363.56   20.70
  -5   3  -3  318.47   20.80
  -5   3  -3  343.77   20.60
  -5   3  -3  356.76   20.60
   5  -3   3  286.07   20.50
   5  -3   3  315.57   21.00
   5  -3   3  347.37   20.60
   5  -3   3  332.57   20.60
  -6   3  -3  100.69    6.00
  -6   3  -3   97.89    6.00
  -6   3  -3   82.29    6.10
  -6   3  -3   92.89    5.90
   6  -3   3   91.49    6.20
   6  -3   3   95.49    5.90
  -7   3  -3   15.30    1.20
  -7   3  -3   14.70    1.20
   7  -3   3   12.50    1.10
   7  -3   3   15.00    1.30
   7   2  -3    7.70    1.30
   7   2  -3    7.70    1.10
  -7  -2   3    6.70    0.90
  -7  -2   3    7.80    1.10
  -7  -2   3    8.90    1.00
  -7  -2   3    4.40    2.00
   6   2  -3  269.47   16.40
   6   2  -3  264.37   16.40
  -6  -2   3  265.67   16.40
  -6  -2   3  260.07   16.60
  -6  -2   3  275.57   16.50
   5   2  -3  476.15   27.20
   5   2  -3  396.06   27.20
   5   2  -3  428.46   27.50
   5   2  -3  465.75   27.20
  -5  -2   3  483.85   27.30
  -5  -2   3  475.95   27.40
  -5  -2   3  382.46   28.00
  -5  -2   3  461.95   27.20
  -5  -2   3  438.76   27.30
   4   2  -3   25.90    2.20
   4   2  -3   26.00    2.00
   4   2  -3   25.80    1.80
   4   2  -3   23.80    2.50
  -4  -2   3   31.60    2.20
  -4  -2   3   23.60    2.20
  -4  -2   3   23.90    2.20
  -4  -2   3   26.50    2.10
  -4  -2   3   20.50    2.30
  -4  -2   3   26.90    2.00
  -4  -2   3   28.40    2.60
   3   2  -3   20.30    1.50
   3   2  -3   20.60    1.90
   3   2  -3   21.20    2.50
   3   2  -3   19.60    1.40
  -3  -2   3   18.80    2.10
  -3  -2   3   20.70    2.60
  -3  -2   3   17.00    1.50
  -3  -2   3   20.30    1.60
  -3  -2   3   18.60    1.80
  -3  -2   3   20.20    1.80
  -3  -2   3   22.00    2.10
   2   2  -3   22.00    1.40
   2   2  -3   20.20    1.70
   2   2  -3   19.00    1.90
   2   2  -3   19.10    2.20
   2   2  -3   18.10    1.40
   2   2  -3   17.80    2.70
  -2  -2   3   18.90    2.30
  -2  -2   3   22.30    1.80
   1   2  -3  348.37   20.30
   1   2  -3  315.57   20.50
   1   2  -3  338.77   20.30
   1   2  -3  290.87   20.10
  -1  -2   3  330.77   20.30
  -1  -2   3  358.06   20.30
   0   2  -3 1892.51  113.19
   0   2  -3 1940.11  113.09
   0   2  -3 1834.22  113.09
   0   2  -3 1875.81  113.09
   0   2  -3 1876.31  113.19
   0  -2   3 1853.01  113.19
   0  -2   3 1974.20  113.19
   0  -2   3 1831.62  113.09
   0  -2   3 1670.73  112.89
  -1   2  -3  983.00   59.49
  -1   2  -3 1010.00   59.49
  -1   2  -3  935.81   59.29
  -1   2  -3  967.30   59.49
  -1   2  -3 1013.00   59.39
  -1   2  -3  999.60   59.39
   1  -2   3  973.70   59.29
   1  -2   3 1030.20   59.59
   1  -2   3 1071.29   59.39
   1  -2   3  883.91   59.29
   1  -2   3  936.91   59.49
   1  -2   3  912.11   59.49
  -2   2  -3   19.10    1.80
  -2   2  -3   15.90    2.10
  -2   2  -3   21.10    1.30
  -2   2  -3   19.90    1.50
  -2   2  -3   18.40    1.50
  -2   2  -3   16.90    1.40
   2  -2   3   17.40    1.40
   2  -2   3   18.10    1.40
   2  -2   3   17.20    1.90
   2  -2   3   19.40    1.30
   2  -2   3   14.80    1.70
   2  -2   3   18.00    2.20
   2  -2   3   17.50    2.00
   2  -2   3   19.60    1.50
  -3   2  -3  873.31   53.19
  -3   2  -3  856.81   53.19
  -3   2  -3  874.61   53.49
  -3   2  -3  805.72   53.19
  -3   2  -3  940.21   53.29
  -3   2  -3  815.02   53.09
  -3   2  -3  960.90   53.19
   3  -2   3  912.61   53.19
   3  -2   3  866.71   53.59
   3  -2   3  833.82   53.29
   3  -2   3  913.31   53.39
   3  -2   3  893.81   53.29
   3  -2   3  853.71   53.49
   3  -2   3  903.81   53.09
   3  -2   3  754.42   53.19
   3  -2   3  937.81   53.19
  -4   2  -3    2.00    0.80
  -4   2  -3    1.20    0.70
  -4   2  -3    0.60    0.70
  -4   2  -3    1.00    0.50
  -4   2  -3    0.70    0.70
  -4   2  -3   -0.20    0.90
   4  -2   3    1.90    0.60
   4  -2   3    0.80    0.90
   4  -2   3    1.50    1.10
   4  -2   3    0.70    0.90
   4  -2   3    1.00    0.40
   4  -2   3    1.50    0.60
  -5   2  -3  155.68    9.70
  -5   2  -3  154.78    9.70
  -5   2  -3  155.08    9.70
  -5   2  -3  158.48    9.70
  -5   2  -3  156.58    9.70
   5  -2   3  158.78    9.60
   5  -2   3  162.68    9.60
   5  -2   3  142.19    9.70
   5  -2   3  156.78    9.60
   5  -2   3  143.99    9.90
  -6   2  -3   73.39    4.60
  -6   2  -3   66.29    5.20
  -6   2  -3   72.29    4.50
  -6   2  -3   74.09    4.70
   6  -2   3   69.89    4.50
   6  -2   3   70.79    4.50
   6  -2   3   60.39    5.80
   6  -2   3   62.89    4.80
   6  -2   3   69.69    4.60
  -7   2  -3  254.07   16.00
  -7   2  -3  263.67   16.00
   7  -2   3  261.27   16.00
   7   1  -3  233.08   13.10
   7   1  -3  211.48   12.90
   7   1  -3  192.98   12.70
  -7  -1   3  202.28   12.80
  -7  -1   3  199.58   12.80
   6   1  -3    3.60    0.60
   6   1  -3    3.80    0.90
   6   1  -3    2.40    1.00
  -6  -1   3    3.20    0.90
  -6  -1   3    3.50    0.90
  -6  -1   3    4.10    0.70
   5   1  -3  125.59    7.50
   5   1  -3  116.19    7.40
   5   1  -3  120.39    7.40
  -5  -1   3  122.59    7.50
  -5  -1   3  110.69    7.60
  -5  -1   3  125.79    7.60
  -5  -1   3  121.29    7.60
  -5  -1   3  101.79    8.40
  -5  -1   3  119.99    7.50
   4   1  -3  420.46   24.10
   4   1  -3  389.76   24.30
   4   1  -3  415.96   24.10
   4   1  -3  412.16   24.30
   4   1  -3  375.56   24.10
  -4  -1   3  394.96   24.20
  -4  -1   3  390.36   24.60
  -4  -1   3  367.06   24.20
  -4  -1   3  389.46   24.20
   3   1  -3   75.09    5.10
   3   1  -3   78.09    4.80
   3   1  -3   77.79    4.80
   3   1  -3   78.79    4.60
   3   1  -3   77.89    4.60
   3   1  -3   72.69    5.90
  -3  -1   3   68.39    4.80
  -3  -1   3   65.69    4.70
  -3  -1   3   71.99    4.80
  -3  -1   3   70.99    4.70
  -3  -1   3   75.09    5.10
  -3  -1   3   71.59    5.20
  -3  -1   3   69.19    4.80
   2   1  -3  704.33   41.50
   2   1  -3  691.83   41.20
   2   1  -3  681.33   41.10
   2   1  -3  660.53   41.00
   2   1  -3  691.63   41.20
   2   1  -3  695.23   41.00
  -2  -1   3  652.43   41.00
  -2  -1   3  637.94   41.20
  -2  -1   3  670.33   41.20
  -2  -1   3  656.73   40.90
   1   1  -3  316.47   19.10
   1   1  -3  332.97   19.30
   1   1  -3  324.47   19.20
   1   1  -3  305.27   19.00
   1   1  -3  308.47   19.10
  -1  -1   3  280.37   19.00
  -1  -1   3  309.57   19.10
  -1  -1   3  327.67   19.20
  -1  -1   3  301.57   19.10
   0   1  -3  769.02   45.10
   0   1  -3  691.93   45.00
   0   1  -3  770.62   45.10
   0   1  -3  768.02   45.20
   0  -1   3  737.93   45.10
   0  -1   3  779.02   45.10
   0  -1   3  764.02   45.30
   0  -1   3  655.83   45.00
   0  -1   3  734.33   45.10
  -1   1  -3  495.95   32.50
  -1   1  -3  528.55   32.60
  -1   1  -3  548.15   32.60
  -1   1  -3  522.45   32.50
  -1   1  -3  544.05   32.60
  -1   1  -3  537.55   32.90
   1  -1   3  550.34   32.60
   1  -1   3  542.05   32.60
   1  -1   3  572.24   32.60
   1  -1   3  493.25   32.50
   1  -1   3  540.45   32.80
  -2   1  -3   83.89    5.20
  -2   1  -3   79.99    5.30
  -2   1  -3   86.39    5.10
  -2   1  -3   82.59    5.20
  -2   1  -3   68.89    5.10
   2  -1   3   85.29    5.20
   2  -1   3   82.29    5.50
   2  -1   3   85.29    5.30
   2  -1   3   83.09    5.20
   2  -1   3   79.79    5.40
  -3   1  -3  480.85   27.50
  -3   1  -3  441.36   27.60
  -3   1  -3  472.55   27.50
  -3   1  -3  435.56   27.40
   3  -1   3  449.06   27.70
   3  -1   3  473.65   27.90
   3  -1   3  472.35   27.40
   3  -1   3  425.36   27.50
   3  -1   3  423.76   27.80
   3  -1   3  426.16   27.40
  -4   1  -3  399.86   24.10
  -4   1  -3  389.56   24.20
  -4   1  -3  351.36   24.50
  -4   1  -3  403.06   24.20
  -4   1  -3  422.36   24.30
  -4   1  -3  393.66   24.20
  -4   1  -3  385.56   24.10
   4  -1   3  411.26   24.10
   4  -1   3  419.66   24.30
   4  -1   3  401.96   24.10
   4  -1   3  372.26   24.50
   4  -1   3  368.56   24.90
   4  -1   3  411.46   24.10
  -5   1  -3  516.25   31.30
  -5   1  -3  504.65   31.30
  -5   1  -3  518.55   31.30
  -5   1  -3  516.95   31.30
  -5   1  -3  522.75   31.30
   5  -1   3  489.85   31.50
   5  -1   3  513.15   31.30
   5  -1   3  514.75   31.20
  -6   1  -3   13.40    1.50
  -6   1  -3   13.50    1.70
  -6   1  -3   15.40    1.70
  -6   1  -3   12.60    1.60
  -6   1  -3   12.20    2.70
  -6   1  -3   14.30    1.60
   6  -1   3   13.80    1.30
  -7   1  -3    3.20    0.70
  -7   1  -3    4.20    0.70
   7  -1   3    4.10    0.70
   7  -1   3    3.50    1.10
  -8   1  -3    0.60    0.40
  -8   1  -3    0.80    0.80
  -8   1  -3    0.50    0.50
   8  -1   3    0.20    0.60
   8  -1   3    0.90    1.00
   7   0  -3   56.59    3.60
  -7   0   3   59.99    3.80
  -7   0   3   54.59    3.70
   6   0  -3  133.99    9.40
   6   0  -3  135.09    9.40
   6   0  -3  149.88    9.40
  -6   0   3  168.48    9.50
  -6   0   3  164.28    9.50
  -6   0   3  162.08    9.50
  -6   0   3  143.99    9.60
   5   0  -3    9.30    1.80
   5   0  -3    9.30    1.50
   5   0  -3    9.70    1.30
   5   0  -3    9.80    1.60
   5   0  -3   10.30    1.30
  -5   0   3    9.30    1.50
  -5   0   3   12.00    1.60
  -5   0   3   12.30    3.50
  -5   0   3    9.80    1.50
  -5   0   3   10.80    1.50
   4   0  -3    6.10    0.90
   4   0  -3    5.60    1.20
   4   0  -3    5.40    0.80
   4   0  -3    3.20    0.90
   4   0  -3    7.50    0.90
  -4   0   3    3.90    1.10
  -4   0   3    4.90    0.90
  -4   0   3    4.70    2.10
  -4   0   3    4.50    1.10
  -4   0   3    5.50    1.70
   3   0  -3  103.19    6.70
   3   0  -3   98.59    6.20
   3   0  -3  103.09    6.20
   3   0  -3   86.29    6.30
   3   0  -3  102.79    6.40
   3   0  -3  105.89    6.50
  -3   0   3  104.49    6.30
  -3   0   3  105.49    6.50
  -3   0   3  104.29    6.40
  -3   0   3   93.69    6.30
  -3   0   3   94.69    6.40
  -3   0   3   95.09    6.40
  -3   0   3  101.19    6.80
  -3   0   3  105.09    6.20
   2   0  -3 2511.05  141.89
   2   0  -3 2519.05  141.89
   2   0  -3 2130.79  141.89
   2   0  -3 2149.48  141.49
   2   0  -3 2324.27  141.69
  -2   0   3 2525.05  141.69
  -2   0   3 2345.17  141.59
  -2   0   3 2329.07  141.79
  -2   0   3 2171.98  142.19
  -2   0   3 2318.27  141.79
   1   0  -3    3.10    0.60
   1   0  -3    3.20    0.40
   1   0  -3    2.60    0.60
   1   0  -3    4.80    1.00
   1   0  -3    3.20    0.60
  -1   0   3    3.80    0.60
  -1   0   3    3.40    0.60
  -1   0   3    5.30    0.90
  -1   0   3    2.70    0.40
   0   0  -3  117.69    7.70
   0   0  -3  123.09    7.50
   0   0  -3  126.29    7.60
   0   0  -3  122.39    7.60
   0   0  -3  122.69    7.60
   0   0   3  108.69    7.50
   0   0   3  126.79    7.60
   0   0   3  125.09    7.60
   0   0   3  130.29    7.60
   0   0   3  120.79    7.80
  -1   0  -3 1201.88   74.49
  -1   0  -3 1277.97   74.39
  -1   0  -3 1242.38   74.49
  -1   0  -3 1264.47   74.69
  -1   0  -3 1214.98   74.39
   1   0   3 1098.99   74.39
   1   0   3 1305.17   74.39
   1   0   3 1151.08   74.59
   1   0   3 1276.47   74.39
   1   0   3 1209.08   74.39
  -2   0  -3  754.22   46.90
  -2   0  -3  765.42   46.80
  -2   0  -3  754.42   46.70
  -2   0  -3  750.52   46.80
  -2   0  -3  759.42   47.00
   2   0   3  800.42   46.80
   2   0   3  786.52   46.90
   2   0   3  856.01   46.90
   2   0   3  713.23   46.70
   2   0   3  753.32   47.00
  -3   0  -3  432.06   27.80
  -3   0  -3  437.56   27.70
  -3   0  -3  461.65   27.60
   3   0   3  489.55   27.70
   3   0   3  458.65   27.50
   3   0   3  470.45   28.00
   3   0   3  450.65   27.80
   3   0   3  455.75   27.80
   3   0   3  422.46   27.60
  -4   0  -3  264.37   16.80
  -4   0  -3  257.87   16.80
  -4   0  -3  264.47   16.80
  -4   0  -3  255.77   16.80
  -4   0  -3  243.38   17.00
  -4   0  -3  309.07   17.10
  -4   0  -3  276.67   16.70
  -4   0  -3  258.47   16.70
  -4   0  -3  290.27   16.70
   4   0   3  270.47   17.00
   4   0   3  288.57   16.70
   4   0   3  268.97   17.30
   4   0   3  299.57   16.80
  -5   0  -3   53.59    3.50
  -5   0  -3   44.90    3.50
  -5   0  -3   49.00    3.50
  -5   0  -3   52.59    3.40
  -5   0  -3   55.29    3.70
   5   0   3   51.09    3.60
   5   0   3   50.29    3.30
   5   0   3   52.89    3.40
   5   0   3   49.20    3.40
  -6   0  -3   57.79    4.60
  -6   0  -3   54.69    4.00
  -6   0  -3   60.59    4.00
  -6   0  -3   62.39    3.90
  -6   0  -3   58.49    3.90
  -6   0  -3   60.39    4.00
   6   0   3   56.19    3.80
   6   0   3   58.49    3.90
   6   0   3   57.59    3.90
   6   0   3   57.49    4.50
  -7   0  -3    7.50    1.20
  -7   0  -3    8.30    1.50
  -7   0  -3    9.10    1.20
  -7   0  -3    8.20    1.40
   7   0   3    5.90    1.30
   7   0   3    9.40    1.20
   7   0   3   11.00    1.40
  -8   0  -3    8.70    0.90
  -8   0  -3    8.70    1.00
  -8   0  -3    8.60    0.90
   8   0   3    6.60    1.30
   8   0   3    6.10    1.30
   7  -1  -3  135.59    8.20
  -7   1   3  130.79    8.30
  -7   1   3  133.29    8.30
   6  -1  -3   61.79    4.40
   6  -1  -3   71.49    4.20
  -6   1   3   65.29    4.40
  -6   1   3   55.69    4.60
  -6   1   3   75.89    4.40
   5  -1  -3  162.48   10.30
   5  -1  -3  166.08   10.10
   5  -1  -3  154.48   10.70
   5  -1  -3  162.08   10.20
  -5   1   3  175.58   10.40
  -5   1   3  170.08   10.30
  -5   1   3  171.58   10.30
  -5   1   3  148.49   10.60
   4  -1  -3  499.05   28.50
   4  -1  -3  416.76   28.50
   4  -1  -3  458.55   28.50
   4  -1  -3  486.95   28.70
   4  -1  -3  484.55   28.50
  -4   1   3  504.45   28.60
  -4   1   3  453.65   28.50
  -4   1   3  476.85   28.60
  -4   1   3  453.15   28.60
  -4   1   3  434.76   28.90
   3  -1  -3    2.50    0.60
   3  -1  -3    5.10    0.80
   3  -1  -3    4.80    0.60
   3  -1  -3    4.50    1.80
   3  -1  -3    3.40    0.60
   3  -1  -3    2.40    0.60
   3  -1  -3    3.20    0.70
  -3   1   3    3.90    0.90
  -3   1   3    2.50    0.60
  -3   1   3    3.30    0.70
  -3   1   3    4.10    1.60
  -3   1   3    3.10    0.60
  -3   1   3    3.30    1.00
  -3   1   3    4.60    1.20
  -3   1   3    4.40    1.10
  -3   1   3    4.20    0.70
   2  -1  -3  639.54   41.30
   2  -1  -3  659.63   41.80
   2  -1  -3  651.03   41.30
   2  -1  -3  728.93   41.40
   2  -1  -3  624.54   41.50
  -2   1   3  668.73   41.60
  -2   1   3  654.33   41.30
  -2   1   3  707.13   41.50
  -2   1   3  730.13   41.30
  -2   1   3  661.93   41.40
  -2   1   3  686.63   41.30
  -2   1   3  738.43   41.50
   1  -1  -3 1099.69   69.09
   1  -1  -3 1138.49   69.29
   1  -1  -3 1081.19   68.99
   1  -1  -3 1140.69   68.99
   1  -1  -3 1134.49   69.19
  -1   1   3 1159.98   69.09
  -1   1   3 1179.68   69.19
  -1   1   3 1160.18   69.19
   0  -1  -3   30.60    2.20
   0  -1  -3   28.50    2.00
   0  -1  -3   29.40    2.00
   0   1   3   30.40    2.20
   0   1   3   25.80    1.90
   0   1   3   31.00    2.10
   0   1   3   30.20    2.00
   0   1   3   30.70    2.00
  -1  -1  -3   16.50    1.20
  -1  -1  -3   15.20    1.20
  -1  -1  -3   15.40    1.20
  -1  -1  -3   17.50    1.40
   1   1   3   13.60    1.00
   1   1   3   17.00    1.20
   1   1   3   17.20    1.50
   1   1   3   16.40    1.20
   1   1   3   16.10    1.10
  -2  -1  -3    5.20    0.60
   2   1   3    5.70    1.10
   2   1   3    5.40    0.80
   2   1   3    6.10    0.70
   2   1   3    4.40    0.50
   2   1   3    4.90    0.50
  -3  -1  -3  171.68   10.70
  -3  -1  -3  156.98   10.60
  -3  -1  -3  181.18   10.60
   3   1   3  173.18   10.60
   3   1   3  168.78   10.90
   3   1   3  173.38   10.60
   3   1   3  172.88   10.60
  -4  -1  -3  207.48   15.00
  -4  -1  -3  241.98   14.90
  -4  -1  -3  269.47   15.20
  -4  -1  -3  227.28   14.90
  -4  -1  -3  229.08   15.00
  -4  -1  -3  243.38   14.90
   4   1   3  231.68   14.90
   4   1   3  259.37   15.00
   4   1   3  247.38   15.60
   4   1   3  261.27   15.10
   4   1   3  258.47   14.80
  -5  -1  -3   90.69    6.10
  -5  -1  -3  109.79    6.50
  -5  -1  -3   94.09    6.10
  -5  -1  -3  100.09    6.00
  -5  -1  -3   92.69    6.00
  -5  -1  -3   93.69    6.00
  -5  -1  -3   82.19    6.10
   5   1   3   95.29    5.90
   5   1   3   97.09    6.00
   5   1   3   99.79    6.20
   5   1   3   91.29    6.00
  -6  -1  -3   45.70    3.10
  -6  -1  -3   39.00    2.90
  -6  -1  -3   42.30    3.20
  -6  -1  -3   39.90    3.00
  -6  -1  -3   45.70    2.90
  -6  -1  -3   43.80    3.80
  -6  -1  -3   45.30    3.10
   6   1   3   48.00    2.90
   6   1   3   38.20    3.10
   6   1   3   44.40    3.00
  -7  -1  -3   28.60    2.40
  -7  -1  -3   29.80    2.40
  -7  -1  -3   28.40    2.10
  -7  -1  -3   31.10    2.50
  -7  -1  -3   24.90    4.00
  -7  -1  -3   28.60    2.10
   7   1   3   27.90    2.20
   7   1   3   29.50    2.20
  -8  -1  -3   -0.20    0.70
  -8  -1  -3    1.00    0.70
  -8  -1  -3    0.90    0.50
   8   1   3    1.30    0.80
   8   1   3    0.20    0.60
   6  -2  -3    9.00    1.30
   6  -2  -3    8.60    0.90
  -6   2   3    8.40    1.10
  -6   2   3    8.10    1.20
  -6   2   3    7.80    1.10
   5  -2  -3   42.60    3.10
   5  -2  -3   53.59    8.10
   5  -2  -3   41.60    3.10
   5  -2  -3   43.50    2.70
  -5   2   3   43.10    3.10
  -5   2   3   36.50    3.10
  -5   2   3   37.00    2.90
   4  -2  -3   12.20    1.30
   4  -2  -3   11.10    1.50
   4  -2  -3    9.70    1.30
  -4   2   3    9.30    1.60
  -4   2   3   10.20    1.30
  -4   2   3   11.50    1.70
  -4   2   3   10.00    1.50
  -4   2   3    8.10    1.50
  -4   2   3   11.90    1.50
   3  -2  -3    4.40    3.10
   3  -2  -3    7.60    1.30
   3  -2  -3    7.00    0.90
   3  -2  -3    6.10    0.80
   3  -2  -3    7.40    1.30
  -3   2   3    9.70    1.10
  -3   2   3    8.20    1.10
  -3   2   3    5.70    1.30
  -3   2   3    7.90    1.00
  -3   2   3    4.50    1.20
  -3   2   3    6.50    0.90
  -3   2   3    7.50    1.20
   2  -2  -3    2.40    2.70
   2  -2  -3    1.40    0.50
   2  -2  -3    0.80    0.70
   2  -2  -3    1.60    0.40
   2  -2  -3    1.40    0.70
   2  -2  -3    2.30    1.30
  -2   2   3    1.50    0.90
  -2   2   3    1.90    2.20
  -2   2   3    1.70    0.60
  -2   2   3    1.30    0.40
   1  -2  -3  121.49    8.40
   1  -2  -3  135.39    8.10
   1  -2  -3  138.19    8.50
   1  -2  -3  136.59    8.30
   1  -2  -3  123.09    8.10
  -1   2   3  133.69    8.40
  -1   2   3  139.79    8.30
  -1   2   3  114.89    8.10
  -1   2   3  137.89    8.10
  -1   2   3  139.09    8.20
   0  -2  -3  253.57   16.30
   0  -2  -3  279.67   16.50
   0  -2  -3  239.68   16.30
   0   2   3  279.07   16.40
   0   2   3  241.58   16.20
   0   2   3  284.47   16.40
   0   2   3  270.77   16.50
   0   2   3  276.27   16.30
  -1  -2  -3  200.68   12.70
  -1  -2  -3  193.08   12.50
  -1  -2  -3  196.78   12.70
   1   2   3  210.58   12.50
   1   2   3  213.48   12.50
   1   2   3  211.28   12.60
   1   2   3  203.08   12.70
  -2  -2  -3    7.60    0.90
   2   2   3    8.20    0.70
   2   2   3    7.90    1.30
   2   2   3    6.60    0.70
   2   2   3    6.40    0.70
  -3  -2  -3   12.40    1.10
   3   2   3   10.20    0.90
   3   2   3   11.70    1.10
   3   2   3   13.20    1.10
   3   2   3   11.80    1.90
   3   2   3   13.70    1.00
  -4  -2  -3   14.60    1.60
  -4  -2  -3   16.10    1.50
  -4  -2  -3   15.00    1.40
  -4  -2  -3   15.90    1.50
  -4  -2  -3   16.40    1.90
  -4  -2  -3   17.90    1.50
   4   2   3   16.70    1.50
   4   2   3   17.90    1.50
   4   2   3   16.50    1.20
   4   2   3   16.70    2.40
  -5  -2  -3    3.10    1.00
  -5  -2  -3    3.80    0.90
  -5  -2  -3    3.70    0.60
   5   2   3    3.40    0.50
   5   2   3    3.80    1.10
   5   2   3    3.50    0.80
  -6  -2  -3  130.89    8.80
  -6  -2  -3  154.68    8.90
  -6  -2  -3  139.29    9.30
  -6  -2  -3  138.29    9.00
  -6  -2  -3  138.19    8.80
  -6  -2  -3  147.99    8.90
  -6  -2  -3  125.69    8.70
   6   2   3  152.38    8.70
   6   2   3  140.39    8.80
  -7  -2  -3  351.16   21.30
  -7  -2  -3  358.76   21.40
  -7  -2  -3  337.67   21.40
  -7  -2  -3  352.96   21.40
   7   2   3  341.87   21.30
   7   2   3  342.87   21.30
  -8  -2  -3    3.10    0.70
  -8  -2  -3    2.20    0.60
  -8  -2  -3    1.90    0.60
   8   2   3    3.30    0.80
   8   2   3    2.50    0.70
   6  -3  -3   50.99    3.30
   6  -3  -3   52.89    3.20
  -6   3   3   54.59    3.40
  -6   3   3   43.50    3.30
   5  -3  -3   13.10    1.40
   5  -3  -3   12.90    1.90
  -5   3   3   17.60    1.90
  -5   3   3   10.70    1.90
  -5   3   3   10.20    1.80
  -5   3   3   15.70    1.80
   4  -3  -3    3.50    0.70
   4  -3  -3    3.50    0.80
   4  -3  -3    3.30    0.80
  -4   3   3    3.90    1.60
  -4   3   3    2.90    1.00
  -4   3   3    2.60    0.90
  -4   3   3    3.50    1.40
  -4   3   3    3.90    1.30
  -4   3   3    1.50    1.10
   3  -3  -3    3.40    0.80
   3  -3  -3    5.70    1.80
   3  -3  -3    4.10    0.80
   3  -3  -3    4.00    0.70
  -3   3   3    4.40    1.10
  -3   3   3    3.30    0.70
  -3   3   3    1.80    0.90
  -3   3   3    4.30    0.80
  -3   3   3    4.00    1.60
  -3   3   3    4.40    0.80
   2  -3  -3   94.69    6.40
   2  -3  -3   90.99    6.30
   2  -3  -3   85.69    7.40
   2  -3  -3  109.39    6.70
   2  -3  -3  102.79    6.40
   2  -3  -3   96.99    6.60
  -2   3   3  105.59    6.40
  -2   3   3  109.59    6.40
  -2   3   3  110.99    6.40
  -2   3   3  107.79    6.50
   1  -3  -3  169.78   11.30
   1  -3  -3  175.28   11.30
   1  -3  -3  207.38   11.40
   1  -3  -3  156.98   11.30
   1  -3  -3  182.88   11.60
   1  -3  -3  188.18   11.60
   1  -3  -3  179.48   11.60
  -1   3   3  184.18   11.50
  -1   3   3  183.18   11.90
  -1   3   3  197.18   11.30
  -1   3   3  196.48   11.40
  -1   3   3  185.38   11.30
   0  -3  -3   43.50    3.10
   0  -3  -3   42.80    3.20
   0  -3  -3   44.10    2.80
   0  -3  -3   40.40    3.20
   0   3   3   49.30    3.10
   0   3   3   44.20    2.80
   0   3   3   40.60    2.90
   0   3   3   44.60    2.90
   0   3   3   49.60    3.40
  -1  -3  -3 1994.70  120.79
   1   3   3 1937.91  120.99
   1   3   3 2088.19  121.09
   1   3   3 2041.20  120.89
   1   3   3 2075.29  120.89
   1   3   3 1810.22  120.79
  -2  -3  -3  253.17   17.90
   2   3   3  301.77   17.80
   2   3   3  305.97   17.60
  -3  -3  -3    0.60    0.60
  -3  -3  -3    1.70    0.70
  -3  -3  -3    2.20    0.80
  -3  -3  -3   -0.20    0.60
   3   3   3    1.00    0.70
   3   3   3    1.90    1.90
  -4  -3  -3  498.05   29.30
  -4  -3  -3  460.55   29.00
  -4  -3  -3  453.35   29.00
  -4  -3  -3  467.05   28.90
  -4  -3  -3  490.35   29.10
   4   3   3  470.95   29.80
   4   3   3  482.95   29.00
  -5  -3  -3   38.60    2.60
  -5  -3  -3   38.90    2.70
  -5  -3  -3   35.00    2.90
  -5  -3  -3   36.90    3.10
  -5  -3  -3   39.70    2.80
   5   3   3   35.40    3.10
   5   3   3   37.80    2.50
  -6  -3  -3  340.37   21.90
  -6  -3  -3  362.46   22.00
  -6  -3  -3  367.46   21.90
  -6  -3  -3  319.37   21.90
  -6  -3  -3  377.16   22.00
   6   3   3  405.96   21.80
   6   3   3  351.36   21.80
   6   3   3  329.77   22.20
  -7  -3  -3    6.70    1.00
  -7  -3  -3    7.80    1.10
  -7  -3  -3    7.00    1.20
   7   3   3    6.80    0.90
   7   3   3    5.60    0.80
  -8  -3  -3   71.29    4.80
  -8  -3  -3   75.39    4.70
  -8  -3  -3   69.89    4.70
   8   3   3   69.89    4.60
   8   3   3   75.59    4.80
   5  -4  -3    0.00    0.60
   5  -4  -3    0.70    0.60
   5  -4  -3   -0.10    0.50
   5  -4  -3    0.20    0.40
  -5   4   3    0.40    0.60
  -5   4   3    0.40    0.90
   4  -4  -3  172.58    9.90
   4  -4  -3  170.48   10.00
   4  -4  -3  165.18    9.90
  -4   4   3  160.98   10.80
  -4   4   3  137.99   10.00
  -4   4   3  168.08   10.10
  -4   4   3  149.19   10.00
  -4   4   3  148.09   10.90
   3  -4  -3  170.48   10.00
   3  -4  -3  166.48    9.90
   3  -4  -3  166.88   10.00
  -3   4   3  151.18   10.20
  -3   4   3  152.28   10.20
  -3   4   3  158.18   10.00
  -3   4   3  157.58   10.00
   2  -4  -3   16.80    1.60
   2  -4  -3   16.80    1.80
   2  -4  -3   17.60    1.50
   2  -4  -3   16.20    1.40
  -2   4   3   15.80    1.50
  -2   4   3   18.90    1.30
  -2   4   3   16.60    1.70
   1  -4  -3  984.60   64.59
   1  -4  -3 1037.60   64.59
   1  -4  -3 1080.59   64.59
   1  -4  -3 1048.20   64.79
   1  -4  -3 1033.00   64.59
  -1   4   3 1123.69   64.69
  -1   4   3 1095.79   64.59
  -1   4   3 1053.69   64.59
  -1   4   3 1108.39   64.79
   0  -4  -3   36.20    2.30
   0  -4  -3   32.60    2.50
   0  -4  -3   31.70    2.90
   0  -4  -3   33.00    2.70
   0  -4  -3   35.40    2.40
   0  -4  -3   33.50    2.30
   0   4   3   34.70    2.20
   0   4   3   36.30    2.40
   0   4   3   31.80    2.50
   0   4   3   31.40    2.90
  -1  -4  -3    3.00    0.90
  -1  -4  -3    2.60    0.60
  -1  -4  -3    1.70    0.60
  -1  -4  -3    1.60    0.80
   1   4   3    2.20    0.40
   1   4   3    2.40    0.60
  -2  -4  -3   16.90    1.50
  -2  -4  -3   15.90    1.70
  -2  -4  -3   15.90    2.30
  -2  -4  -3   21.50    1.60
   2   4   3   16.50    1.50
  -3  -4  -3  310.67   19.30
  -3  -4  -3  299.47   19.40
  -3  -4  -3  303.17   19.30
  -3  -4  -3  310.87   19.10
  -3  -4  -3  319.57   19.20
  -3  -4  -3  331.57   19.20
   3   4   3  310.17   19.30
   3   4   3  321.17   19.30
  -4  -4  -3  510.85   32.30
  -4  -4  -3  539.45   32.30
  -4  -4  -3  510.95   32.40
  -4  -4  -3  575.44   32.30
  -4  -4  -3  511.65   32.40
   4   4   3  528.75   32.40
  -5  -4  -3   96.99    6.00
  -5  -4  -3   94.49    6.00
  -5  -4  -3   82.29    6.20
  -5  -4  -3   89.09    5.90
  -5  -4  -3   96.39    5.90
  -6  -4  -3  407.06   24.40
  -6  -4  -3  389.56   24.30
  -6  -4  -3  392.96   24.40
   6   4   3  396.26   24.20
  -7  -4  -3   62.69    4.20
  -7  -4  -3   65.19    4.30
  -7  -4  -3   67.49    4.40
   7   4   3   59.79    4.30
  -8  -4  -3   23.70    1.90
  -8  -4  -3   17.00    1.50
  -8  -4  -3   20.00    1.50
   8   4   3   21.00    1.70
   5  -5  -3   33.40    2.40
   5  -5  -3   38.20    2.60
   5  -5  -3   41.40    2.50
  -5   5   3   41.00    2.60
   4  -5  -3   22.30    1.80
   4  -5  -3   18.10    1.50
   4  -5  -3   23.90    1.80
   4  -5  -3   20.40    1.60
  -4   5   3   21.30    1.80
  -4   5   3   24.60    2.20
   3  -5  -3   27.80    2.00
   3  -5  -3   24.70    2.10
   3  -5  -3   28.00    2.10
  -3   5   3   24.10    2.00
  -3   5   3   28.20    2.30
  -3   5   3   19.80    3.60
  -3   5   3   23.90    2.00
  -3   5   3   30.40    2.00
   2  -5  -3  136.89    8.40
   2  -5  -3  120.99    8.00
   2  -5  -3  130.79    8.00
   2  -5  -3  127.39    8.00
   2  -5  -3  133.59    8.00
  -2   5   3  122.69    8.00
  -2   5   3  133.79    8.00
  -2   5   3  127.89    8.00
  -2   5   3  115.89    8.30
   1  -5  -3   57.69    4.00
   1  -5  -3   56.69    4.20
   1  -5  -3   64.49    4.00
   1  -5  -3   62.49    4.30
   1  -5  -3   56.79    4.00
  -1   5   3   65.49    4.00
  -1   5   3   63.09    4.00
  -1   5   3   65.69    4.00
  -1   5   3   61.69    4.30
   0  -5  -3   15.60    1.50
   0  -5  -3   16.30    1.40
   0  -5  -3   15.60    1.40
   0  -5  -3   16.30    2.10
   0   5   3   16.30    1.30
   0   5   3   15.10    1.70
   0   5   3   13.80    1.50
   0   5   3   15.60    1.20
  -1  -5  -3  179.88   10.00
  -1  -5  -3  148.99   10.00
  -1  -5  -3  159.58    9.90
   1   5   3  160.98    9.90
   1   5   3  156.58    9.80
   1   5   3  157.18   10.10
  -2  -5  -3   -0.90    1.40
  -2  -5  -3    1.60    0.90
  -2  -5  -3    1.60    0.50
   2   5   3    0.10    0.50
   2   5   3    1.50    0.90
  -3  -5  -3    1.00    1.20
  -3  -5  -3    1.20    0.80
  -3  -5  -3    0.40    1.10
  -3  -5  -3    1.00    0.50
   3   5   3    2.40    1.30
  -4  -5  -3  741.33   47.80
  -4  -5  -3  808.32   48.00
  -4  -5  -3  782.82   47.80
  -4  -5  -3  798.12   47.90
  -4  -5  -3  808.22   47.90
  -4  -5  -3  771.42   47.80
  -5  -5  -3   10.50    2.10
  -5  -5  -3   12.40    1.90
  -5  -5  -3   13.90    1.70
  -5  -5  -3   14.30    1.80
  -5  -5  -3   12.60    1.60
  -6  -5  -3    4.20    0.80
  -6  -5  -3    1.40    0.90
  -6  -5  -3    3.00    1.10
  -7  -5  -3    1.30    0.60
  -7  -5  -3    0.20    0.90
  -7  -5  -3   -0.20    0.60
  -8  -5  -3   59.19    3.80
  -8  -5  -3   58.99    3.80
   4  -6  -3    8.90    1.00
  -4   6   3    7.70    0.80
   3  -6  -3   98.79    6.30
   3  -6  -3  105.49    6.30
   3  -6  -3  104.69    6.30
  -3   6   3  108.89    6.40
  -3   6   3   94.49    6.20
  -3   6   3   86.99    6.30
   2  -6  -3   30.30    2.20
   2  -6  -3   27.20    2.40
   2  -6  -3   31.60    2.30
  -2   6   3   29.50    2.30
  -2   6   3   35.10    2.30
  -2   6   3   36.30    2.40
   1  -6  -3  777.12   44.90
   1  -6  -3  676.03   44.90
   1  -6  -3  744.73   44.90
   1  -6  -3  717.53   44.80
   1  -6  -3  750.82   44.90
   1  -6  -3  757.62   45.10
  -1   6   3  778.12   44.90
  -1   6   3  697.13   44.90
  -1   6   3  816.12   44.80
  -1   6   3  651.33   45.10
   0  -6  -3   67.79    4.30
   0  -6  -3   57.79    4.40
   0  -6  -3   59.89    4.20
   0  -6  -3   69.59    4.20
   0  -6  -3   69.29    4.70
   0   6   3   65.29    4.20
   0   6   3   61.79    4.80
   0   6   3   66.19    4.30
   0   6   3   71.59    4.20
  -1  -6  -3   77.49    4.90
  -1  -6  -3   65.89    5.60
  -1  -6  -3   79.39    5.10
  -1  -6  -3   68.39    5.00
  -1  -6  -3   76.29    4.90
   1   6   3   74.69    4.90
   1   6   3   73.39    4.90
   1   6   3   85.79    5.80
   1   6   3   84.19    4.80
  -2  -6  -3    0.00    0.50
  -2  -6  -3    1.60    1.50
  -2  -6  -3    0.10    0.80
  -2  -6  -3    0.90    0.50
  -2  -6  -3    0.10    1.10
   2   6   3    1.60    0.60
   2   6   3   -0.10    0.80
  -3  -6  -3   45.10    3.50
  -3  -6  -3   40.30    3.30
  -3  -6  -3   44.00    3.00
  -3  -6  -3   48.40    3.50
  -3  -6  -3   46.50    3.00
  -4  -6  -3    2.80    1.20
  -4  -6  -3    4.00    1.30
  -4  -6  -3    3.50    0.80
  -4  -6  -3    5.90    1.20
  -4  -6  -3    2.90    1.00
  -4  -6  -3    0.90    1.20
  -5  -6  -3    4.30    1.50
  -5  -6  -3    4.80    1.40
  -6  -6  -3  136.89    8.30
  -6  -6  -3  146.09    8.30
  -6  -6  -3  110.49    8.20
  -6  -6  -3  132.29    8.40
  -7  -6  -3    1.50    0.70
  -7  -6  -3    1.20    0.90
   2  -7  -3   25.20    1.60
  -2   7   3   20.80    1.80
  -2   7   3   22.30    1.70
  -2   7   3   22.20    1.60
   1  -7  -3  163.08   10.00
   1  -7  -3  154.28   10.00
   1  -7  -3  168.88   10.20
  -1   7   3  162.18   10.00
   0  -7  -3  133.79    7.30
   0  -7  -3  109.39    7.30
   0   7   3  106.39    7.10
   0   7   3  111.99    7.20
  -1  -7  -3   98.89    6.30
  -1  -7  -3   96.09    6.00
  -1  -7  -3   96.99    6.10
   1   7   3   93.39    6.00
   1   7   3   91.99    6.00
  -2  -7  -3    8.60    1.10
  -2  -7  -3    8.10    1.40
  -2  -7  -3    8.20    1.00
   2   7   3    7.20    1.20
  -3  -7  -3    1.10    0.80
  -3  -7  -3   -1.00    1.70
  -4  -7  -3   19.80    2.00
  -4  -7  -3   17.00    2.00
  -4  -7  -3   18.90    2.00
  -4  -7  -3   15.80    1.40
  -5  -7  -3  136.29    8.70
  -5  -7  -3  142.39    8.70
  -6  -7  -3    0.30    1.10
  -6  -7  -3   -0.40    0.70
   1  -8  -3   37.90    2.80
   1  -8  -3   44.00    2.80
  -1   8   3   48.50    3.10
  -1   8   3   47.80    2.90
   0  -8  -3    8.90    1.10
   0  -8  -3    7.70    0.90
   0  -8  -3    9.20    0.90
   0   8   3    7.50    1.00
   0   8   3    9.50    1.00
  -1  -8  -3   12.70    1.10
  -1  -8  -3   12.50    1.60
  -1  -8  -3   11.50    1.00
   1   8   3   12.20    1.30
   1   8   3   11.20    1.30
  -2  -8  -3   14.90    1.40
  -2  -8  -3   13.50    1.10
  -2  -8  -3   12.30    1.20
  -3  -8  -3   18.90    1.90
  -3  -8  -3   17.50    1.30
  -4  -8  -3    1.10    0.90
  -4  -8  -3    0.80    0.40
  -4  -8  -3    4.70    2.40
  -5  -8  -3  397.66   24.30
   1   8  -4   93.39    6.20
  -1  -8   4  108.39    6.30
   4   7  -4   -0.40    0.60
   4   7  -4    0.10    0.40
  -4  -7   4    1.80    1.10
  -4  -7   4    0.20    0.60
   3   7  -4  152.98    8.70
   3   7  -4  138.59    8.70
   3   7  -4  142.39    8.70
  -3  -7   4  131.29    8.80
  -3  -7   4  140.89    8.80
   2   7  -4   49.50    3.70
   2   7  -4   58.29    3.70
   2   7  -4   64.99    3.70
  -2  -7   4   60.29    3.90
  -2  -7   4   57.89    3.90
   1   7  -4  193.78   12.90
   1   7  -4  222.88   12.80
  -1  -7   4  209.78   12.80
  -1  -7   4  191.78   13.00
  -1  -7   4  224.08   12.80
  -1  -7   4  210.58   12.80
  -1  -7   4  210.08   13.00
   0   7  -4   43.20    3.10
   0   7  -4   48.90    3.10
   0  -7   4   48.00    3.10
   0  -7   4   48.10    3.10
   0  -7   4   51.59    3.10
  -1   7  -4    1.00    0.50
  -1   7  -4    1.60    0.80
   1  -7   4    0.40    0.60
   1  -7   4    1.00    0.50
   1  -7   4    1.90    0.40
  -2   7  -4   30.30    2.20
  -2   7  -4   33.60    2.30
   2  -7   4   35.00    2.20
   2  -7   4   31.50    2.20
   2  -7   4   33.00    2.20
  -3   7  -4    1.00    0.40
   3  -7   4   -0.70    0.60
   3  -7   4    0.50    0.30
   3  -7   4    1.10    0.40
   5   6  -4   94.59    5.40
   5   6  -4   78.59    5.40
  -5  -6   4   76.89    5.40
  -5  -6   4   93.99    5.50
   4   6  -4   11.20    1.10
   4   6  -4   11.50    1.10
  -4  -6   4   10.80    1.60
  -4  -6   4   11.50    1.60
   3   6  -4  105.79    5.80
   3   6  -4   90.79    5.80
  -3  -6   4   85.59    6.00
  -3  -6   4   83.89    6.10
  -3  -6   4   96.39    6.10
  -3  -6   4   90.89    5.80
   2   6  -4    1.20    0.50
   2   6  -4    1.90    0.60
  -2  -6   4    2.00    1.10
  -2  -6   4    2.00    0.60
  -2  -6   4    2.20    0.90
  -2  -6   4    2.00    1.20
   1   6  -4    6.10    1.00
   1   6  -4    4.60    3.00
   1   6  -4    6.80    0.90
  -1  -6   4    7.00    1.30
  -1  -6   4    6.80    0.90
  -1  -6   4    7.10    1.20
  -1  -6   4    5.40    1.40
  -1  -6   4    6.70    1.10
   0   6  -4  374.06   22.80
   0   6  -4  341.17   22.70
   0   6  -4  338.67   23.40
   0   6  -4  387.66   22.70
   0  -6   4  361.96   22.90
   0  -6   4  403.76   22.80
   0  -6   4  383.06   22.90
   0  -6   4  386.36   22.80
  -1   6  -4    1.40    0.80
  -1   6  -4    0.90    0.50
  -1   6  -4    0.50    0.60
   1  -6   4    0.70    0.70
   1  -6   4    0.80    0.40
  -2   6  -4   53.49    3.60
  -2   6  -4   56.79    3.60
  -2   6  -4   54.29    3.70
  -3   6  -4   26.60    1.80
   3  -6   4   26.40    1.80
   3  -6   4   27.40    2.00
   3  -6   4   21.10    1.90
  -4   6  -4   21.10    2.70
  -4   6  -4   18.10    1.30
   4  -6   4   17.20    1.30
   4  -6   4   17.80    1.40
   4  -6   4   16.10    1.40
   6   5  -4   30.30    1.90
  -6  -5   4   27.40    2.10
   5   5  -4    0.90    0.50
   5   5  -4    1.20    1.20
   5   5  -4    0.80    0.60
  -5  -5   4    0.60    0.70
  -5  -5   4    0.30    1.00
  -5  -5   4    0.30    0.80
   4   5  -4    0.90    0.50
   4   5  -4    0.20    0.50
   4   5  -4    2.80    1.50
  -4  -5   4   -0.20    1.00
   3   5  -4   75.69    4.40
   3   5  -4   62.89    6.10
  -3  -5   4   76.39    4.70
  -3  -5   4   63.59    6.00
  -3  -5   4   70.69    4.60
  -3  -5   4   71.99    4.80
  -3  -5   4   62.39    4.60
   2   5  -4    2.80    0.60
   2   5  -4    4.10    2.40
   2   5  -4    2.00    0.50
  -2  -5   4    3.90    0.90
  -2  -5   4    1.60    0.70
  -2  -5   4    2.40    1.20
  -2  -5   4    3.40    3.30
  -2  -5   4    3.80    0.90
  -2  -5   4    2.30    1.10
   1   5  -4   89.19    5.20
   1   5  -4   79.49    5.10
  -1  -5   4   82.79    5.30
  -1  -5   4   83.99    5.30
  -1  -5   4   72.69    5.60
  -1  -5   4   83.09    5.40
  -1  -5   4   84.09    5.40
   0   5  -4    0.60    0.70
   0   5  -4    0.70    0.50
   0   5  -4    1.10    0.50
   0  -5   4    1.40    1.60
   0  -5   4   -0.10    0.50
   0  -5   4    0.50    0.60
   0  -5   4   -0.70    1.10
   0  -5   4    1.20    0.80
  -1   5  -4  476.35   27.60
  -1   5  -4  437.76   27.60
   1  -5   4  440.56   27.70
   1  -5   4  459.55   27.60
   1  -5   4  441.16   27.60
   1  -5   4  454.45   27.70
  -2   5  -4    5.80    0.90
  -2   5  -4    3.10    3.00
  -2   5  -4    6.40    1.10
  -2   5  -4    7.30    1.60
   2  -5   4    6.70    0.90
   2  -5   4    4.70    1.00
   2  -5   4    8.80    0.90
  -3   5  -4    4.10    0.70
  -3   5  -4    3.60    0.80
  -3   5  -4    3.70    0.90
  -3   5  -4    4.40    0.80
  -3   5  -4    0.70    2.50
  -3   5  -4    5.10    0.90
   3  -5   4    5.70    0.90
   3  -5   4    3.40    0.70
   3  -5   4    5.20    0.90
  -4   5  -4    1.10    0.70
  -4   5  -4    0.80    0.80
  -4   5  -4    1.50    0.60
  -4   5  -4    1.90    1.20
   4  -5   4    1.40    0.60
   4  -5   4    1.20    0.50
   4  -5   4    0.90    0.80
  -5   5  -4  117.69    6.60
  -5   5  -4  104.29    6.50
   5  -5   4   97.59    6.50
   5  -5   4  110.59    6.60
   5  -5   4   93.29    6.60
   6   4  -4  122.89    8.30
   6   4  -4  138.49    8.40
   6   4  -4  137.99    8.30
  -6  -4   4  148.49    8.50
  -6  -4   4  124.69    8.40
   5   4  -4  238.68   14.30
   5   4  -4  258.47   14.40
   5   4  -4  235.28   14.30
  -5  -4   4  211.78   14.40
  -5  -4   4  216.58   14.40
   4   4  -4   38.80    2.50
   4   4  -4   27.40    5.60
   4   4  -4   34.70    2.60
  -4  -4   4   36.40    2.90
  -4  -4   4   33.00    2.90
  -4  -4   4   37.30    2.50
  -4  -4   4   26.50    4.80
  -4  -4   4   38.30    2.80
  -4  -4   4   39.50    2.70
   3   4  -4  183.48   11.60
   3   4  -4  201.78   11.70
   3   4  -4  181.68   11.80
  -3  -4   4  197.28   11.80
  -3  -4   4  199.68   11.90
  -3  -4   4  175.98   11.80
  -3  -4   4  184.28   11.70
  -3  -4   4  189.18   11.80
   2   4  -4    0.70    0.40
   2   4  -4    1.50    1.30
  -2  -4   4    0.10    1.20
  -2  -4   4    0.60    0.70
  -2  -4   4    0.60    0.70
  -2  -4   4    0.80    1.90
  -2  -4   4    0.70    0.60
  -2  -4   4    0.80    1.00
   1   4  -4    0.00    1.20
   1   4  -4    1.40    0.40
   1   4  -4    1.10    0.40
  -1  -4   4   -0.90    1.30
  -1  -4   4    1.70    0.80
  -1  -4   4    1.60    1.20
  -1  -4   4    0.60    0.60
  -1  -4   4    2.00    1.50
  -1  -4   4    0.50    1.10
   0   4  -4  102.49    6.20
   0   4  -4   97.09    6.70
   0   4  -4  106.59    6.20
   0  -4   4   90.99    6.70
   0  -4   4  103.39    6.60
   0  -4   4  101.09    6.30
  -1   4  -4   82.49    4.90
  -1   4  -4   75.69    5.40
  -1   4  -4   78.79    4.90
  -1   4  -4   79.79    4.80
   1  -4   4   74.29    4.90
   1  -4   4   73.19    4.90
   1  -4   4   74.09    5.10
  -2   4  -4   10.70    1.30
  -2   4  -4   10.30    2.10
  -2   4  -4    8.80    1.10
  -2   4  -4    8.90    1.10
  -2   4  -4    9.30    1.00
   2  -4   4    9.50    1.10
   2  -4   4   10.10    1.40
   2  -4   4    9.10    1.20
   2  -4   4    9.10    1.50
  -3   4  -4  284.27   18.00
  -3   4  -4  275.77   18.00
  -3   4  -4  299.77   18.00
  -3   4  -4  269.97   17.90
  -3   4  -4  312.57   18.00
  -3   4  -4  278.57   17.90
   3  -4   4  295.07   17.90
   3  -4   4  308.97   18.00
   3  -4   4  308.67   18.00
  -4   4  -4    0.20    0.80
  -4   4  -4    1.00    0.70
  -4   4  -4    0.90    0.60
  -4   4  -4   -0.60    0.80
   4  -4   4    0.60    0.50
   4  -4   4   -0.10    0.60
   4  -4   4   -0.10    0.40
  -5   4  -4   26.30    2.30
  -5   4  -4   27.20    2.10
  -5   4  -4   27.50    2.00
   5  -4   4   30.90    2.20
   5  -4   4   28.30    2.30
   5  -4   4   28.30    2.00
  -6   4  -4    4.10    0.60
  -6   4  -4    1.40    0.50
   6  -4   4    2.70    0.90
   6  -4   4    2.50    0.60
   7   3  -4   85.09    5.00
   7   3  -4   67.99    5.00
  -7  -3   4   82.19    5.00
  -7  -3   4   81.89    5.00
   6   3  -4    0.20    0.60
   6   3  -4   -0.40    0.90
   6   3  -4    0.90    0.70
  -6  -3   4    0.40    0.60
  -6  -3   4    1.00    0.50
  -6  -3   4    0.20    0.90
   5   3  -4    3.40    0.90
   5   3  -4    0.60    3.10
   5   3  -4    1.70    0.70
  -5  -3   4    1.90    0.60
  -5  -3   4    0.80    1.30
  -5  -3   4    5.40    3.60
  -5  -3   4    1.50    0.80
  -5  -3   4    3.60    1.10
   4   3  -4  156.18    9.00
   4   3  -4  137.69    8.90
  -4  -3   4  148.89    9.10
  -4  -3   4  147.89    9.10
  -4  -3   4  125.29    9.10
  -4  -3   4  145.39    9.00
  -4  -3   4  135.69    9.70
  -4  -3   4  150.48    9.10
  -4  -3   4  145.69    9.10
   3   3  -4  113.49    6.80
   3   3  -4  103.89    7.20
  -3  -3   4  112.79    7.00
  -3  -3   4  112.19    7.00
  -3  -3   4  107.19    7.50
  -3  -3   4  103.59    6.80
  -3  -3   4  113.09    6.90
  -3  -3   4  107.59    6.80
  -3  -3   4   95.89    7.00
   2   3  -4  330.27   21.80
   2   3  -4  386.46   21.70
   2   3  -4  356.56   21.70
   2   3  -4  365.36   22.00
  -2  -3   4  360.46   21.80
  -2  -3   4  364.46   21.80
  -2  -3   4  343.97   21.70
  -2  -3   4  353.16   21.80
  -2  -3   4  368.66   22.00
  -2  -3   4  322.17   21.90
   1   3  -4  122.39    9.00
   1   3  -4  159.58    9.20
   1   3  -4  164.08    8.80
   1   3  -4  149.29    8.80
   1   3  -4  141.39    9.40
  -1  -3   4  161.58    9.20
  -1  -3   4  142.79    8.90
  -1  -3   4  137.19    9.00
  -1  -3   4  140.39    8.90
  -1  -3   4  128.79    9.20
  -1  -3   4  142.49    8.90
  -1  -3   4  133.29    9.60
  -1  -3   4  139.09    9.20
   0   3  -4  222.78   12.60
   0   3  -4  172.98   13.00
   0   3  -4  207.88   12.20
   0   3  -4  190.58   12.70
   0   3  -4  220.78   12.20
   0  -3   4  198.18   12.60
   0  -3   4  189.18   12.30
   0  -3   4  180.88   12.80
   0  -3   4  187.68   12.30
   0  -3   4  218.78   12.50
   0  -3   4  201.58   12.30
  -1   3  -4  175.18    9.80
  -1   3  -4  171.28    9.90
  -1   3  -4  168.98   10.10
  -1   3  -4  151.78   10.60
  -1   3  -4  165.68    9.90
  -1   3  -4  169.28    9.80
  -1   3  -4  151.88   10.40
   1  -3   4  145.59    9.90
   1  -3   4  147.99   10.50
   1  -3   4  154.48   10.60
   1  -3   4  153.78    9.80
   1  -3   4  160.48   10.10
   1  -3   4  153.78    9.80
   1  -3   4  145.69    9.90
   1  -3   4  170.58   10.00
  -2   3  -4    5.90    1.10
  -2   3  -4    5.30    0.80
  -2   3  -4    5.60    0.80
  -2   3  -4    6.70    1.10
  -2   3  -4    6.70    0.90
  -2   3  -4    5.20    1.10
   2  -3   4    5.40    0.80
   2  -3   4    4.00    1.20
   2  -3   4    3.30    2.60
   2  -3   4    5.50    0.90
   2  -3   4    5.70    0.90
   2  -3   4    5.00    1.00
   2  -3   4    5.50    0.90
   2  -3   4    6.90    1.30
  -3   3  -4  409.56   24.00
  -3   3  -4  373.06   23.80
  -3   3  -4  346.47   24.00
  -3   3  -4  423.26   23.90
  -3   3  -4  358.76   23.80
  -3   3  -4  433.36   24.00
   3  -3   4  357.26   24.00
   3  -3   4  390.76   23.80
   3  -3   4  421.46   23.90
  -4   3  -4    4.10    0.90
  -4   3  -4    4.50    0.70
  -4   3  -4    4.00    0.80
  -4   3  -4    5.70    1.00
   4  -3   4    4.80    0.90
   4  -3   4    5.10    0.70
   4  -3   4    4.40    1.00
   4  -3   4    4.30    0.60
  -5   3  -4  461.35   27.30
  -5   3  -4  424.46   27.30
  -5   3  -4  466.35   27.30
  -5   3  -4  482.85   27.30
   5  -3   4  384.06   27.70
   5  -3   4  476.75   27.30
   5  -3   4  437.36   27.20
   5  -3   4  417.76   27.20
   5  -3   4  456.55   27.30
  -6   3  -4    4.40    0.70
  -6   3  -4    2.50    0.80
  -6   3  -4    3.80    0.90
  -6   3  -4    5.30    1.40
   6  -3   4    4.80    1.00
   6  -3   4    3.60    0.60
  -7   3  -4   28.90    1.80
  -7   3  -4   24.20    1.80
   7  -3   4   25.30    1.80
   7  -3   4   27.40    1.90
   7   2  -4   95.09    6.60
   7   2  -4  119.79    6.60
  -7  -2   4   91.59    6.60
  -7  -2   4  114.99    6.50
  -7  -2   4  105.19    6.60
   6   2  -4   36.60    3.30
   6   2  -4   40.50    2.90
  -6  -2   4   46.40    3.00
  -6  -2   4   49.70    3.10
   5   2  -4    2.40    2.30
   5   2  -4    1.60    0.70
   5   2  -4    0.80    0.70
  -5  -2   4    2.70    2.20
  -5  -2   4    1.20    0.70
  -5  -2   4    1.50    0.80
  -5  -2   4    3.40    3.90
  -5  -2   4    1.20    0.90
   4   2  -4   67.79    4.30
   4   2  -4   62.09    4.80
   4   2  -4   65.49    4.30
   4   2  -4   60.89    4.90
  -4  -2   4   67.59    4.40
  -4  -2   4   64.89    5.00
  -4  -2   4   66.89    4.30
  -4  -2   4   68.99    4.40
  -4  -2   4   65.09    5.20
  -4  -2   4   69.99    4.50
   3   2  -4    3.80    1.40
   3   2  -4    1.00    0.60
   3   2  -4    1.20    0.50
  -3  -2   4    2.50    0.80
  -3  -2   4    0.90    1.40
  -3  -2   4    3.30    1.00
  -3  -2   4    1.30    0.60
  -3  -2   4    2.60    0.70
   2   2  -4 1598.44  105.09
   2   2  -4 1776.42  104.79
   2   2  -4 1805.42  104.79
   2   2  -4 1849.81  104.99
  -2  -2   4 1739.43  104.89
  -2  -2   4 1639.84  104.79
  -2  -2   4 1772.32  105.09
  -2  -2   4 1714.13  104.79
  -2  -2   4 1633.24  105.09
   1   2  -4  578.14   36.40
   1   2  -4  616.54   36.40
   1   2  -4  608.94   36.00
   1   2  -4  635.44   36.30
   1   2  -4  626.74   36.00
   1   2  -4  565.94   36.60
  -1  -2   4  622.04   36.30
  -1  -2   4  536.45   36.10
  -1  -2   4  515.85   36.10
  -1  -2   4  619.24   36.50
   0   2  -4  437.96   28.50
   0   2  -4  443.86   28.40
   0   2  -4  480.65   28.30
   0   2  -4  484.15   28.00
   0   2  -4  470.65   28.40
   0   2  -4  470.95   28.10
   0  -2   4  436.86   28.00
  -1   2  -4  199.08   12.50
  -1   2  -4  207.98   12.10
  -1   2  -4  202.28   12.60
  -1   2  -4  196.58   12.10
  -1   2  -4  198.58   12.00
  -1   2  -4  174.98   12.50
   1  -2   4  210.08   12.30
   1  -2   4  206.48   12.70
   1  -2   4  185.98   12.40
   1  -2   4  191.78   12.10
   1  -2   4  187.88   12.60
  -2   2  -4  313.97   19.90
  -2   2  -4  343.07   19.50
  -2   2  -4  326.67   19.60
  -2   2  -4  337.67   19.70
  -2   2  -4  281.47   19.60
  -2   2  -4  311.07   19.50
   2  -2   4  303.07   19.90
   2  -2   4  342.57   19.70
   2  -2   4  328.67   19.50
   2  -2   4  323.27   19.50
   2  -2   4  309.87   20.00
   2  -2   4  309.47   19.50
  -3   2  -4  565.64   32.80
  -3   2  -4  481.15   32.70
  -3   2  -4  567.64   32.70
  -3   2  -4  485.85   33.20
  -3   2  -4  585.14   32.80
  -3   2  -4  552.74   32.70
  -3   2  -4  515.85   32.80
  -3   2  -4  542.95   32.70
   3  -2   4  583.94   32.70
   3  -2   4  574.84   32.60
   3  -2   4  573.84   32.90
   3  -2   4  479.05   33.10
   3  -2   4  560.44   32.70
   3  -2   4  525.75   32.90
   3  -2   4  493.65   32.80
   3  -2   4  536.55   32.70
   3  -2   4  486.95   33.40
  -4   2  -4    5.10    0.90
  -4   2  -4    7.10    0.90
  -4   2  -4    6.50    0.90
  -4   2  -4    5.20    1.00
   4  -2   4    5.70    0.80
   4  -2   4    5.70    0.90
   4  -2   4    4.40    1.30
   4  -2   4    6.30    0.90
   4  -2   4    4.30    1.20
   4  -2   4    3.80    0.80
   4  -2   4    5.40    1.10
  -5   2  -4  143.49    8.80
  -5   2  -4  143.59    8.90
  -5   2  -4  145.29    8.80
  -5   2  -4  142.39    8.80
  -5   2  -4  137.89    8.80
   5  -2   4  143.59    8.70
   5  -2   4  124.09    9.00
   5  -2   4  151.78    8.80
   5  -2   4  128.49    9.20
   5  -2   4  130.59    9.30
   5  -2   4  149.99    8.80
  -6   2  -4  158.38   12.00
  -6   2  -4  197.28   11.40
  -6   2  -4  188.38   11.30
  -6   2  -4  192.38   11.40
  -6   2  -4  172.78   11.40
   6  -2   4  168.88   11.30
   6  -2   4  196.78   11.30
   6  -2   4  181.08   11.30
  -7   2  -4   48.80    3.40
  -7   2  -4   54.19    3.50
  -7   2  -4   50.49    3.40
   7  -2   4   55.99    3.70
   7  -2   4   51.09    3.40
   7   1  -4   93.29    5.90
   6   1  -4    6.20    0.70
   6   1  -4    5.30    1.40
   6   1  -4    6.50    1.10
  -6  -1   4    7.30    1.00
  -6  -1   4    6.80    1.20
   5   1  -4  260.97   15.80
   5   1  -4  225.88   16.20
  -5  -1   4  248.28   15.90
  -5  -1   4  282.47   16.00
  -5  -1   4  267.67   15.90
   4   1  -4    4.80    0.90
   4   1  -4    5.40    1.40
   4   1  -4    3.40    1.50
   4   1  -4    4.00    1.60
   4   1  -4    5.60    0.80
  -4  -1   4    4.00    0.90
  -4  -1   4    5.40    1.70
  -4  -1   4    5.50    1.00
  -4  -1   4    4.90    0.80
  -4  -1   4    7.90    1.30
   3   1  -4  315.77   21.30
   3   1  -4  335.27   21.10
   3   1  -4  366.06   21.40
   3   1  -4  341.07   21.10
   3   1  -4  356.06   21.20
   3   1  -4  356.96   21.30
  -3  -1   4  374.36   21.30
  -3  -1   4  343.47   21.20
  -3  -1   4  355.86   21.20
  -3  -1   4  354.86   21.20
  -3  -1   4  305.07   21.80
   2   1  -4  527.45   31.50
   2   1  -4  577.54   31.80
   2   1  -4  517.35   31.90
  -2  -1   4  492.35   31.60
  -2  -1   4  513.65   31.80
  -2  -1   4  493.85   31.50
  -2  -1   4  490.25   31.60
  -2  -1   4  495.55   31.60
  -2  -1   4  552.84   31.80
   1   1  -4   18.10    1.40
   1   1  -4   16.00    1.20
   1   1  -4   16.00    2.20
   1   1  -4   12.70    1.90
   1   1  -4   15.70    1.20
   1   1  -4   16.60    1.80
  -1  -1   4   16.20    1.50
  -1  -1   4   14.40    1.20
  -1  -1   4   15.10    1.90
  -1  -1   4   13.70    1.10
   0   1  -4  131.79    8.60
   0   1  -4  135.79    8.80
   0   1  -4  136.69    8.60
   0   1  -4  135.29    8.50
   0   1  -4  133.99    8.40
   0   1  -4  137.39    8.40
   0  -1   4  127.69    8.60
   0  -1   4  146.09    8.60
   0  -1   4  142.99    8.60
   0  -1   4  139.59    8.90
  -1   1  -4  100.59    6.60
  -1   1  -4  107.49    6.80
  -1   1  -4  108.19    6.70
  -1   1  -4  101.89    6.80
  -1   1  -4   97.99    6.60
  -1   1  -4  103.29    7.00
   1  -1   4  105.79    7.10
   1  -1   4  117.29    6.80
   1  -1   4  115.79    6.80
   1  -1   4  107.99    6.90
  -2   1  -4   33.40    2.60
  -2   1  -4   30.90    2.90
  -2   1  -4   36.30    2.40
  -2   1  -4   35.00    2.20
  -2   1  -4   30.20    3.10
   2  -1   4   34.30    2.20
   2  -1   4   32.80    3.10
   2  -1   4   35.00    3.00
   2  -1   4   35.70    2.20
   2  -1   4   32.40    2.40
   2  -1   4   39.90    2.60
  -3   1  -4    6.30    1.00
  -3   1  -4    6.30    0.60
  -3   1  -4    5.50    0.90
  -3   1  -4    6.10    1.10
  -3   1  -4    7.30    1.10
  -3   1  -4    6.60    1.10
   3  -1   4    4.90    0.80
   3  -1   4    5.90    1.00
   3  -1   4    7.40    2.70
   3  -1   4    5.60    1.10
   3  -1   4    5.00    0.80
   3  -1   4    4.50    2.20
   3  -1   4    5.10    1.20
  -4   1  -4  849.72   49.50
  -4   1  -4  853.01   49.50
  -4   1  -4  811.02   49.50
  -4   1  -4  860.81   49.50
  -4   1  -4  823.82   49.50
  -4   1  -4  814.32   49.50
  -4   1  -4  705.73   49.50
  -4   1  -4  800.32   49.50
   4  -1   4  790.02   49.70
   4  -1   4  846.22   49.50
   4  -1   4  856.11   49.70
   4  -1   4  830.22   49.50
   4  -1   4  718.53   49.40
   4  -1   4  825.32   49.40
  -5   1  -4   17.00    1.80
  -5   1  -4   15.70    1.40
  -5   1  -4   15.00    1.50
  -5   1  -4   15.30    1.40
  -5   1  -4   15.50    1.70
  -5   1  -4   14.90    1.40
   5  -1   4   17.40    2.40
   5  -1   4   17.40    1.30
   5  -1   4   14.30    1.90
   5  -1   4   14.80    1.30
   5  -1   4   15.40    1.40
  -6   1  -4   39.00    2.80
  -6   1  -4   40.70    2.90
  -6   1  -4   41.90    2.90
  -6   1  -4   35.50    3.70
  -6   1  -4   41.70    2.80
   6  -1   4   32.20    3.30
   6  -1   4   39.60    2.70
   6  -1   4   39.80    2.80
   6  -1   4   34.30    4.30
   6  -1   4   36.30    2.70
  -7   1  -4   66.99    4.50
  -7   1  -4   67.19    4.40
  -7   1  -4   68.99    4.50
   7  -1   4   71.59    4.40
   7  -1   4   68.59    4.50
  -8   1  -4    5.60    0.70
  -8   1  -4    5.00    0.90
   8  -1   4    4.70    0.60
   8  -1   4    3.80    0.90
   6   0  -4   13.30    1.20
   6   0  -4   14.20    1.40
   6   0  -4   11.90    1.80
  -6   0   4   16.20    1.40
  -6   0   4   16.40    1.40
   5   0  -4   14.60    1.70
   5   0  -4   20.40    1.60
   5   0  -4   15.60    1.70
  -5   0   4   19.10    1.60
  -5   0   4   19.70    1.80
  -5   0   4   15.50    1.90
  -5   0   4   15.90    1.90
   4   0  -4   18.10    1.50
   4   0  -4   18.80    2.10
   4   0  -4   16.40    1.60
   4   0  -4   17.60    2.00
  -4   0   4   17.60    1.80
  -4   0   4   18.00    1.80
  -4   0   4   18.50    1.70
  -4   0   4   18.90    1.90
   3   0  -4   33.50    2.30
   3   0  -4   34.10    2.40
   3   0  -4   34.00    2.30
   3   0  -4   36.00    2.70
   3   0  -4   36.10    2.50
   3   0  -4   35.00    2.60
  -3   0   4   34.70    2.50
  -3   0   4   30.80    2.30
  -3   0   4   29.30    4.50
  -3   0   4   32.70    2.50
  -3   0   4   31.10    2.50
  -3   0   4   30.00    2.60
  -3   0   4   35.80    2.60
   2   0  -4   14.50    1.40
   2   0  -4   14.40    1.20
   2   0  -4   16.00    1.80
   2   0  -4   15.50    1.60
   2   0  -4   16.20    1.30
   2   0  -4   12.90    2.10
   2   0  -4   13.80    1.50
  -2   0   4   15.50    2.00
  -2   0   4   13.80    1.80
  -2   0   4   16.20    1.60
  -2   0   4   14.50    1.20
  -2   0   4   16.30    1.40
  -2   0   4   14.40    1.20
  -2   0   4   13.90    1.60
   1   0  -4  127.79    7.90
   1   0  -4  132.09    8.10
   1   0  -4  131.99    8.50
   1   0  -4  131.99    8.20
   1   0  -4  123.59    8.20
  -1   0   4  125.39    8.20
  -1   0   4  126.19    8.20
  -1   0   4  137.79    8.10
  -1   0   4  129.69    7.90
  -1   0   4  119.09    7.90
   0   0  -4  246.48   14.30
   0   0  -4  233.38   14.40
   0   0  -4  236.68   14.30
   0   0  -4  208.08   14.20
   0   0   4  237.28   14.30
   0   0   4  235.58   14.40
   0   0   4  228.68   14.40
  -1   0  -4  108.09    6.80
  -1   0  -4  112.79    6.70
  -1   0  -4  109.39    6.70
   1   0   4  109.19    7.20
   1   0   4  109.19    6.70
   1   0   4   95.29    6.80
   1   0   4   95.59    6.60
   1   0   4  111.39    6.80
  -2   0  -4  179.38   11.60
  -2   0  -4  200.68   11.60
  -2   0  -4  183.58   11.50
  -2   0  -4  176.58   11.60
  -2   0  -4  172.78   12.00
   2   0   4  180.88   11.90
   2   0   4  184.58   11.40
   2   0   4  186.28   11.60
   2   0   4  210.68   11.50
  -3   0  -4  115.09    6.90
  -3   0  -4  104.09    6.80
  -3   0  -4   98.29    6.90
  -3   0  -4  116.69    6.70
   3   0   4  102.29    7.30
   3   0   4  108.69    6.60
   3   0   4  117.89    6.90
   3   0   4  107.29    6.80
   3   0   4  101.29    6.60
   3   0   4  103.29    7.30
   3   0   4  103.09    6.80
  -4   0  -4    6.10    1.10
  -4   0  -4    6.30    1.00
  -4   0  -4    5.90    0.80
  -4   0  -4    7.50    1.50
  -4   0  -4    6.00    1.10
  -4   0  -4    6.10    0.90
  -4   0  -4    5.20    0.90
  -4   0  -4    6.20    1.20
   4   0   4    6.40    0.70
   4   0   4    5.50    0.80
   4   0   4    6.20    1.40
  -5   0  -4   20.90    1.80
  -5   0  -4   21.90    2.20
  -5   0  -4   20.10    1.70
  -5   0  -4   19.40    1.60
  -5   0  -4   20.30    1.70
   5   0   4   20.30    1.60
   5   0   4   17.30    2.20
   5   0   4   21.00    1.50
   5   0   4   18.90    1.60
  -6   0  -4   35.00    3.40
  -6   0  -4   35.80    2.70
  -6   0  -4   36.30    2.70
  -6   0  -4   35.00    2.50
  -6   0  -4   32.40    2.80
  -6   0  -4   33.70    2.60
   6   0   4   36.30    2.50
   6   0   4   37.90    2.60
   6   0   4   37.10    2.50
   6   0   4   30.90    3.70
  -7   0  -4  134.69    8.40
  -7   0  -4  124.19    8.30
   7   0   4  127.89    8.20
   7   0   4  139.19    8.20
   7   0   4  131.89    8.20
  -8   0  -4    0.10    0.70
  -8   0  -4    0.20    0.70
  -8   0  -4    0.80    0.80
   8   0   4    0.50    1.00
   8   0   4    1.00    1.40
   6  -1  -4   17.40    2.00
   6  -1  -4   17.40    1.30
   6  -1  -4   13.70    1.40
  -6   1   4   16.10    1.80
  -6   1   4   17.20    1.60
   5  -1  -4   30.80    2.60
   5  -1  -4   29.50    2.10
  -5   1   4   32.30    2.60
  -5   1   4   29.00    2.50
  -5   1   4   33.40    2.50
  -5   1   4   29.10    2.50
   4  -1  -4    8.60    1.50
   4  -1  -4    9.30    1.20
   4  -1  -4    9.60    1.20
   4  -1  -4    9.20    2.20
  -4   1   4   10.30    1.30
  -4   1   4    8.90    1.50
  -4   1   4    9.00    1.50
  -4   1   4    9.00    1.50
  -4   1   4    8.20    1.30
   3  -1  -4   87.89    5.40
   3  -1  -4   79.59    5.40
   3  -1  -4   76.89    5.50
   3  -1  -4   77.99    5.50
   3  -1  -4   87.69    5.60
   3  -1  -4   81.79    5.50
  -3   1   4   81.69    5.60
  -3   1   4   98.89    5.70
  -3   1   4   91.79    5.40
  -3   1   4   88.49    5.40
  -3   1   4   90.69    5.60
   2  -1  -4  661.23   44.60
   2  -1  -4  765.52   44.60
   2  -1  -4  712.23   44.60
   2  -1  -4  778.42   44.60
   2  -1  -4  625.64   44.60
   2  -1  -4  742.63   44.90
  -2   1   4  793.12   44.80
  -2   1   4  721.53   44.80
  -2   1   4  707.53   44.70
  -2   1   4  792.32   44.70
  -2   1   4  772.52   44.60
  -2   1   4  720.03   44.60
  -2   1   4  739.23   44.90
   1  -1  -4  222.28   13.10
   1  -1  -4  222.98   13.30
   1  -1  -4  213.58   13.30
   1  -1  -4  210.48   13.60
  -1   1   4  217.58   13.30
  -1   1   4  217.38   13.10
  -1   1   4  202.08   13.50
  -1   1   4  201.68   13.10
   0  -1  -4    8.00    1.20
   0  -1  -4    7.90    0.90
   0  -1  -4    6.20    1.20
   0   1   4    7.80    1.00
   0   1   4    7.30    1.00
   0   1   4    8.40    0.90
   0   1   4    8.30    1.20
  -1  -1  -4  366.96   22.20
  -1  -1  -4  377.06   22.20
  -1  -1  -4  344.27   22.20
   1   1   4  368.26   22.20
   1   1   4  357.46   22.20
   1   1   4  372.26   22.20
   1   1   4  351.96   22.50
  -2  -1  -4    8.50    1.20
  -2  -1  -4   13.10    1.90
   2   1   4    7.00    0.70
   2   1   4    9.20    1.70
   2   1   4   10.60    1.00
   2   1   4    8.10    1.30
   2   1   4    8.40    1.00
  -3  -1  -4   54.79    3.50
  -3  -1  -4   45.30    3.40
  -3  -1  -4   47.60    3.70
   3   1   4   51.09    4.00
   3   1   4   56.39    3.40
   3   1   4   52.49    3.70
   3   1   4   50.69    3.10
   3   1   4   49.90    3.30
   3   1   4   42.40    3.20
  -4  -1  -4  443.56   26.10
  -4  -1  -4  427.16   26.20
  -4  -1  -4  428.56   26.30
  -4  -1  -4  391.26   26.10
  -4  -1  -4  406.06   26.20
  -4  -1  -4  398.76   26.10
  -4  -1  -4  422.46   26.20
  -4  -1  -4  474.95   26.50
   4   1   4  444.46   26.10
   4   1   4  418.86   26.30
   4   1   4  456.95   26.20
  -5  -1  -4   13.00    1.50
  -5  -1  -4   13.90    1.20
  -5  -1  -4   12.60    2.10
  -5  -1  -4   13.30    1.30
  -5  -1  -4   14.30    1.80
   5   1   4   11.60    2.10
   5   1   4   13.40    1.30
   5   1   4   13.90    1.10
  -6  -1  -4   57.19    4.00
  -6  -1  -4   61.09    3.90
  -6  -1  -4   61.29    4.20
  -6  -1  -4   60.99    4.20
  -6  -1  -4   61.39    4.00
  -6  -1  -4   65.99    4.10
   6   1   4   54.89    4.80
   6   1   4   64.29    4.00
   6   1   4   59.89    4.00
   6   1   4   61.49    4.10
  -7  -1  -4   26.90    2.00
  -7  -1  -4   23.00    2.40
   7   1   4   25.80    2.50
   7   1   4   27.20    2.00
   7   1   4   28.30    2.10
  -8  -1  -4    3.10    0.60
  -8  -1  -4    3.50    0.70
  -8  -1  -4    3.80    0.70
  -8  -1  -4    3.70    0.80
   8   1   4    3.10    0.70
   8   1   4    4.40    0.90
   6  -2  -4   55.09    3.50
   6  -2  -4   51.69    3.70
  -6   2   4   53.69    3.60
  -6   2   4   56.39    3.70
   5  -2  -4    5.30    0.80
   5  -2  -4    6.30    1.30
  -5   2   4    4.60    1.10
  -5   2   4    5.70    1.80
  -5   2   4    6.20    1.30
   4  -2  -4   -0.60    1.20
   4  -2  -4    0.60    0.80
   4  -2  -4    1.40    0.80
   4  -2  -4    0.80    0.50
  -4   2   4   -1.20    1.00
  -4   2   4   -0.70    1.10
  -4   2   4    0.70    0.60
  -4   2   4   -1.60    1.80
  -4   2   4    0.60    0.70
   3  -2  -4  161.88   10.40
   3  -2  -4  173.68   10.50
   3  -2  -4  174.68   10.50
  -3   2   4  177.78   10.60
  -3   2   4  169.58   10.50
  -3   2   4  164.78   10.40
  -3   2   4  159.18   10.60
   2  -2  -4   43.60    3.60
   2  -2  -4   50.69    3.10
   2  -2  -4   46.70    3.20
   2  -2  -4   47.90    3.20
   2  -2  -4   42.00    3.40
   2  -2  -4   47.30    4.70
   2  -2  -4   47.20    3.30
  -2   2   4   44.00    3.30
  -2   2   4   51.19    3.20
  -2   2   4   49.80    3.40
  -2   2   4   52.09    3.10
  -2   2   4   49.40    3.20
  -2   2   4   40.60    3.90
   1  -2  -4  599.54   38.30
   1  -2  -4  590.84   38.80
   1  -2  -4  669.43   38.40
   1  -2  -4  617.84   38.50
   1  -2  -4  562.24   38.30
  -1   2   4  653.13   38.50
  -1   2   4  657.43   38.30
  -1   2   4  697.03   38.40
  -1   2   4  584.54   38.70
  -1   2   4  661.13   38.60
   0  -2  -4   44.10    3.20
   0  -2  -4   41.20    3.40
   0   2   4   47.90    3.00
   0   2   4   41.90    3.50
   0   2   4   45.50    3.00
  -1  -2  -4  309.47   21.40
  -1  -2  -4  357.66   21.50
   1   2   4  358.36   21.40
   1   2   4  347.47   21.50
   1   2   4  358.46   21.70
   1   2   4  367.16   21.50
  -2  -2  -4  103.39    6.60
  -2  -2  -4   95.89    6.50
   2   2   4  105.49    6.40
   2   2   4  108.79    6.60
   2   2   4  107.29    6.90
   2   2   4   98.29    6.50
  -3  -2  -4    4.40    0.90
  -3  -2  -4    4.90    0.90
  -3  -2  -4    3.50    0.60
  -3  -2  -4    3.50    0.70
  -3  -2  -4    3.70    0.80
   3   2   4    3.30    0.70
   3   2   4    3.20    0.40
   3   2   4    3.40    0.70
   3   2   4    5.30    0.90
   3   2   4    3.50    0.90
   3   2   4    7.00    2.30
  -4  -2  -4  234.48   14.00
  -4  -2  -4  228.98   14.00
  -4  -2  -4  219.98   13.90
  -4  -2  -4  227.58   14.10
  -4  -2  -4  199.58   13.90
  -4  -2  -4  246.88   14.30
  -4  -2  -4  206.28   14.00
  -4  -2  -4  237.18   14.00
   4   2   4  225.88   13.80
   4   2   4  239.88   14.00
   4   2   4  228.88   14.00
  -5  -2  -4  159.18    9.50
  -5  -2  -4  147.79    9.30
  -5  -2  -4  130.39    9.30
  -5  -2  -4  150.98    9.40
  -5  -2  -4  157.28    9.40
  -5  -2  -4  157.68    9.80
   5   2   4  157.68    9.20
   5   2   4  146.39    9.30
   5   2   4  146.29    9.50
  -6  -2  -4  169.08   11.50
  -6  -2  -4  183.78   10.80
  -6  -2  -4  181.48   10.90
  -6  -2  -4  176.28   10.80
  -6  -2  -4  158.28   10.80
  -6  -2  -4  167.88   10.70
  -6  -2  -4  175.38   10.80
   6   2   4  163.98   10.80
   6   2   4  173.08   10.70
   6   2   4  178.38   10.70
  -7  -2  -4   87.29    6.20
  -7  -2  -4   99.49    6.10
  -7  -2  -4   88.99    6.20
   7   2   4   98.39    6.00
   7   2   4   98.69    6.10
  -8  -2  -4   19.00    1.50
  -8  -2  -4   17.00    1.50
  -8  -2  -4   17.50    1.50
   8   2   4   18.90    1.40
   8   2   4   15.70    1.60
   6  -3  -4   83.99    5.30
   6  -3  -4   91.39    5.50
  -6   3   4   80.69    5.30
   5  -3  -4   62.99    4.10
   5  -3  -4   64.99    3.90
  -5   3   4   53.69    4.10
  -5   3   4   61.59    4.20
  -5   3   4   59.19    4.10
   4  -3  -4   43.20    3.00
   4  -3  -4   39.80    3.20
   4  -3  -4   49.00    3.00
   4  -3  -4   47.40    3.20
  -4   3   4   43.60    3.50
  -4   3   4   46.90    3.30
  -4   3   4   40.60    3.20
   3  -3  -4  109.29    6.60
   3  -3  -4  105.59    6.70
   3  -3  -4  103.59    6.70
   3  -3  -4  106.89    6.70
  -3   3   4  102.19    6.70
  -3   3   4  106.29    6.70
  -3   3   4   99.39    7.00
  -3   3   4  105.29    6.90
  -3   3   4  108.09    6.70
   2  -3  -4   42.40    2.90
   2  -3  -4   46.50    3.00
   2  -3  -4   42.10    2.90
   2  -3  -4   42.20    3.10
  -2   3   4   43.00    2.90
  -2   3   4   43.30    3.00
  -2   3   4   43.00    2.90
  -2   3   4   47.00    2.90
   1  -3  -4   56.19    3.90
   1  -3  -4   62.99    4.30
   1  -3  -4   59.69    3.90
   1  -3  -4   61.59    3.90
   1  -3  -4   54.89    4.00
   1  -3  -4   65.29    3.90
  -1   3   4   63.39    3.80
  -1   3   4   62.59    4.00
  -1   3   4   54.69    4.60
  -1   3   4   61.19    3.90
   0  -3  -4   70.89    7.10
   0  -3  -4   81.99    5.60
   0  -3  -4   95.79    5.50
   0  -3  -4   90.19    5.60
   0  -3  -4   86.49    5.50
   0  -3  -4   80.49    5.90
   0  -3  -4   90.19    5.60
   0   3   4   92.49    5.50
   0   3   4   93.59    5.60
   0   3   4   83.69    5.50
   0   3   4   92.79    5.60
   0   3   4   93.09    5.80
  -1  -3  -4   36.30    2.90
  -1  -3  -4   38.50    2.60
  -1  -3  -4   31.60    4.00
  -1  -3  -4   37.90    2.60
  -1  -3  -4   35.40    2.70
   1   3   4   44.00    2.80
   1   3   4   38.50    2.40
   1   3   4   40.90    2.60
   1   3   4   35.80    3.00
   1   3   4   39.10    3.30
  -2  -3  -4   18.60    1.60
  -2  -3  -4   19.30    1.70
  -2  -3  -4   22.20    1.80
  -2  -3  -4   19.40    1.80
  -2  -3  -4   19.00    1.60
  -2  -3  -4   19.60    1.80
   2   3   4   21.40    1.40
   2   3   4   18.50    1.40
   2   3   4   20.90    2.50
   2   3   4   21.40    1.80
  -3  -3  -4  325.97   20.10
  -3  -3  -4  322.47   20.40
  -3  -3  -4  297.17   20.20
  -3  -3  -4  328.17   20.00
  -3  -3  -4  302.87   20.00
  -3  -3  -4  333.57   20.10
   3   3   4  338.47   20.70
   3   3   4  374.86   20.20
  -4  -3  -4 1110.59   72.49
  -4  -3  -4 1285.27   72.59
  -4  -3  -4 1218.18   72.89
  -4  -3  -4 1280.27   72.59
  -4  -3  -4 1121.09   72.59
  -4  -3  -4 1104.79   72.49
  -4  -3  -4 1257.77   72.49
   4   3   4 1169.78   72.39
  -5  -3  -4   50.89    3.80
  -5  -3  -4   50.99    4.10
  -5  -3  -4   59.19    3.70
  -5  -3  -4   52.09    3.60
  -5  -3  -4   54.39    3.80
   5   3   4   54.99    3.40
  -6  -3  -4    9.90    1.60
  -6  -3  -4   10.70    1.80
  -6  -3  -4    6.30    2.10
  -6  -3  -4    8.70    1.40
  -6  -3  -4   10.80    1.20
   6   3   4    9.00    1.10
  -7  -3  -4    0.30    0.80
  -7  -3  -4    2.70    1.80
   7   3   4    0.40    0.70
   7   3   4    0.10    0.90
  -8  -3  -4  280.47   16.40
  -8  -3  -4  256.17   16.40
  -8  -3  -4  277.17   16.40
   8   3   4  251.57   16.30
   8   3   4  269.97   16.40
   5  -4  -4   24.50    1.70
   5  -4  -4   27.00    1.80
  -5   4   4   21.90    1.80
  -5   4   4   30.60    3.60
   4  -4  -4   21.00    1.60
   4  -4  -4   17.20    1.50
   4  -4  -4   17.90    1.80
   4  -4  -4   21.10    1.60
  -4   4   4   16.20    1.90
  -4   4   4   17.80    1.70
  -4   4   4   16.60    2.90
  -4   4   4   14.00    2.00
   3  -4  -4    4.00    0.90
   3  -4  -4    4.60    0.70
   3  -4  -4    2.50    0.80
   3  -4  -4    4.40    0.90
  -3   4   4    0.70    1.70
  -3   4   4    5.20    1.10
  -3   4   4    1.80    1.00
  -3   4   4    5.40    1.10
  -3   4   4    5.00    0.80
   2  -4  -4  599.04   38.90
   2  -4  -4  654.03   39.00
   2  -4  -4  656.63   39.00
   2  -4  -4  650.43   38.90
   2  -4  -4  643.24   38.90
  -2   4   4  629.24   39.00
  -2   4   4  644.04   39.00
  -2   4   4  632.94   39.10
   1  -4  -4  731.93   44.00
   1  -4  -4  728.43   44.00
   1  -4  -4  693.43   44.00
   1  -4  -4  728.53   43.90
   1  -4  -4  719.93   44.20
  -1   4   4  685.83   44.00
  -1   4   4  752.62   44.00
  -1   4   4  729.83   44.10
  -1   4   4  728.93   44.00
   0  -4  -4   66.39    4.20
   0  -4  -4   64.39    4.20
   0  -4  -4   63.99    4.60
   0  -4  -4   64.89    4.20
   0  -4  -4   67.99    4.20
   0  -4  -4   59.59    4.20
   0   4   4   67.29    4.30
   0   4   4   67.49    4.10
   0   4   4   62.29    4.20
  -1  -4  -4  449.26   25.80
  -1  -4  -4  420.56   25.70
  -1  -4  -4  436.96   25.80
  -1  -4  -4  357.36   25.70
  -1  -4  -4  413.56   26.00
  -1  -4  -4  439.36   25.80
   1   4   4  438.06   25.70
   1   4   4  465.55   25.90
   1   4   4  379.26   25.70
  -2  -4  -4  171.68   10.00
  -2  -4  -4  155.98   10.10
  -2  -4  -4  171.28   10.00
  -2  -4  -4  152.68   10.30
  -2  -4  -4  151.98   10.00
  -2  -4  -4  167.78    9.90
   2   4   4  156.68    9.90
  -3  -4  -4  205.08   12.00
  -3  -4  -4  194.88   12.00
  -3  -4  -4  194.88   11.90
  -3  -4  -4  167.88   12.20
  -3  -4  -4  200.08   12.00
   3   4   4  198.88   12.10
  -4  -4  -4  130.49    8.10
  -4  -4  -4  137.89    8.20
  -4  -4  -4  129.39    8.20
  -4  -4  -4  122.89    8.10
   4   4   4  130.99    8.40
  -5  -4  -4  143.79    9.50
  -5  -4  -4  155.18    9.50
  -5  -4  -4  152.48    9.50
  -5  -4  -4  151.28    9.40
  -6  -4  -4   94.19    5.70
  -6  -4  -4   83.69    5.70
  -6  -4  -4   90.29    5.80
  -6  -4  -4   94.29    5.80
   6   4   4   88.79    5.50
   6   4   4   78.99    6.30
  -7  -4  -4   86.29    5.30
  -7  -4  -4   85.49    5.40
  -7  -4  -4   82.89    5.30
   7   4   4   75.49    5.30
   7   4   4   80.29    5.20
  -8  -4  -4   50.49    3.10
  -8  -4  -4   42.60    3.10
  -8  -4  -4   47.20    3.00
   8   4   4   45.30    3.30
   4  -5  -4   50.59    3.40
   4  -5  -4   49.90    3.30
   4  -5  -4   52.59    3.40
  -4   5   4   54.29    3.40
   3  -5  -4    0.90    0.80
   3  -5  -4    3.20    0.60
   3  -5  -4    2.50    0.60
   3  -5  -4    2.30    0.60
  -3   5   4    1.00    1.10
  -3   5   4    4.30    1.00
  -3   5   4    2.50    1.10
  -3   5   4    2.80    0.80
   2  -5  -4   13.20    1.50
   2  -5  -4   14.30    1.30
   2  -5  -4   16.00    1.40
   2  -5  -4   14.00    1.70
   2  -5  -4   16.20    1.50
  -2   5   4   13.60    1.90
  -2   5   4   12.80    1.30
  -2   5   4   14.60    1.60
  -2   5   4   13.30    2.30
   1  -5  -4   47.50    3.20
   1  -5  -4   48.60    3.20
   1  -5  -4   45.70    3.20
   1  -5  -4   47.50    3.70
   1  -5  -4   44.10    3.20
  -1   5   4   50.09    3.20
  -1   5   4   48.60    3.20
  -1   5   4   45.30    3.20
  -1   5   4   46.30    3.40
   0  -5  -4  516.15   31.00
   0  -5  -4  518.15   31.00
   0  -5  -4  474.65   30.90
   0  -5  -4  455.15   30.90
   0  -5  -4  524.55   31.20
   0   5   4  503.55   31.10
   0   5   4  522.45   30.90
   0   5   4  515.45   31.00
   0   5   4  535.95   31.00
  -1  -5  -4    8.80    1.00
  -1  -5  -4    7.00    1.50
  -1  -5  -4    9.80    1.20
  -1  -5  -4    8.90    1.10
   1   5   4    8.30    1.40
   1   5   4    8.20    0.90
   1   5   4    9.30    1.10
   1   5   4   10.20    1.50
  -2  -5  -4    0.00    0.60
  -2  -5  -4    0.60    0.80
  -2  -5  -4   -1.80    1.20
  -2  -5  -4    1.00    0.70
   2   5   4    0.80    0.60
   2   5   4   -0.30    1.00
  -3  -5  -4  154.68    9.00
  -3  -5  -4  149.39    9.10
  -3  -5  -4  136.99    9.20
  -3  -5  -4  151.18    9.10
  -3  -5  -4  140.79    9.30
   3   5   4  141.39    9.30
  -4  -5  -4   28.90    2.80
  -4  -5  -4   32.30    2.50
  -4  -5  -4   28.50    2.20
  -4  -5  -4   27.30    3.00
  -4  -5  -4   31.00    2.30
  -5  -5  -4  269.67   16.60
  -5  -5  -4  235.28   16.50
  -5  -5  -4  293.97   16.70
  -5  -5  -4  290.27   16.70
  -5  -5  -4  260.47   16.70
  -6  -5  -4    0.70    0.80
  -6  -5  -4   -1.80    0.90
  -6  -5  -4    0.40    1.20
  -6  -5  -4    0.70    0.80
  -7  -5  -4    6.10    1.00
  -7  -5  -4    8.40    1.00
  -7  -5  -4    6.80    1.10
   3  -6  -4   20.20    1.40
   3  -6  -4   18.20    1.40
   3  -6  -4   16.80    1.50
  -3   6   4   24.50    2.80
  -3   6   4   19.20    1.50
   2  -6  -4  119.69    7.70
   2  -6  -4  130.49    7.70
   2  -6  -4  122.99    7.70
   2  -6  -4  122.29    7.60
  -2   6   4  131.19    7.70
  -2   6   4  109.09    7.70
  -2   6   4  125.09    7.80
   1  -6  -4   63.79    4.00
   1  -6  -4   54.49    3.90
   1  -6  -4   65.59    4.00
   1  -6  -4   64.49    4.50
  -1   6   4   61.29    4.00
  -1   6   4   66.69    4.00
  -1   6   4   56.89    4.10
   0  -6  -4   19.20    1.50
   0  -6  -4   19.30    2.20
   0  -6  -4   18.00    1.80
   0  -6  -4   18.30    1.70
   0   6   4   18.40    2.90
   0   6   4   20.70    1.60
   0   6   4   18.20    1.60
   0   6   4   20.00    1.80
  -1  -6  -4   80.39    4.90
  -1  -6  -4   80.29    5.00
  -1  -6  -4   80.49    5.30
  -1  -6  -4   75.09    5.00
   1   6   4   78.29    4.90
   1   6   4   70.59    5.50
   1   6   4   73.19    5.00
  -2  -6  -4    0.60    0.50
  -2  -6  -4    0.40    0.90
  -2  -6  -4    0.80    1.20
  -2  -6  -4    0.20    0.50
   2   6   4   -0.40    2.10
   2   6   4   -0.60    0.70
   2   6   4   -0.50    0.80
  -3  -6  -4   14.70    2.20
  -3  -6  -4   13.80    1.30
  -3  -6  -4   14.00    1.70
  -3  -6  -4   13.40    1.40
  -4  -6  -4    1.30    1.20
  -4  -6  -4    2.00    0.80
  -4  -6  -4    1.30    0.70
  -4  -6  -4    0.40    1.30
  -4  -6  -4    2.60    1.00
  -4  -6  -4    2.00    1.60
  -5  -6  -4  778.32   46.00
  -5  -6  -4  804.12   46.00
  -5  -6  -4  739.23   46.00
  -5  -6  -4  749.82   45.90
  -5  -6  -4  764.82   45.90
  -5  -6  -4  689.23   45.90
  -6  -6  -4    0.30    1.20
  -6  -6  -4    0.30    0.70
  -6  -6  -4    0.70    0.90
  -7  -6  -4    8.90    1.00
  -7  -6  -4    5.00    1.10
   2  -7  -4   75.69    4.30
  -2   7   4   65.89    4.30
  -2   7   4   63.89    4.30
   1  -7  -4   77.59    5.40
   1  -7  -4   99.49    5.50
  -1   7   4   79.19    5.50
  -1   7   4   96.29    5.50
  -1   7   4   84.39    5.50
   0  -7  -4  294.77   17.70
   0  -7  -4  257.97   17.90
   0  -7  -4  299.57   17.70
   0   7   4  330.47   18.10
   0   7   4  276.67   17.70
   0   7   4  278.87   17.80
  -1  -7  -4    1.60    0.70
  -1  -7  -4    3.00    0.60
  -1  -7  -4    3.10    1.10
   1   7   4    3.50    0.80
   1   7   4    3.50    0.90
  -2  -7  -4   -0.80    0.70
  -2  -7  -4    1.20    0.80
  -2  -7  -4    1.30    0.80
  -3  -7  -4  121.19    7.70
  -3  -7  -4  117.59    7.50
  -3  -7  -4  120.79    7.50
  -4  -7  -4    1.60    0.50
  -4  -7  -4    2.10    0.80
  -4  -7  -4    2.00    0.60
  -5  -7  -4   14.00    2.00
   0  -8  -4   29.90    1.90
   0   8   4   26.60    2.00
  -1  -8  -4   18.90    1.80
  -1  -8  -4   17.70    1.30
  -1  -8  -4   19.00    1.40
   1   8   4   16.20    1.70
  -2  -8  -4   57.99    3.70
  -2  -8  -4   59.79    3.70
  -2  -8  -4   54.99    3.80
  -3  -8  -4    1.30    0.70
  -3  -8  -4    1.50    1.40
  -3  -8  -4    0.80    0.50
  -4  -8  -4   25.20    2.20
   3   7  -5   35.40    2.20
   3   7  -5   31.00    2.10
  -3  -7   5   28.40    2.40
   2   7  -5   78.59    5.10
   2   7  -5   74.99    4.80
  -2  -7   5   74.39    4.90
   1   7  -5   99.99    6.00
   1   7  -5   89.79    6.00
   1   7  -5   95.29    6.00
  -1  -7   5   98.29    6.00
  -1  -7   5   99.49    6.00
   0   7  -5   98.49    5.70
   0   7  -5   75.49    5.70
   0  -7   5   92.99    5.70
   0  -7   5   90.69    5.60
   0  -7   5   93.49    5.60
  -1   7  -5  514.55   31.30
   1  -7   5  505.25   31.30
   1  -7   5  553.34   31.30
   1  -7   5  486.75   31.30
  -2   7  -5   10.70    0.90
   2  -7   5   10.50    1.00
   2  -7   5   10.70    0.80
   2  -7   5    8.60    0.80
   4   6  -5   89.19    5.50
  -4  -6   5   73.89    6.00
  -4  -6   5  100.09    5.70
   3   6  -5   49.80    3.40
   3   6  -5   58.79    3.40
  -3  -6   5   47.10    3.70
  -3  -6   5   56.99    3.60
  -3  -6   5   54.79    3.40
  -3  -6   5   50.99    3.70
   2   6  -5   40.20    2.90
   2   6  -5   47.50    2.90
   2   6  -5   44.00    2.90
  -2  -6   5   40.40    3.00
  -2  -6   5   39.60    3.40
  -2  -6   5   48.30    2.90
  -2  -6   5   45.50    3.00
  -2  -6   5   39.30    3.00
   1   6  -5   -0.30    0.50
   1   6  -5    0.00    0.80
   1   6  -5   -0.20    0.60
  -1  -6   5    0.10    0.70
  -1  -6   5    1.20    1.20
   0   6  -5    1.30    0.90
   0   6  -5    2.50    0.60
   0   6  -5    1.50    0.50
   0  -6   5    3.80    1.20
  -1   6  -5   34.50    2.60
  -1   6  -5   35.40    2.40
   1  -6   5   39.30    2.50
   1  -6   5   32.10    2.80
  -2   6  -5   12.50    1.10
  -2   6  -5   11.60    1.20
  -2   6  -5   11.40    1.20
   2  -6   5   13.10    1.10
   2  -6   5   12.90    1.30
  -3   6  -5  108.29    7.20
   3  -6   5  119.99    7.30
   3  -6   5  120.89    7.20
  -4   6  -5    0.60    0.40
  -4   6  -5    1.50    1.00
   4  -6   5    1.00    0.40
   4  -6   5    0.30    0.30
   4  -6   5    0.20    0.60
   5   5  -5   20.00    1.60
   5   5  -5   17.20    1.50
  -5  -5   5   20.90    1.60
   4   5  -5   77.19    5.00
   4   5  -5   67.79    4.20
  -4  -5   5   68.09    4.40
  -4  -5   5   55.59    4.50
  -4  -5   5   69.69    4.40
  -4  -5   5   63.19    4.30
   3   5  -5   21.60    1.70
  -3  -5   5   22.00    1.90
  -3  -5   5   20.00    1.70
   2   5  -5   72.39    6.50
   2   5  -5   85.49    5.00
  -2  -5   5   86.09    5.20
  -2  -5   5   71.69    5.10
  -2  -5   5   78.99    5.40
  -2  -5   5   79.59    5.30
   1   5  -5   23.30    3.20
   1   5  -5   17.00    1.40
  -1  -5   5   15.30    1.50
  -1  -5   5   17.10    1.60
  -1  -5   5   19.80    2.20
  -1  -5   5   18.20    1.60
   0   5  -5   33.70    2.30
   0   5  -5   27.10    3.80
   0   5  -5   33.40    2.50
   0  -5   5   31.60    2.40
   0  -5   5   33.10    2.50
   0  -5   5   32.80    2.80
   0  -5   5   34.50    2.40
  -1   5  -5   54.49    3.70
  -1   5  -5   54.79    3.60
  -1   5  -5   45.60    5.50
   1  -5   5   55.99    3.80
   1  -5   5   61.09    3.80
   1  -5   5   52.89    3.60
  -2   5  -5   51.39    3.30
  -2   5  -5   51.89    3.40
  -2   5  -5   49.70    3.50
  -2   5  -5   46.90    3.50
   2  -5   5   53.49    3.40
   2  -5   5   49.80    3.30
   2  -5   5   44.10    3.50
  -3   5  -5  129.19    7.90
  -3   5  -5  118.79    8.00
   3  -5   5  131.79    7.90
   3  -5   5  114.39    7.80
   3  -5   5  133.59    7.80
  -4   5  -5    4.80    1.00
  -4   5  -5    6.10    1.10
  -4   5  -5    4.60    0.90
   4  -5   5    5.30    0.90
   4  -5   5    5.30    0.70
   4  -5   5    4.90    0.60
  -5   5  -5   38.70    2.70
   5  -5   5   32.70    2.60
   5  -5   5   43.60    2.80
   5  -5   5   41.20    2.60
   6   4  -5   15.40    1.30
   6   4  -5   17.40    1.50
  -6  -4   5   16.20    1.40
   5   4  -5   17.60    1.70
   5   4  -5   17.70    1.40
   5   4  -5   14.40    1.50
  -5  -4   5   19.40    1.50
  -5  -4   5   13.70    1.50
  -5  -4   5   18.40    1.50
  -5  -4   5   21.20    1.90
   4   4  -5   96.39    5.80
   4   4  -5   81.89    5.80
  -4  -4   5   89.09    6.30
  -4  -4   5   97.89    6.00
  -4  -4   5   96.99    5.90
   3   4  -5    0.00    0.50
   3   4  -5   -0.20    0.80
   3   4  -5    1.00    3.00
  -3  -4   5   -1.10    3.60
  -3  -4   5    2.10    0.80
  -3  -4   5   -0.20    0.60
  -3  -4   5    1.10    1.10
  -3  -4   5   -0.70    1.50
  -3  -4   5    0.50    0.80
   2   4  -5  333.57   20.90
   2   4  -5  387.66   21.70
   2   4  -5  357.66   20.80
  -2  -4   5  316.87   21.00
  -2  -4   5  298.87   20.90
  -2  -4   5  331.07   21.50
  -2  -4   5  361.46   20.90
  -2  -4   5  312.87   20.90
  -2  -4   5  365.46   21.00
   1   4  -5  159.08   11.20
   1   4  -5  193.28   11.10
   1   4  -5  181.78   11.00
   1   4  -5  182.58   11.60
  -1  -4   5  186.78   11.10
  -1  -4   5  178.58   11.20
  -1  -4   5  171.98   11.30
  -1  -4   5  169.78   11.50
  -1  -4   5  180.18   11.80
  -1  -4   5  188.58   11.20
   0   4  -5   11.80    1.20
   0   4  -5   11.30    1.00
   0   4  -5   13.00    2.60
   0  -4   5   11.90    2.70
   0  -4   5    7.70    1.50
   0  -4   5   11.00    1.40
   0  -4   5   11.70    1.20
   0  -4   5    9.70    1.10
  -1   4  -5    3.40    0.70
  -1   4  -5    2.10    1.70
  -1   4  -5    3.60    0.80
  -1   4  -5    2.60    1.20
   1  -4   5    3.40    0.90
   1  -4   5    3.30    0.80
   1  -4   5    3.00    0.60
   1  -4   5    2.20    0.90
   1  -4   5    2.60    1.30
  -2   4  -5  190.58   12.50
  -2   4  -5  208.88   12.40
  -2   4  -5  204.98   12.30
   2  -4   5  183.58   12.40
   2  -4   5  195.98   12.30
   2  -4   5  202.78   12.30
   2  -4   5  211.38   12.40
  -3   4  -5   39.30    3.40
  -3   4  -5   39.50    3.00
  -3   4  -5   36.70    2.90
  -3   4  -5   41.10    2.80
  -3   4  -5   39.70    2.90
   3  -4   5   39.70    2.90
   3  -4   5   40.90    2.80
  -4   4  -5   10.40    1.50
  -4   4  -5   10.40    1.20
  -4   4  -5   10.00    1.10
  -4   4  -5   11.50    1.50
   4  -4   5    9.30    1.50
   4  -4   5   10.50    1.10
   4  -4   5   10.30    1.30
  -5   4  -5    4.10    0.80
  -5   4  -5    5.00    0.90
  -5   4  -5    4.90    0.80
   5  -4   5    3.40    0.70
   5  -4   5    4.60    0.80
   5  -4   5    5.10    0.80
  -6   4  -5  103.79    6.60
  -6   4  -5  109.89    6.80
   6  -4   5  114.39    6.90
   6  -4   5   99.49    6.60
   6   3  -5    1.60    0.60
   6   3  -5    2.70    0.60
  -6  -3   5    1.40    0.80
  -6  -3   5    1.60    0.40
  -6  -3   5    2.20    0.50
   5   3  -5   35.90    2.50
   5   3  -5   34.30    2.50
   5   3  -5   28.50    2.20
  -5  -3   5   36.00    2.60
  -5  -3   5   31.60    2.50
  -5  -3   5   27.90    2.20
  -5  -3   5   30.80    2.30
   4   3  -5   38.00    2.70
   4   3  -5   32.10    4.90
   4   3  -5   36.30    2.70
   4   3  -5   32.70    4.40
   4   3  -5   39.70    2.80
  -4  -3   5   42.10    2.80
  -4  -3   5   40.60    2.90
  -4  -3   5   41.00    2.90
  -4  -3   5   43.40    3.10
   3   3  -5  108.19    7.00
   3   3  -5   99.69    6.80
   3   3  -5  112.29    6.80
  -3  -3   5  114.79    7.10
  -3  -3   5  113.39    6.90
  -3  -3   5  112.29    7.00
  -3  -3   5  104.89    7.90
  -3  -3   5  105.49    6.90
   2   3  -5  110.29    7.30
   2   3  -5  118.29    7.10
   2   3  -5  115.89    7.70
  -2  -3   5  117.29    7.30
  -2  -3   5  108.49    7.60
  -2  -3   5  114.09    7.20
  -2  -3   5  113.39    7.30
  -2  -3   5  117.69    7.20
   1   3  -5    0.20    0.90
   1   3  -5    0.30    0.40
   1   3  -5   -0.30    0.90
   1   3  -5    2.20    1.10
   1   3  -5    0.50    0.50
  -1  -3   5   -0.60    0.70
  -1  -3   5    0.60    0.80
  -1  -3   5    1.60    0.60
   0   3  -5   23.30    2.00
   0   3  -5   24.30    1.70
   0   3  -5   24.00    2.20
   0   3  -5   24.80    1.60
   0   3  -5   20.00    2.20
   0  -3   5   14.90    4.20
   0  -3   5   28.30    4.10
   0  -3   5   20.90    1.60
   0  -3   5   23.50    1.90
   0  -3   5   23.30    2.00
   0  -3   5   22.40    1.90
  -1   3  -5    4.20    0.80
  -1   3  -5    5.30    1.00
  -1   3  -5    4.80    1.20
  -1   3  -5    4.00    0.60
  -1   3  -5    3.30    0.50
  -1   3  -5    4.50    1.50
   1  -3   5    3.60    0.60
   1  -3   5    1.10    1.40
   1  -3   5    4.40    0.90
   1  -3   5    3.70    0.60
   1  -3   5    4.00    0.80
   1  -3   5    2.90    1.00
  -2   3  -5   10.40    2.00
  -2   3  -5   12.90    2.00
  -2   3  -5   10.60    1.30
  -2   3  -5   14.30    1.40
   2  -3   5   11.30    1.20
   2  -3   5   11.70    1.00
   2  -3   5   11.70    1.40
   2  -3   5   11.00    1.70
   2  -3   5   11.00    1.90
  -3   3  -5    4.20    0.70
  -3   3  -5    3.30    0.80
  -3   3  -5    5.00    0.80
  -3   3  -5    4.70    0.80
  -3   3  -5    6.30    1.30
   3  -3   5    4.80    0.80
   3  -3   5    3.40    1.30
   3  -3   5    4.40    0.70
   3  -3   5    3.30    0.60
   3  -3   5    3.50    0.90
   3  -3   5    3.90    1.40
  -4   3  -5  534.25   33.60
  -4   3  -5  572.34   33.60
  -4   3  -5  552.14   33.50
  -4   3  -5  566.34   33.60
   4  -3   5  557.44   33.50
   4  -3   5  533.85   33.40
   4  -3   5  547.15   33.60
   4  -3   5  526.75   33.40
  -5   3  -5    0.10    0.70
  -5   3  -5    0.20    0.90
  -5   3  -5    0.30    2.10
  -5   3  -5    1.50    0.50
   5  -3   5    1.00    1.00
   5  -3   5   -0.30    1.00
   5  -3   5    0.60    0.70
  -6   3  -5   32.00    2.40
  -6   3  -5   35.60    2.40
  -6   3  -5   31.60    2.30
   6  -3   5   33.90    2.40
   6  -3   5   30.90    2.60
  -7   3  -5  185.48   11.30
   7  -3   5  183.08   11.30
   6   2  -5   72.19    4.60
  -6  -2   5   74.69    4.60
  -6  -2   5   61.29    4.60
  -6  -2   5   76.69    4.50
   5   2  -5   59.89    4.10
   5   2  -5   64.59    4.10
  -5  -2   5   64.69    4.20
   4   2  -5   45.50    5.10
   4   2  -5   52.49    3.60
   4   2  -5   47.70    3.40
  -4  -2   5   54.09    3.50
  -4  -2   5   55.59    3.50
  -4  -2   5   52.79    3.50
  -4  -2   5   43.30    4.40
   3   2  -5   56.39    3.60
   3   2  -5   47.70    4.30
   3   2  -5   54.69    4.20
   3   2  -5   58.39    3.80
  -3  -2   5   54.19    3.70
  -3  -2   5   53.79    4.60
  -3  -2   5   55.69    3.70
  -3  -2   5   54.89    3.70
   2   2  -5   17.00    1.90
   2   2  -5   22.00    1.60
   2   2  -5   20.00    2.40
   2   2  -5   21.90    2.20
   2   2  -5   24.00    1.70
  -2  -2   5   22.60    1.80
  -2  -2   5   22.70    1.80
  -2  -2   5   24.10    2.30
  -2  -2   5   21.70    2.00
   1   2  -5  306.27   17.60
   1   2  -5  282.07   17.30
   1   2  -5  234.88   18.10
   1   2  -5  267.37   17.40
   1   2  -5  293.47   17.40
   1   2  -5  292.47   17.30
  -1  -2   5  270.57   18.00
  -1  -2   5  286.27   17.30
  -1  -2   5  287.27   17.40
  -1  -2   5  283.17   17.30
  -1  -2   5  278.07   17.40
  -1  -2   5  303.67   17.70
   0   2  -5  263.47   15.00
   0   2  -5  227.58   15.10
   0   2  -5  259.07   15.00
   0   2  -5  237.78   15.10
   0   2  -5  238.78   15.70
   0   2  -5  255.37   15.30
   0  -2   5  233.28   15.10
   0  -2   5  249.38   15.00
   0  -2   5  247.78   15.60
   0  -2   5  235.08   15.00
   0  -2   5  242.38   15.00
   0  -2   5  238.88   15.10
   0  -2   5  258.17   15.30
  -1   2  -5  549.54   30.70
  -1   2  -5  503.15   30.60
  -1   2  -5  477.05   30.70
  -1   2  -5  478.55   31.10
  -1   2  -5  545.85   30.90
  -1   2  -5  491.85   30.70
   1  -2   5  544.65   30.90
   1  -2   5  527.35   30.60
   1  -2   5  459.95   30.70
   1  -2   5  495.95   30.60
   1  -2   5  457.45   31.40
   1  -2   5  478.85   30.70
   1  -2   5  535.85   30.60
   1  -2   5  491.25   31.10
  -2   2  -5  996.10   54.39
  -2   2  -5  830.62   54.79
  -2   2  -5  876.31   54.39
  -2   2  -5  945.91   54.39
  -2   2  -5  855.41   54.29
  -2   2  -5  837.82   54.39
  -2   2  -5  926.71   54.49
   2  -2   5  968.90   54.29
   2  -2   5  900.71   54.29
   2  -2   5  844.62   55.19
   2  -2   5  950.20   54.59
   2  -2   5  840.02   54.39
   2  -2   5  769.82   54.39
   2  -2   5  962.30   54.29
  -3   2  -5   19.50    1.80
  -3   2  -5   21.00    2.20
  -3   2  -5   24.10    1.80
  -3   2  -5   24.80    1.70
   3  -2   5   24.00    1.70
   3  -2   5   19.90    2.20
   3  -2   5   22.60    1.70
   3  -2   5   21.70    1.60
   3  -2   5   22.80    2.20
   3  -2   5   21.50    1.60
  -4   2  -5  343.37   20.40
  -4   2  -5  343.37   20.40
  -4   2  -5  333.87   20.40
  -4   2  -5  352.86   20.40
   4  -2   5  315.47   20.30
   4  -2   5  295.07   20.60
   4  -2   5  359.66   20.40
   4  -2   5  346.87   20.30
   4  -2   5  315.27   20.50
   4  -2   5  311.87   20.60
  -5   2  -5   77.79    4.80
  -5   2  -5   73.19    5.40
  -5   2  -5   77.89    4.80
  -5   2  -5   76.39    4.80
   5  -2   5   68.89    5.90
   5  -2   5   68.29    4.70
   5  -2   5   63.99    5.60
   5  -2   5   69.29    5.00
   5  -2   5   75.09    4.70
  -6   2  -5  122.69    7.50
  -6   2  -5  112.79    7.70
   6  -2   5  119.19    7.40
   6  -2   5  114.69    7.30
  -7   2  -5  185.08   11.40
  -7   2  -5  171.48   11.30
  -7   2  -5  182.78   11.30
   7  -2   5  198.78   11.60
   6   1  -5  120.79    7.60
   6   1  -5  111.09    7.50
  -6  -1   5  123.59    7.70
  -6  -1   5  131.69    7.60
   5   1  -5   16.30    2.40
   5   1  -5   20.90    1.80
   5   1  -5   24.10    1.90
   5   1  -5   22.70    1.90
  -5  -1   5   22.40    1.90
  -5  -1   5   24.20    2.00
   4   1  -5  130.09    8.80
   4   1  -5  143.89    8.70
   4   1  -5  133.69    8.80
   4   1  -5  122.09    9.50
   4   1  -5  135.99    8.70
   4   1  -5  147.29    8.90
  -4  -1   5  158.88    8.90
  -4  -1   5  150.28    8.90
  -4  -1   5  129.29    9.80
  -4  -1   5  151.58    8.80
   3   1  -5  500.75   30.10
   3   1  -5  508.65   29.90
   3   1  -5  473.75   29.70
   3   1  -5  452.45   30.00
   3   1  -5  478.65   29.80
   3   1  -5  450.25   29.70
  -3  -1   5  504.05   29.80
  -3  -1   5  506.75   29.90
  -3  -1   5  516.75   29.90
   2   1  -5   50.09    3.20
   2   1  -5   49.30    3.40
   2   1  -5   46.80    3.30
   2   1  -5   52.89    3.20
   2   1  -5   53.39    3.70
   2   1  -5   45.40    3.30
  -2  -1   5   49.70    3.30
  -2  -1   5   48.70    3.40
  -2  -1   5   42.10    5.10
  -2  -1   5   45.80    3.30
  -2  -1   5   49.50    3.60
   1   1  -5 1418.76   89.39
   1   1  -5 1415.96   89.49
   1   1  -5 1439.96   89.49
   1   1  -5 1667.43   89.69
   1   1  -5 1448.76   89.79
   1   1  -5 1464.95   89.49
  -1  -1   5 1419.96   89.49
  -1  -1   5 1482.55   89.79
  -1  -1   5 1430.36   89.49
  -1  -1   5 1539.35   89.39
  -1  -1   5 1448.56   89.49
  -1  -1   5 1586.54   89.79
  -1  -1   5 1384.96   89.39
   0   1  -5    4.10    1.00
   0   1  -5    6.50    0.80
   0   1  -5    3.10    0.60
   0   1  -5    5.10    1.20
   0   1  -5    5.80    0.70
   0   1  -5    4.70    1.60
   0   1  -5    4.60    0.80
   0  -1   5    5.20    1.20
   0  -1   5    4.30    0.60
   0  -1   5    4.10    0.70
   0  -1   5    4.40    0.80
   0  -1   5    4.20    0.80
  -1   1  -5  193.18   12.30
  -1   1  -5  175.58   11.90
  -1   1  -5  204.18   12.00
  -1   1  -5  201.08   12.00
  -1   1  -5  201.38   12.10
  -1   1  -5  178.38   12.00
  -1   1  -5  198.68   11.90
   1  -1   5  187.38   11.90
   1  -1   5  199.58   11.80
   1  -1   5  180.78   12.60
   1  -1   5  200.68   12.20
   1  -1   5  205.08   12.30
  -2   1  -5  175.28   11.30
  -2   1  -5  163.78   11.30
  -2   1  -5  179.58   11.20
  -2   1  -5  187.28   11.30
  -2   1  -5  200.68   11.50
  -2   1  -5  190.48   11.30
  -2   1  -5  182.58   11.70
  -2   1  -5  187.48   11.40
   2  -1   5  185.78   11.50
   2  -1   5  158.18   12.00
   2  -1   5  185.08   11.60
   2  -1   5  183.08   11.20
   2  -1   5  191.98   11.20
  -3   1  -5   29.00    2.70
  -3   1  -5   31.60    2.30
  -3   1  -5   31.30    2.30
  -3   1  -5   26.60    2.60
  -3   1  -5   36.80    2.60
  -3   1  -5   35.00    2.40
  -3   1  -5   34.30    2.50
  -3   1  -5   25.40    3.80
   3  -1   5   33.70    2.20
   3  -1   5   33.40    2.60
   3  -1   5   29.80    2.20
   3  -1   5   34.10    2.10
   3  -1   5   32.50    2.70
  -4   1  -5  491.35   31.20
  -4   1  -5  537.85   31.30
  -4   1  -5  480.25   31.20
  -4   1  -5  508.45   31.20
  -4   1  -5  536.75   31.60
  -4   1  -5  438.26   31.30
  -4   1  -5  570.34   31.20
   4  -1   5  532.15   31.10
   4  -1   5  538.65   31.50
   4  -1   5  485.35   31.10
   4  -1   5  569.54   31.20
   4  -1   5  445.86   31.40
  -5   1  -5   10.70    1.50
  -5   1  -5   10.40    1.80
  -5   1  -5   10.30    1.10
  -5   1  -5    8.80    1.30
  -5   1  -5   10.00    2.10
  -5   1  -5   10.40    1.00
  -5   1  -5   10.20    1.50
   5  -1   5    8.60    1.60
   5  -1   5   12.40    1.10
   5  -1   5   10.10    1.00
   5  -1   5   10.80    1.00
  -6   1  -5   86.09    5.60
  -6   1  -5   86.19    6.40
  -6   1  -5   83.89    5.60
  -6   1  -5   94.69    5.60
  -6   1  -5   89.39    5.60
   6  -1   5   84.49    5.50
   6  -1   5   88.89    5.50
   6  -1   5   76.79    6.60
   6  -1   5   87.29    5.60
  -7   1  -5    0.50    0.60
  -7   1  -5    0.30    0.80
  -7   1  -5    1.00    0.70
   7  -1   5    0.00    0.90
   7  -1   5    1.60    0.90
   7  -1   5    1.20    0.60
   6   0  -5   91.49    6.80
   6   0  -5  105.69    6.70
  -6   0   5  119.59    6.90
  -6   0   5  117.59    6.80
   5   0  -5   16.50    1.90
   5   0  -5   13.60    2.30
   5   0  -5   17.30    1.70
  -5   0   5   16.00    1.70
  -5   0   5   13.00    1.70
   4   0  -5   -0.80    1.00
   4   0  -5    0.20    0.60
   4   0  -5    0.90    0.70
   4   0  -5    0.70    0.90
  -4   0   5   -0.50    0.80
  -4   0   5    1.00    0.80
  -4   0   5   -1.80    3.10
  -4   0   5   -0.30    0.90
   3   0  -5  200.38   12.50
   3   0  -5  215.88   12.80
   3   0  -5  193.78   12.40
   3   0  -5  178.68   12.50
   3   0  -5  173.18   12.30
   3   0  -5  204.38   12.30
  -3   0   5  207.38   12.40
  -3   0   5  209.98   12.40
  -3   0   5  218.78   12.50
   2   0  -5   95.59    7.10
   2   0  -5  115.59    7.10
   2   0  -5  109.99    7.00
   2   0  -5  112.69    7.00
   2   0  -5  120.79    7.30
   2   0  -5   90.39    8.50
   2   0  -5  111.79    7.10
   2   0  -5  107.79    7.10
  -2   0   5  115.79    7.00
  -2   0   5  120.69    7.40
  -2   0   5  110.69    7.10
  -2   0   5  119.49    7.00
  -2   0   5  115.89    7.20
  -2   0   5  115.69    7.10
  -2   0   5  119.29    7.10
   1   0  -5  204.88   13.60
   1   0  -5  214.88   13.30
   1   0  -5  202.98   13.20
   1   0  -5  210.28   13.30
   1   0  -5  194.88   13.20
   1   0  -5  243.48   13.50
   1   0  -5  197.68   13.20
  -1   0   5  215.98   13.40
  -1   0   5  222.88   13.60
  -1   0   5  206.48   13.30
  -1   0   5  234.78   13.20
  -1   0   5  226.58   13.50
  -1   0   5  228.38   13.20
   0   0  -5   22.80    2.00
   0   0  -5   23.90    1.90
   0   0  -5   24.50    1.90
   0   0  -5   20.90    1.70
   0   0   5   25.40    2.20
   0   0   5   20.90    2.90
   0   0   5   21.90    1.60
   0   0   5   24.30    2.00
   0   0   5   23.40    1.50
   0   0   5   24.60    2.80
  -1   0  -5   56.39    4.90
  -1   0  -5   65.29    4.10
  -1   0  -5   60.79    4.30
   1   0   5   57.99    4.50
   1   0   5   60.09    3.90
   1   0   5   56.09    4.70
   1   0   5   65.89    3.80
   1   0   5   64.49    4.20
   1   0   5   62.29    4.20
  -2   0  -5  427.66   25.20
  -2   0  -5  446.76   25.40
  -2   0  -5  355.06   25.10
  -2   0  -5  412.06   25.10
  -2   0  -5  394.46   25.10
  -2   0  -5  385.06   25.30
   2   0   5  391.36   25.70
   2   0   5  387.26   25.40
   2   0   5  434.56   25.30
   2   0   5  451.65   25.00
   2   0   5  412.76   25.00
   2   0   5  431.46   25.30
  -3   0  -5    8.80    1.00
  -3   0  -5   10.40    1.40
  -3   0  -5   11.80    1.30
  -3   0  -5    9.10    1.40
  -3   0  -5    8.80    1.20
  -3   0  -5    7.60    1.70
  -3   0  -5    9.50    1.20
  -3   0  -5   10.60    1.20
  -3   0  -5    8.80    1.40
   3   0   5   10.80    0.80
   3   0   5    8.10    1.60
   3   0   5    8.20    1.70
   3   0   5    9.80    0.90
   3   0   5   14.20    2.50
   3   0   5   10.00    1.40
  -4   0  -5  173.08   10.30
  -4   0  -5  157.48    9.90
  -4   0  -5  161.28    9.90
  -4   0  -5  168.28    9.90
  -4   0  -5  163.28   10.00
  -4   0  -5  154.78   10.00
  -4   0  -5  162.58   10.00
   4   0   5  134.49    9.90
   4   0   5  169.68   10.20
   4   0   5  144.29   10.10
   4   0   5  161.48    9.80
   4   0   5  166.58    9.80
  -5   0  -5   69.59    5.00
  -5   0  -5   74.59    5.10
  -5   0  -5   80.19    4.80
  -5   0  -5   71.29    4.70
  -5   0  -5   73.59    4.70
  -5   0  -5   70.69    4.70
  -5   0  -5   73.59    4.80
   5   0   5   62.69    5.60
   5   0   5   72.59    5.10
   5   0   5   70.69    4.60
   5   0   5   73.59    4.70
   5   0   5   75.99    4.60
  -6   0  -5    5.30    0.90
  -6   0  -5    5.60    0.80
  -6   0  -5    6.40    0.80
  -6   0  -5    5.00    0.80
  -6   0  -5    3.50    1.80
  -6   0  -5    6.70    1.20
  -6   0  -5    3.60    1.10
   6   0   5    5.10    0.80
   6   0   5    2.20    1.80
   6   0   5    5.60    0.90
  -7   0  -5  107.09    7.10
  -7   0  -5  116.39    7.00
  -7   0  -5  101.89    7.10
  -7   0  -5  109.79    7.00
  -7   0  -5  118.19    7.10
   7   0   5  107.89    7.10
   7   0   5  111.59    7.00
   7   0   5  121.89    7.30
  -8   0  -5   26.10    1.90
   8   0   5   24.50    1.90
   6  -1  -5   32.90    2.60
   6  -1  -5   43.00    2.50
  -6   1   5   37.70    2.70
  -6   1   5   42.40    2.60
   5  -1  -5   63.29    4.40
   5  -1  -5   68.29    4.50
   5  -1  -5   65.99    4.20
  -5   1   5   67.09    4.40
  -5   1   5   73.09    4.50
  -5   1   5   58.49    4.40
   4  -1  -5   32.80    2.40
   4  -1  -5   30.00    2.60
   4  -1  -5   34.90    2.40
  -4   1   5   32.90    2.50
  -4   1   5   33.20    2.50
  -4   1   5   34.40    2.60
   3  -1  -5  274.17   15.60
   3  -1  -5  254.57   15.70
   3  -1  -5  269.37   15.70
  -3   1   5  269.77   15.80
  -3   1   5  245.08   15.60
  -3   1   5  221.78   15.80
  -3   1   5  257.47   15.60
  -3   1   5  245.98   15.70
  -3   1   5  247.28   15.60
   2  -1  -5    0.90    1.00
   2  -1  -5    0.50    0.40
   2  -1  -5    1.80    0.60
   2  -1  -5   -2.30    3.80
  -2   1   5    0.30    0.90
  -2   1   5    0.60    0.50
  -2   1   5   -0.70    0.80
  -2   1   5    0.10    0.50
  -2   1   5    0.00    0.70
  -2   1   5    0.40    0.80
   1  -1  -5   42.80    3.10
   1  -1  -5   37.30    3.80
   1  -1  -5   42.10    2.80
   1  -1  -5   41.60    2.90
   1  -1  -5   46.20    3.10
   1  -1  -5   48.50    3.10
  -1   1   5   41.10    2.80
  -1   1   5   41.00    3.40
  -1   1   5   42.20    3.10
  -1   1   5   44.00    2.80
  -1   1   5   45.20    3.40
   0  -1  -5   -0.20    1.10
   0  -1  -5    0.50    0.40
   0  -1  -5    0.40    0.40
   0  -1  -5    0.60    0.60
   0  -1  -5   -0.30    0.70
   0   1   5    0.00    0.20
   0   1   5    0.00    0.40
   0   1   5    2.50    1.70
   0   1   5    0.50    0.40
   0   1   5    0.00    0.80
  -1  -1  -5  257.37   15.10
  -1  -1  -5  240.18   15.50
  -1  -1  -5  231.08   15.10
  -1  -1  -5  228.18   14.80
  -1  -1  -5  236.48   14.90
   1   1   5  241.38   15.20
   1   1   5  252.67   14.80
   1   1   5  249.88   15.00
   1   1   5  230.78   14.80
   1   1   5  239.48   15.50
   1   1   5  259.37   15.10
  -2  -1  -5   59.19    4.30
  -2  -1  -5   63.99    4.40
  -2  -1  -5   75.19    4.40
  -2  -1  -5   66.29    4.30
  -2  -1  -5   65.29    4.30
  -2  -1  -5   68.09    4.30
  -2  -1  -5   65.79    4.60
  -2  -1  -5   67.99    4.60
   2   1   5   73.39    4.20
   2   1   5   67.39    4.80
   2   1   5   72.29    4.50
   2   1   5   66.79    4.30
   2   1   5   71.69    4.50
   2   1   5   60.69    5.20
  -3  -1  -5  341.57   18.70
  -3  -1  -5  288.57   18.40
  -3  -1  -5  300.67   18.40
  -3  -1  -5  308.57   18.50
  -3  -1  -5  269.57   18.40
  -3  -1  -5  293.47   18.50
  -3  -1  -5  307.07   18.50
  -3  -1  -5  305.67   18.40
   3   1   5  314.47   18.30
   3   1   5  300.17   18.60
   3   1   5  314.97   18.70
   3   1   5  263.67   19.20
   3   1   5  298.57   18.40
  -4  -1  -5  262.97   17.10
  -4  -1  -5  277.27   17.30
  -4  -1  -5  289.97   17.10
  -4  -1  -5  271.17   17.10
  -4  -1  -5  264.37   17.10
  -4  -1  -5  290.87   17.50
  -4  -1  -5  270.17   17.20
  -4  -1  -5  289.47   17.20
   4   1   5  289.57   17.50
   4   1   5  271.27   17.10
   4   1   5  297.37   17.10
  -5  -1  -5   30.40    2.30
  -5  -1  -5   32.00    2.40
  -5  -1  -5   29.30    2.30
  -5  -1  -5   30.10    2.30
  -5  -1  -5   32.30    2.20
  -5  -1  -5   31.70    2.90
   5   1   5   32.40    2.80
   5   1   5   30.90    2.10
  -6  -1  -5   24.50    1.80
  -6  -1  -5   24.20    1.90
  -6  -1  -5   27.90    2.20
  -6  -1  -5   23.60    2.00
  -6  -1  -5   26.00    1.90
  -6  -1  -5   27.00    3.10
   6   1   5   22.50    2.60
   6   1   5   27.60    1.90
  -7  -1  -5   -0.30    1.10
  -7  -1  -5    0.10    0.60
  -7  -1  -5   -0.30    0.90
  -7  -1  -5    0.70    0.90
  -7  -1  -5   -0.60    0.80
  -7  -1  -5    0.20    0.50
   7   1   5    0.20    0.60
   7   1   5   -0.30    0.70
   7   1   5    0.40    1.10
  -8  -1  -5   95.99    5.70
  -8  -1  -5   84.49    5.70
   8   1   5   90.79    5.70
   6  -2  -5   46.70    3.20
  -6   2   5   56.29    3.30
   5  -2  -5    2.10    0.90
   5  -2  -5    1.40    0.60
   5  -2  -5    2.10    1.20
  -5   2   5    0.80    0.80
  -5   2   5    3.30    0.90
  -5   2   5    4.20    1.10
   4  -2  -5   10.80    1.90
   4  -2  -5   16.40    1.60
   4  -2  -5   13.80    1.40
  -4   2   5   11.90    2.10
  -4   2   5   13.80    1.40
  -4   2   5   13.20    1.40
   3  -2  -5    1.20    1.10
   3  -2  -5    0.20    0.40
   3  -2  -5    1.20    0.70
  -3   2   5    0.20    1.30
  -3   2   5   -0.50    0.80
  -3   2   5    0.40    0.90
  -3   2   5   -0.10    0.80
  -3   2   5   -0.30    0.60
  -3   2   5    0.00    2.80
   2  -2  -5  260.67   17.00
   2  -2  -5  286.57   17.00
   2  -2  -5  276.17   17.00
  -2   2   5  263.57   17.20
  -2   2   5  268.77   17.10
  -2   2   5  258.27   17.20
  -2   2   5  290.27   17.00
  -2   2   5  287.97   17.00
  -2   2   5  299.37   17.00
   1  -2  -5  117.99    7.90
   1  -2  -5  113.59    7.80
   1  -2  -5  113.09    7.80
   1  -2  -5  131.49    7.70
   1  -2  -5  125.29    7.80
  -1   2   5  135.69    7.80
  -1   2   5  132.39    8.00
  -1   2   5  133.59    7.70
  -1   2   5  126.59    7.80
  -1   2   5  112.69    7.90
   0  -2  -5   16.00    1.40
   0  -2  -5   16.20    1.70
   0  -2  -5   15.40    1.40
   0  -2  -5   14.80    2.40
   0  -2  -5   15.00    1.40
   0  -2  -5   15.50    2.20
   0   2   5   15.80    1.30
   0   2   5   18.00    1.40
   0   2   5   17.00    1.20
   0   2   5   16.40    2.30
  -1  -2  -5  168.28   10.70
  -1  -2  -5  154.38   10.90
  -1  -2  -5  168.08   10.60
  -1  -2  -5  159.98   10.60
  -1  -2  -5  163.18   11.60
  -1  -2  -5  174.68   10.60
   1   2   5  184.58   10.90
   1   2   5  175.18   10.60
   1   2   5  181.08   10.60
   1   2   5  197.98   10.90
  -2  -2  -5  129.79    8.10
  -2  -2  -5  131.79    8.10
  -2  -2  -5  139.69    8.20
  -2  -2  -5  116.89    8.10
  -2  -2  -5  130.49    8.10
  -2  -2  -5  119.79    8.30
  -2  -2  -5  138.59    8.40
   2   2   5  132.99    9.00
   2   2   5  129.59    8.00
   2   2   5  116.39    8.10
   2   2   5  150.78    8.40
   2   2   5  138.39    8.30
  -3  -2  -5    2.70    0.60
  -3  -2  -5    2.30    0.80
  -3  -2  -5    3.00    0.60
  -3  -2  -5    1.90    0.60
  -3  -2  -5    2.60    1.00
  -3  -2  -5    2.80    0.90
  -3  -2  -5    3.60    0.70
   3   2   5    4.90    4.20
   3   2   5    3.00    0.70
   3   2   5    2.20    0.40
   3   2   5    2.60    1.10
  -4  -2  -5  229.18   14.90
  -4  -2  -5  248.08   15.00
  -4  -2  -5  248.68   15.00
  -4  -2  -5  220.38   14.90
  -4  -2  -5  234.88   14.90
  -4  -2  -5  259.97   15.30
  -4  -2  -5  246.58   14.90
   4   2   5  255.87   15.20
   4   2   5  223.38   14.80
   4   2   5  259.07   14.80
  -5  -2  -5   23.90    1.90
  -5  -2  -5   20.40    2.80
  -5  -2  -5   24.70    2.50
  -5  -2  -5   23.70    2.10
  -5  -2  -5   20.10    1.90
  -5  -2  -5   27.20    2.10
  -5  -2  -5   23.10    1.70
   5   2   5   26.20    2.50
   5   2   5   22.20    1.90
  -6  -2  -5    3.00    0.80
  -6  -2  -5    3.80    1.00
  -6  -2  -5    4.10    1.40
  -6  -2  -5    5.60    0.80
  -6  -2  -5    5.30    0.80
   6   2   5    3.60    0.60
   6   2   5    3.80    1.70
  -7  -2  -5   42.50    3.20
  -7  -2  -5   41.60    3.20
  -7  -2  -5   44.30    3.00
  -7  -2  -5   44.30    3.10
   7   2   5   45.60    3.00
   7   2   5   45.60    3.10
  -8  -2  -5   36.00    2.70
  -8  -2  -5   43.90    2.80
  -8  -2  -5   42.30    2.70
   8   2   5   40.60    2.80
   5  -3  -5   57.99    3.60
   5  -3  -5   51.29    3.50
  -5   3   5   56.79    3.80
  -5   3   5   52.99    3.60
  -4   3   5   34.40    2.60
  -4   3   5   24.20    2.50
   3  -3  -5   14.50    1.50
   3  -3  -5   11.20    1.70
   3  -3  -5   12.60    1.20
  -3   3   5   12.80    1.70
  -3   3   5   15.00    1.70
  -3   3   5   12.80    2.10
  -3   3   5   11.80    1.50
  -3   3   5    9.00    1.90
   2  -3  -5    7.40    0.90
   2  -3  -5    6.70    1.20
   2  -3  -5    7.30    0.90
  -2   3   5    6.20    1.10
  -2   3   5    8.70    1.30
  -2   3   5    5.10    1.10
  -2   3   5    6.80    0.90
  -2   3   5    7.80    1.00
   1  -3  -5   52.39    3.50
   1  -3  -5   51.29    3.40
   1  -3  -5   48.50    3.40
   1  -3  -5   56.79    3.40
  -1   3   5   53.39    3.40
  -1   3   5   48.30    3.50
  -1   3   5   56.49    3.40
  -1   3   5   49.70    3.70
  -1   3   5   46.50    3.70
   0  -3  -5  299.87   20.30
   0  -3  -5  324.27   20.10
   0  -3  -5  315.67   20.10
   0  -3  -5  304.77   20.10
   0  -3  -5  338.47   20.10
   0   3   5  365.46   20.10
   0   3   5  335.17   20.30
   0   3   5  337.27   20.30
   0   3   5  340.57   20.10
  -1  -3  -5   28.40    2.00
  -1  -3  -5   26.40    2.10
  -1  -3  -5   28.30    2.10
  -1  -3  -5   29.50    2.00
  -1  -3  -5   29.30    2.10
   1   3   5   28.30    2.80
   1   3   5   23.00    4.00
   1   3   5   30.90    2.20
   1   3   5   29.60    1.90
  -2  -3  -5    2.60    0.90
  -2  -3  -5    1.20    1.50
  -2  -3  -5    1.70    0.50
  -2  -3  -5    2.30    0.50
  -2  -3  -5    1.80    0.60
  -2  -3  -5    1.50    0.70
  -2  -3  -5    1.60    0.90
   2   3   5    2.00    1.20
   2   3   5    9.70    3.80
   2   3   5    2.30    0.40
  -3  -3  -5  601.14   35.90
  -3  -3  -5  555.74   35.80
  -3  -3  -5  591.84   35.90
  -3  -3  -5  612.14   36.00
  -3  -3  -5  599.74   36.30
  -3  -3  -5  565.34   36.00
   3   3   5  621.94   36.10
   3   3   5  561.14   35.80
  -4  -3  -5  159.48    9.90
  -4  -3  -5  159.68    9.90
  -4  -3  -5  162.18   10.00
  -4  -3  -5  155.38   10.30
   4   3   5  154.58    9.70
   4   3   5  162.98   10.20
  -5  -3  -5  695.13   41.00
  -5  -3  -5  599.74   40.90
  -5  -3  -5  682.93   41.50
  -5  -3  -5  723.23   41.10
  -5  -3  -5  592.14   41.00
  -5  -3  -5  724.63   41.10
  -5  -3  -5  660.83   41.00
   5   3   5  701.93   40.90
  -6  -3  -5   40.80    2.80
  -6  -3  -5   37.30    3.60
  -6  -3  -5   39.00    2.70
  -6  -3  -5   38.10    3.10
  -6  -3  -5   38.80    3.00
   6   3   5   37.60    3.10
   6   3   5   40.20    2.90
   6   3   5   40.60    2.60
   6   3   5   34.60    3.40
  -7  -3  -5   47.60    3.40
  -7  -3  -5   51.49    3.50
  -7  -3  -5   48.70    3.50
  -7  -3  -5   54.79    3.40
   7   3   5   51.09    3.40
  -8  -3  -5   14.20    1.20
  -8  -3  -5   14.60    1.10
   8   3   5   11.60    1.40
   4  -4  -5   86.59    5.40
   4  -4  -5   83.99    5.30
  -4   4   5   80.89    5.40
   3  -4  -5   38.70    2.60
   3  -4  -5   39.80    2.60
  -3   4   5   32.10    2.90
  -3   4   5   35.50    2.60
  -3   4   5   40.00    3.00
  -3   4   5   34.60    2.70
   2  -4  -5  466.15   26.30
   2  -4  -5  455.65   26.30
   2  -4  -5  419.76   26.30
  -2   4   5  382.76   26.50
  -2   4   5  420.36   26.30
  -2   4   5  430.76   26.50
  -2   4   5  437.56   26.40
   1  -4  -5  495.55   30.50
   1  -4  -5  513.25   30.50
   1  -4  -5  498.95   30.50
   1  -4  -5  510.75   30.50
  -1   4   5  499.55   30.50
  -1   4   5  541.55   30.50
  -1   4   5  508.05   30.50
  -1   4   5  429.26   30.60
   0  -4  -5  489.95   28.90
   0  -4  -5  494.05   28.90
   0  -4  -5  455.25   29.10
   0  -4  -5  483.15   28.90
   0  -4  -5  448.06   28.90
   0   4   5  486.55   29.10
   0   4   5  456.85   28.90
  -1  -4  -5  159.08    9.30
  -1  -4  -5  150.08    9.30
  -1  -4  -5  138.69    9.20
  -1  -4  -5  162.08    9.20
  -1  -4  -5  143.29    9.40
  -1  -4  -5  132.99    9.50
   1   4   5  158.18    9.40
   1   4   5  146.29    9.20
  -2  -4  -5   51.69    3.30
  -2  -4  -5   48.70    3.60
  -2  -4  -5   45.80    3.40
  -2  -4  -5   48.70    3.30
  -2  -4  -5   51.49    3.30
  -3  -4  -5  108.19    6.50
  -3  -4  -5  106.69    6.50
  -3  -4  -5  108.89    6.70
  -3  -4  -5  103.79    6.50
   3   4   5   97.89    6.80
   3   4   5   95.69    6.40
  -4  -4  -5   86.69    5.60
  -4  -4  -5   90.89    5.60
  -4  -4  -5   86.49    5.50
  -4  -4  -5   95.19    5.60
   4   4   5   74.89    5.40
   4   4   5   87.09    6.00
  -5  -4  -5 1731.13   98.99
  -5  -4  -5 1615.74   98.89
  -5  -4  -5 1728.13   98.99
  -5  -4  -5 1453.65   98.79
   5   4   5 1610.24   98.79
  -6  -4  -5   67.49    4.40
  -6  -4  -5   62.39    4.20
  -6  -4  -5   61.99    4.10
   6   4   5   63.79    4.10
  -7  -4  -5   87.29    5.10
  -7  -4  -5   78.49    5.10
  -7  -4  -5   67.69    4.90
  -7  -4  -5   85.49    5.00
   7   4   5   73.49    5.00
  -8  -4  -5   24.20    1.80
   4  -5  -5   43.80    2.90
  -4   5   5   48.30    3.00
   3  -5  -5   33.10    2.20
   3  -5  -5   31.30    2.20
   3  -5  -5   35.50    2.30
  -3   5   5   31.20    2.60
  -3   5   5   29.80    2.30
  -3   5   5   30.00    2.30
  -2   5   5  162.48    9.70
  -2   5   5  149.09    9.80
  -2   5   5  157.48    9.70
   1  -5  -5  521.55   31.50
   1  -5  -5  524.15   31.50
   1  -5  -5  551.94   31.60
   1  -5  -5  546.45   31.60
  -1   5   5  504.95   31.60
  -1   5   5  468.85   31.80
  -1   5   5  529.15   31.60
  -1   5   5  566.04   31.60
  -1   5   5  441.46   31.60
   0  -5  -5  306.97   18.40
   0  -5  -5  309.47   18.70
   0  -5  -5  293.97   18.40
   0  -5  -5  289.57   18.40
   0  -5  -5  274.47   18.30
   0  -5  -5  303.87   18.40
   0   5   5  294.77   18.60
   0   5   5  308.37   18.40
   0   5   5  315.17   18.40
  -1  -5  -5   28.90    2.80
  -1  -5  -5   33.50    2.40
  -1  -5  -5   32.40    2.20
  -1  -5  -5   31.80    2.40
  -1  -5  -5   32.10    2.30
   1   5   5   31.20    2.20
   1   5   5   28.90    2.40
   1   5   5   26.60    2.70
  -2  -5  -5  115.49    6.80
  -2  -5  -5  107.59    6.80
  -2  -5  -5   98.89    7.10
  -2  -5  -5  104.99    6.70
  -3  -5  -5  283.07   19.30
  -3  -5  -5  282.47   18.60
  -3  -5  -5  315.27   18.50
  -3  -5  -5  314.87   18.60
  -3  -5  -5  325.77   18.60
   3   5   5  290.67   18.40
  -4  -5  -5   46.10    3.30
  -4  -5  -5   47.70    3.20
  -4  -5  -5   47.40    3.30
  -4  -5  -5   51.89    3.30
  -5  -5  -5    8.10    1.00
  -5  -5  -5   10.40    1.50
  -5  -5  -5    6.50    1.00
  -5  -5  -5    9.00    1.10
  -6  -5  -5    1.00    0.60
  -6  -5  -5    1.60    0.80
  -6  -5  -5    1.40    0.60
  -7  -5  -5   47.60    3.30
  -7  -5  -5   54.39    3.40
   3  -6  -5   79.49    5.20
   3  -6  -5   83.09    5.20
   3  -6  -5   90.79    5.20
  -3   6   5   84.69    5.30
  -3   6   5   83.99    5.30
   2  -6  -5   80.49    5.10
   2  -6  -5   81.29    5.20
   2  -6  -5   82.49    5.20
  -2   6   5   81.99    5.20
  -2   6   5   86.69    5.30
   1  -6  -5   70.79    4.50
   1  -6  -5   67.89    4.40
   1  -6  -5   70.59    4.40
   1  -6  -5   73.29    4.50
  -1   6   5   72.69    4.60
  -1   6   5   72.69    4.50
  -1   6   5   66.79    4.40
  -1   6   5   62.19    4.60
   0  -6  -5  164.28   10.00
   0  -6  -5  148.29   10.20
   0  -6  -5  167.88   10.00
   0   6   5  169.08   10.00
   0   6   5  154.18   10.10
  -1  -6  -5    1.00    0.90
  -1  -6  -5    1.40    0.50
  -1  -6  -5    2.40    1.20
  -1  -6  -5    1.80    0.50
   1   6   5    2.90    2.40
   1   6   5    1.00    0.90
   1   6   5   -0.10    0.90
  -2  -6  -5   38.90    2.60
  -2  -6  -5   34.30    2.60
  -2  -6  -5   34.80    3.10
  -2  -6  -5   34.60    2.50
   2   6   5   30.90    4.10
   2   6   5   45.40    3.50
  -3  -6  -5    1.00    0.70
  -3  -6  -5    1.10    0.90
  -3  -6  -5   -1.60    1.30
  -3  -6  -5   -0.30    0.60
   3   6   5    0.00    1.10
  -4  -6  -5   51.79    3.30
  -4  -6  -5   44.80    3.50
  -5  -6  -5   12.10    1.20
  -5  -6  -5   12.90    1.20
  -5  -6  -5   12.70    1.70
  -6  -6  -5   59.29    3.70
  -6  -6  -5   48.40    3.70
  -6  -6  -5   55.59    3.60
  -7  -6  -5   14.40    1.10
  -7  -6  -5   10.80    1.40
   1  -7  -5   23.00    1.40
   1  -7  -5   18.00    1.60
  -1   7   5   18.80    1.90
  -1   7   5   17.10    1.50
  -1   7   5   21.50    1.80
   0  -7  -5   26.10    2.00
   0  -7  -5   34.00    2.10
   0  -7  -5   27.30    2.20
   0   7   5   30.90    2.10
   0   7   5   30.80    2.10
  -1  -7  -5   24.20    1.60
  -1  -7  -5   24.70    1.60
  -1  -7  -5   22.30    2.20
  -1  -7  -5   21.10    1.70
   1   7   5   20.10    1.80
   1   7   5   20.90    1.70
  -2  -7  -5  146.79    8.40
  -2  -7  -5  131.19    8.60
  -2  -7  -5  124.59    8.40
  -2  -7  -5  146.59    8.40
   2   7   5  128.59    8.40
  -3  -7  -5    0.40    1.00
  -3  -7  -5    0.90    0.40
  -3  -7  -5    0.20    0.50
  -3  -7  -5    1.00    1.20
  -4  -7  -5    2.70    0.80
  -4  -7  -5    2.10    0.50
  -4  -7  -5    1.20    0.70
  -5  -7  -5    4.00    0.90
  -5  -7  -5    6.80    0.80
  -1  -8  -5    3.00    0.40
  -1  -8  -5    3.30    0.40
  -2  -8  -5   44.40    2.80
  -3  -8  -5    0.10    0.30
  -3  -8  -5   -0.10    0.40
   1   7  -6    1.70    0.60
   1   7  -6    2.50    0.60
  -1  -7   6    3.70    0.50
   0  -7   6   87.59    5.50
   0  -7   6   94.69    5.60
   0  -7   6   87.19    5.50
   3   6  -6   69.29    4.50
   3   6  -6   80.99    4.60
  -3  -6   6   67.19    4.60
  -3  -6   6   72.89    4.50
   2   6  -6  195.48   12.00
   2   6  -6  212.28   12.00
   2   6  -6  167.18   12.00
  -2  -6   6  196.68   12.10
  -2  -6   6  205.38   12.00
   1   6  -6   21.20    1.70
   1   6  -6   26.00    1.70
   1   6  -6   22.90    1.90
  -1  -6   6   25.50    1.90
  -1  -6   6   25.20    1.70
  -1  -6   6   26.00    2.00
   0   6  -6   -0.20    0.60
   0   6  -6   -0.20    0.90
   0   6  -6    0.70    0.50
   0  -6   6    0.30    0.50
   0  -6   6    1.10    0.50
   0  -6   6    0.80    0.60
  -1   6  -6    2.80    0.70
  -1   6  -6    3.50    0.70
   1  -6   6    3.70    0.70
   1  -6   6    2.30    0.50
  -2   6  -6  153.28    9.70
  -2   6  -6  144.69    9.70
   2  -6   6  165.28    9.70
   2  -6   6  164.08    9.70
  -3   6  -6    1.10    0.40
  -3   6  -6    1.40    0.70
   3  -6   6    0.60    0.30
   3  -6   6    0.90    0.60
   4   5  -6   41.10    2.80
  -4  -5   6   35.60    2.60
  -4  -5   6   42.90    2.60
  -4  -5   6   38.80    2.90
   3   5  -6   10.20    1.00
   3   5  -6    9.10    1.20
  -3  -5   6   10.80    2.00
  -3  -5   6   10.30    1.10
  -3  -5   6    9.00    1.20
   2   5  -6   11.30    1.00
   2   5  -6   10.40    1.10
   1   5  -6   10.90    1.30
   1   5  -6    9.70    1.20
   1   5  -6   11.00    1.20
  -1  -5   6   11.70    1.50
  -1  -5   6   13.20    1.40
  -1  -5   6   12.90    1.40
   0   5  -6    6.10    0.90
   0   5  -6    3.90    0.80
   0   5  -6    6.60    0.90
   0  -5   6    5.10    0.80
   0  -5   6    6.80    1.30
   0  -5   6    7.20    1.10
  -1   5  -6    9.80    1.30
  -1   5  -6   10.00    1.10
  -1   5  -6   10.00    1.40
   1  -5   6   10.90    1.40
   1  -5   6   11.40    1.50
   1  -5   6   10.50    1.20
  -2   5  -6   15.60    1.50
  -2   5  -6   15.20    2.20
  -3   5  -6   34.70    2.50
  -3   5  -6   34.70    2.60
  -3   5  -6   35.40    2.60
   3  -5   6   40.70    2.70
   3  -5   6   32.30    2.50
   3  -5   6   39.70    2.50
  -4   5  -6  152.68    9.90
  -4   5  -6  159.98    9.90
  -4   5  -6  150.28    9.90
   4  -5   6  164.78    9.90
   4  -5   6  171.58    9.90
   5   4  -6   17.20    1.30
   5   4  -6   15.40    1.30
  -5  -4   6   17.70    1.50
  -5  -4   6   16.90    1.30
  -5  -4   6   16.50    1.50
   4   4  -6   23.60    1.70
   4   4  -6   21.00    2.00
   4   4  -6   19.10    1.80
  -4  -4   6   24.80    1.80
  -4  -4   6   21.80    1.80
  -4  -4   6   22.50    2.20
  -4  -4   6   24.60    1.90
   3   4  -6   31.20    2.40
   3   4  -6   33.40    2.30
  -3  -4   6   32.60    2.40
  -3  -4   6   32.60    2.40
   2   4  -6   74.49    5.30
   2   4  -6   85.19    5.30
   2   4  -6   87.99    5.40
   2   4  -6   76.49    6.70
  -2  -4   6   95.49    5.60
  -2  -4   6   94.49    5.50
  -2  -4   6   75.69    7.40
   1   4  -6   22.90    3.30
   1   4  -6   18.00    2.10
   1   4  -6   17.60    1.50
  -1  -4   6   20.40    1.70
  -1  -4   6   20.30    1.80
  -1  -4   6   18.50    1.60
  -1  -4   6   15.10    3.90
   0   4  -6    3.60    0.80
   0   4  -6    3.10    2.30
   0   4  -6    3.50    1.40
   0   4  -6    3.00    1.40
   0   4  -6    4.00    0.80
   0   4  -6    4.20    0.70
   0  -4   6    3.20    0.90
   0  -4   6    2.50    0.80
   0  -4   6    3.40    0.70
  -1   4  -6  377.46   24.40
  -1   4  -6  402.96   24.60
  -1   4  -6  368.96   24.50
  -1   4  -6  373.76   25.00
  -1   4  -6  447.56   24.60
   1  -4   6  408.76   24.60
   1  -4   6  429.86   24.50
   1  -4   6  396.76   24.60
  -2   4  -6  100.69    6.20
  -2   4  -6   99.19    6.30
  -2   4  -6   97.19   10.70
   2  -4   6   85.99    6.30
   2  -4   6  102.99    6.10
   2  -4   6   96.29    6.20
  -3   4  -6   56.79    3.80
  -3   4  -6   50.89    3.70
  -3   4  -6   55.69    3.70
   3  -4   6   56.29    3.60
   3  -4   6   56.39    3.80
   3  -4   6   50.79    3.60
  -4   4  -6  179.38   11.50
  -4   4  -6  185.18   11.50
  -4   4  -6  184.88   11.60
   4  -4   6  199.38   11.50
   4  -4   6  189.28   11.60
   4  -4   6  179.78   11.50
  -5   4  -6    0.90    0.50
  -5   4  -6    0.90    0.50
  -5   4  -6    1.90    0.60
   5  -4   6    0.50    0.60
   5  -4   6    0.50    0.70
   5  -4   6    1.20    0.70
   5   3  -6    7.30    0.90
  -5  -3   6    5.10    0.90
  -5  -3   6    5.20    1.00
  -5  -3   6    5.80    0.80
  -5  -3   6    5.50    0.80
   4   3  -6   33.50    2.80
   4   3  -6   32.60    2.90
  -4  -3   6   38.30    2.80
   3   3  -6   82.99    7.00
   3   3  -6   72.19    5.10
   3   3  -6   87.19    5.30
  -3  -3   6   71.79    6.20
  -3  -3   6   85.89    5.30
  -3  -3   6   83.49    5.30
  -3  -3   6   76.49    5.40
  -3  -3   6   83.59    5.20
   2   3  -6   44.60    3.10
   2   3  -6   45.10    4.10
   2   3  -6   46.80    3.00
   2   3  -6   40.70    3.60
   2   3  -6   46.90    3.30
  -2  -3   6   47.20    3.20
  -2  -3   6   45.30    3.20
  -2  -3   6   48.70    3.20
  -2  -3   6   46.40    3.30
  -2  -3   6   44.10    4.50
  -2  -3   6   41.90    4.00
   1   3  -6  645.64   38.50
   1   3  -6  611.24   38.70
   1   3  -6  623.64   38.60
   1   3  -6  625.54   38.50
  -1  -3   6  606.84   39.00
  -1  -3   6  669.23   38.60
  -1  -3   6  671.53   38.60
  -1  -3   6  609.44   38.60
   0   3  -6   11.70    1.20
   0   3  -6   11.50    1.70
   0   3  -6   12.20    1.20
   0   3  -6   12.70    1.20
   0   3  -6   12.00    2.20
   0   3  -6   10.80    1.80
   0  -3   6   11.30    1.50
   0  -3   6   12.10    1.40
   0  -3   6   11.70    1.70
   0  -3   6   10.90    1.20
  -1   3  -6    7.60    1.10
  -1   3  -6    5.50    1.80
  -1   3  -6    7.50    1.10
  -1   3  -6    7.90    1.00
  -1   3  -6    7.60    1.20
   1  -3   6    7.40    1.00
   1  -3   6    7.60    1.30
   1  -3   6    8.10    1.00
   1  -3   6    8.00    1.20
   1  -3   6    6.90    1.10
  -2   3  -6   83.99    6.20
  -2   3  -6   85.99    6.50
  -2   3  -6   92.59    5.80
  -2   3  -6  100.79    5.80
  -2   3  -6   86.29    5.80
   2  -3   6   91.29    5.70
   2  -3   6   84.59    5.70
   2  -3   6   95.29    5.60
   2  -3   6   92.39    5.80
   2  -3   6   81.79    5.80
   2  -3   6   84.49    6.20
  -3   3  -6   39.60    2.80
  -3   3  -6   40.60    2.80
  -3   3  -6   41.40    2.90
  -3   3  -6   38.10    3.10
   3  -3   6   35.50    2.70
   3  -3   6   38.40    2.60
   3  -3   6   30.90    4.00
   3  -3   6   38.50    3.00
   3  -3   6   39.60    2.70
  -4   3  -6  101.09    5.80
  -4   3  -6   85.39    5.80
  -4   3  -6   87.09    5.70
  -4   3  -6   78.29    6.50
   4  -3   6   90.59    5.70
   4  -3   6   94.29    5.70
   4  -3   6   80.99    5.70
   4  -3   6   96.19    5.80
  -5   3  -6   13.00    1.60
  -5   3  -6   14.70    1.30
  -5   3  -6   15.20    1.30
   5  -3   6   14.70    1.70
   5  -3   6   15.60    1.50
   5  -3   6   11.90    1.50
  -6   3  -6   49.60    3.20
  -6   3  -6   44.00    3.30
  -6   3  -6   52.89    3.30
   6  -3   6   51.79    3.20
   5   2  -6   57.79    4.40
   5   2  -6   67.99    4.30
  -5  -2   6   68.59    4.40
  -5  -2   6   70.79    4.30
  -5  -2   6   63.99    4.40
  -5  -2   6   69.89    4.40
   4   2  -6   18.10    1.50
   4   2  -6   13.50    2.00
   4   2  -6   17.30    1.80
  -4  -2   6   15.80    1.70
  -4  -2   6   19.60    1.70
  -4  -2   6   19.90    1.70
  -4  -2   6   19.30    1.50
   3   2  -6  322.97   21.90
   3   2  -6  336.67   22.40
   3   2  -6  338.37   22.00
   3   2  -6  375.16   22.00
  -3  -2   6  339.67   22.70
  -3  -2   6  389.96   22.00
  -3  -2   6  389.06   22.00
  -3  -2   6  372.96   22.00
   2   2  -6   58.89    3.70
   2   2  -6   52.99    3.80
   2   2  -6   57.49    3.90
  -2  -2   6   55.79    4.20
  -2  -2   6   58.49    3.80
  -2  -2   6   50.69    4.20
  -2  -2   6   56.29    3.80
  -2  -2   6   51.79    3.80
  -2  -2   6   62.09    3.80
   1   2  -6  140.99    9.30
   1   2  -6  151.38    9.80
   1   2  -6  141.89    9.30
   1   2  -6  159.68    9.40
  -1  -2   6  152.48    9.80
  -1  -2   6  158.48    9.50
  -1  -2   6  153.48    9.40
   0   2  -6    1.20    0.60
   0   2  -6   -0.40    0.60
   0   2  -6    1.40    0.60
   0   2  -6    1.10    1.20
   0  -2   6    0.70    0.70
   0  -2   6    1.70    0.80
   0  -2   6    1.30    0.60
   0  -2   6    1.90    0.70
  -1   2  -6   63.49    4.40
  -1   2  -6   65.19    4.20
  -1   2  -6   62.69    4.10
  -1   2  -6   56.29    4.00
  -1   2  -6   57.39    5.20
   1  -2   6   68.29    4.50
   1  -2   6   65.69    4.00
   1  -2   6   63.39    4.30
   1  -2   6   62.29    4.20
   1  -2   6   62.29    4.00
  -2   2  -6  500.25   29.50
  -2   2  -6  474.65   29.60
  -2   2  -6  460.05   29.70
  -2   2  -6  490.25   29.80
  -2   2  -6  506.15   29.60
   2  -2   6  495.05   29.50
   2  -2   6  437.16   29.60
   2  -2   6  508.75   29.50
   2  -2   6  460.75   29.80
   2  -2   6  501.35   29.50
  -3   2  -6   70.89    5.10
  -3   2  -6   75.59    5.30
  -3   2  -6   73.89    4.90
  -3   2  -6   76.29    4.90
  -3   2  -6   83.99    5.00
   3  -2   6   72.49    5.00
   3  -2   6   76.49    4.80
   3  -2   6   74.39    4.80
   3  -2   6   75.19    4.80
   3  -2   6   75.09    5.30
  -4   2  -6  450.75   28.60
  -4   2  -6  495.05   28.60
  -4   2  -6  480.55   28.70
   4  -2   6  468.05   28.50
   4  -2   6  483.05   28.60
   4  -2   6  488.15   28.60
   4  -2   6  450.25   28.70
   4  -2   6  431.86   28.90
   4  -2   6  462.35   28.50
  -5   2  -6   34.40    2.40
  -5   2  -6   31.40    2.50
  -5   2  -6   28.60    3.00
  -5   2  -6   32.70    2.30
   5  -2   6   27.80    2.40
   5  -2   6   31.80    2.20
   5  -2   6   27.90    2.30
   5  -2   6   31.80    2.20
  -6   2  -6   29.00    2.40
  -6   2  -6   31.70    2.30
  -6   2  -6   30.60    2.20
   6  -2   6   28.90    2.30
   6  -2   6   32.90    2.20
  -7   2  -6   13.70    1.60
  -7   2  -6   18.40    1.30
  -7   2  -6   17.70    1.20
   7  -2   6   15.80    1.30
   6   1  -6  154.08    9.00
  -6  -1   6  132.09    9.00
  -6  -1   6  149.29    8.90
   5   1  -6   22.90    1.80
   5   1  -6   20.00    2.40
   5   1  -6   22.10    1.70
  -5  -1   6   16.90    1.70
  -5  -1   6   20.50    1.80
  -5  -1   6   22.00    1.60
   4   1  -6  296.07   17.70
   4   1  -6  255.57   17.60
   4   1  -6  272.57   17.50
  -4  -1   6  312.27   17.70
  -4  -1   6  290.47   17.70
  -4  -1   6  294.07   17.70
   3   1  -6  248.68   16.20
   3   1  -6  277.77   16.40
   3   1  -6  253.87   16.20
   3   1  -6  264.77   16.30
   3   1  -6  255.07   16.70
  -3  -1   6  272.37   16.30
  -3  -1   6  276.27   16.40
  -3  -1   6  267.77   16.30
   2   1  -6  310.47   21.10
   2   1  -6  345.27   21.10
   2   1  -6  374.56   21.50
   2   1  -6  323.07   21.20
   2   1  -6  334.57   21.10
   2   1  -6  361.26   21.30
  -2  -1   6  375.66   21.20
  -2  -1   6  323.27   21.60
  -2  -1   6  361.36   21.20
  -2  -1   6  345.57   21.20
   1   1  -6  273.37   17.00
   1   1  -6  282.57   17.10
   1   1  -6  242.58   17.00
   1   1  -6  311.17   17.40
   1   1  -6  253.97   17.00
  -1  -1   6  282.77   17.00
  -1  -1   6  288.47   17.10
  -1  -1   6  297.47   17.50
  -1  -1   6  262.37   17.10
  -1  -1   6  292.07   17.00
   0   1  -6    6.50    1.40
   0   1  -6    3.10    3.00
   0   1  -6    4.20    0.60
   0   1  -6    4.50    0.70
   0   1  -6    4.50    0.80
   0  -1   6    4.00    1.00
   0  -1   6    5.00    0.80
   0  -1   6    4.70    0.80
  -1   1  -6    2.50    1.20
  -1   1  -6    1.20    0.40
  -1   1  -6    0.90    0.90
  -1   1  -6    0.70    0.90
  -1   1  -6    0.80    2.60
  -1   1  -6    1.40    0.70
  -1   1  -6    1.60    0.70
   1  -1   6    2.10    0.80
   1  -1   6    0.90    0.40
   1  -1   6    1.30    1.20
   1  -1   6    1.70    0.90
   1  -1   6    0.70    0.40
  -2   1  -6    3.50    0.90
  -2   1  -6    2.80    0.70
  -2   1  -6    4.00    0.90
  -2   1  -6    2.20    0.70
  -2   1  -6    2.80    3.20
  -2   1  -6    4.10    0.90
  -2   1  -6    4.70    1.30
   2  -1   6    2.60    0.40
   2  -1   6    3.70    1.00
   2  -1   6    1.70    1.50
   2  -1   6    3.50    0.50
  -3   1  -6  598.14   39.10
  -3   1  -6  598.94   39.40
  -3   1  -6  616.74   39.10
  -3   1  -6  685.23   39.20
  -3   1  -6  673.53   39.10
   3  -1   6  712.03   39.10
   3  -1   6  626.44   39.40
   3  -1   6  639.84   39.00
   3  -1   6  618.84   39.00
  -4   1  -6   67.09    4.90
  -4   1  -6   59.79    4.60
  -4   1  -6   74.09    4.50
  -4   1  -6   67.79    4.50
  -4   1  -6   72.09    4.50
  -4   1  -6   71.69    4.60
   4  -1   6   66.19    4.30
   4  -1   6   65.69    4.80
   4  -1   6   71.69    4.40
   4  -1   6   66.69    4.40
  -5   1  -6   64.09    4.40
  -5   1  -6   57.09    4.40
  -5   1  -6   66.99    4.80
  -5   1  -6   61.59    4.50
  -5   1  -6   71.49    4.30
  -5   1  -6   72.89    4.40
  -5   1  -6   70.39    4.20
   5  -1   6   61.49    4.80
   5  -1   6   63.39    4.40
   5  -1   6   65.49    4.20
  -6   1  -6    8.00    1.20
  -6   1  -6    6.40    1.20
   6  -1   6    8.00    1.00
   6  -1   6    9.40    1.10
   6  -1   6    9.00    1.10
  -7   1  -6    3.00    0.50
  -7   1  -6    2.20    0.50
  -7   1  -6    2.50    0.80
   7  -1   6    1.70    1.20
   7  -1   6    2.60    0.70
   7  -1   6   -0.70    1.10
   5   0  -6    0.20    0.70
   5   0  -6   -0.10    0.60
   5   0  -6    0.90    0.70
  -5   0   6    0.80    0.90
  -5   0   6   -0.10    0.70
  -5   0   6    0.30    0.50
   4   0  -6    4.60    1.10
   4   0  -6    3.60    0.70
   4   0  -6    5.10    0.90
  -4   0   6    3.80    1.00
  -4   0   6    4.80    1.00
  -4   0   6    3.60    0.80
   3   0  -6    4.80    0.90
   3   0  -6    3.90    0.80
   3   0  -6    5.20    0.90
  -3   0   6    3.50    0.90
  -3   0   6    4.80    0.80
  -3   0   6    5.60    0.90
   2   0  -6  146.39    9.20
   2   0  -6  159.48    9.70
   2   0  -6  151.68    9.30
   2   0  -6  153.68    9.40
  -2   0   6  149.49    9.40
  -2   0   6  152.48    9.80
  -2   0   6  144.69    9.20
  -2   0   6  129.69    9.30
  -2   0   6  148.39    9.20
  -2   0   6  156.28    9.40
  -2   0   6  148.59    9.40
   1   0  -6   26.20    1.90
   1   0  -6   23.50    1.80
   1   0  -6   21.40    2.10
   1   0  -6   25.70    2.20
   1   0  -6   24.10    1.90
  -1   0   6   25.30    1.80
  -1   0   6   24.00    2.10
  -1   0   6   25.70    2.00
  -1   0   6   25.80    1.80
  -1   0   6   23.40    2.30
  -1   0   6   20.60    2.20
   0   0  -6   40.10    3.20
   0   0  -6   46.40    2.90
   0   0  -6   40.40    2.80
   0   0  -6   43.10    3.10
   0   0  -6   42.60    2.90
   0   0  -6   44.70    3.10
   0   0  -6   42.90    4.80
   0   0   6   43.80    3.20
   0   0   6   44.70    2.80
   0   0   6   36.90    3.50
   0   0   6   40.50    2.90
   0   0   6   44.90    2.70
  -1   0  -6  377.46   21.90
  -1   0  -6  366.86   21.70
  -1   0  -6  379.96   21.90
  -1   0  -6  355.06   21.70
  -1   0  -6  339.17   21.60
  -1   0  -6  347.17   21.70
  -1   0  -6  322.07   22.20
  -1   0  -6  380.46   21.70
  -1   0  -6  360.16   21.70
  -1   0  -6  325.67   21.70
   1   0   6  324.97   21.70
   1   0   6  381.76   21.60
   1   0   6  349.57   22.00
   1   0   6  401.46   21.60
   1   0   6  301.77   22.10
  -2   0  -6   62.09    4.00
  -2   0  -6   59.59    4.10
  -2   0  -6   62.69    3.90
  -2   0  -6   63.09    4.30
  -2   0  -6   63.29    4.10
  -2   0  -6   64.59    4.30
  -2   0  -6   54.99    4.00
  -2   0  -6   64.29    4.10
   2   0   6   62.69    3.90
   2   0   6   60.89    3.90
   2   0   6   60.79    4.30
  -3   0  -6   11.50    1.30
  -3   0  -6   13.20    1.40
  -3   0  -6   12.30    1.50
  -3   0  -6   13.50    1.30
  -3   0  -6   11.90    1.50
  -3   0  -6   12.00    1.10
  -3   0  -6    8.70    1.70
   3   0   6   14.30    1.80
   3   0   6   12.80    1.00
   3   0   6   12.50    1.10
  -4   0  -6   82.79    5.10
  -4   0  -6   74.89    5.00
  -4   0  -6   80.59    5.40
  -4   0  -6   79.49    5.10
  -4   0  -6   79.59    5.10
  -4   0  -6   76.19    5.00
  -4   0  -6   81.89    5.00
   4   0   6   69.19    5.00
   4   0   6   76.69    5.30
   4   0   6   79.29    4.90
  -5   0  -6    1.20    0.90
  -5   0  -6    1.20    0.50
  -5   0  -6    2.80    1.30
  -5   0  -6    1.60    0.80
  -5   0  -6    0.80    0.70
  -5   0  -6    3.30    0.80
   5   0   6    2.00    1.40
   5   0   6    0.90    0.50
   5   0   6    1.40    0.60
  -6   0  -6   34.80    2.40
  -6   0  -6   33.60    2.40
  -6   0  -6   34.90    2.40
  -6   0  -6   38.30    2.60
  -6   0  -6   31.10    2.60
  -6   0  -6   28.50    3.20
   6   0   6   35.60    2.40
   6   0   6   35.60    2.40
   6   0   6   30.10    3.30
   6   0   6   32.90    2.40
  -7   0  -6   25.70    1.90
  -7   0  -6   24.80    2.00
  -7   0  -6   24.30    2.20
  -7   0  -6   27.20    2.10
   7   0   6   25.00    2.10
   7   0   6   26.00    1.90
   7   0   6   24.70    2.00
   5  -1  -6   37.80    2.50
   5  -1  -6   31.10    2.60
   5  -1  -6   39.40    2.70
  -5   1   6   39.10    2.70
  -5   1   6   41.30    2.70
   4  -1  -6   17.00    1.70
   4  -1  -6   15.00    1.50
  -4   1   6   16.40    1.70
  -4   1   6   16.70    1.40
   3  -1  -6   17.90    1.70
   3  -1  -6   18.90    1.60
   3  -1  -6   20.70    1.80
  -3   1   6   19.70    2.20
  -3   1   6   18.00    1.60
  -3   1   6   19.50    1.90
  -3   1   6   17.60    1.80
   2  -1  -6   11.80    1.20
   2  -1  -6    9.80    1.20
   2  -1  -6    8.60    1.20
  -2   1   6    7.60    1.50
  -2   1   6    8.80    1.50
  -2   1   6    7.70    1.60
  -2   1   6    8.90    1.00
  -2   1   6    7.00    1.10
  -2   1   6    6.50    1.00
   1  -1  -6   32.30    2.50
  -1   1   6   29.10    3.20
  -1   1   6   38.00    2.30
  -1   1   6   38.40    2.40
  -1   1   6   32.10    3.00
  -1   1   6   33.50    2.70
   0  -1  -6   19.30    1.60
   0  -1  -6   19.90    1.60
   0  -1  -6   22.10    2.10
   0  -1  -6   18.50    1.90
   0  -1  -6   19.00    3.00
   0  -1  -6   19.60    1.50
   0   1   6   20.10    1.50
   0   1   6   20.90    1.50
   0   1   6   22.00    1.80
  -1  -1  -6  106.09    6.90
  -1  -1  -6  106.69    6.60
  -1  -1  -6  104.19    6.70
  -1  -1  -6  108.89    6.60
  -1  -1  -6   98.49    6.70
  -1  -1  -6   98.49    6.60
  -1  -1  -6  107.19    6.70
   1   1   6  120.19    7.30
   1   1   6   95.29    6.70
   1   1   6  107.89    6.90
   1   1   6  102.69    6.60
   1   1   6  116.79    6.60
  -2  -1  -6    0.60    0.40
  -2  -1  -6    0.20    0.90
  -2  -1  -6    1.80    1.20
  -2  -1  -6    0.90    0.80
  -2  -1  -6    1.20    0.70
  -2  -1  -6    1.00    0.50
  -2  -1  -6    1.10    0.70
  -2  -1  -6    0.80    0.50
   2   1   6    1.00    0.80
   2   1   6    0.80    0.40
   2   1   6    0.80    0.30
  -3  -1  -6  186.48   11.20
  -3  -1  -6  177.88   11.20
  -3  -1  -6  180.28   11.20
  -3  -1  -6  178.88   11.30
  -3  -1  -6  191.48   11.60
  -3  -1  -6  177.08   11.20
  -3  -1  -6  174.98   11.20
   3   1   6  182.68   11.20
   3   1   6  192.18   11.10
   3   1   6  174.38   11.50
  -4  -1  -6  651.73   38.90
  -4  -1  -6  649.14   38.90
  -4  -1  -6  617.84   38.80
  -4  -1  -6  609.04   38.80
  -4  -1  -6  635.44   38.90
  -4  -1  -6  622.24   38.90
  -4  -1  -6  665.63   38.80
  -4  -1  -6  651.33   39.30
   4   1   6  634.54   39.20
   4   1   6  635.64   38.80
  -5  -1  -6  416.56   25.10
  -5  -1  -6  400.26   25.00
  -5  -1  -6  417.96   25.10
  -5  -1  -6  425.46   25.10
  -5  -1  -6  392.26   25.20
   5   1   6  420.86   25.00
   5   1   6  391.06   25.50
   5   1   6  413.86   25.00
  -6  -1  -6   -0.30    0.80
  -6  -1  -6    1.20    2.00
  -6  -1  -6    0.20    0.60
  -6  -1  -6    1.20    0.90
  -6  -1  -6    1.00    0.80
  -6  -1  -6   -0.50    1.60
  -6  -1  -6   -0.10    0.60
   6   1   6   -2.70    1.90
   6   1   6    1.00    0.60
   6   1   6    0.20    0.50
  -7  -1  -6   51.99    3.30
  -7  -1  -6   50.69    3.40
  -7  -1  -6   46.00    3.50
  -7  -1  -6   52.29    3.30
   7   1   6   46.00    3.50
   7   1   6   47.30    3.30
   7   1   6   51.09    3.20
  -8  -1  -6   22.90    1.60
   8   1   6   24.50    1.80
   5  -2  -6    3.40    0.60
   5  -2  -6    2.80    0.50
  -5   2   6    2.70    0.60
  -5   2   6    1.20    0.90
  -5   2   6    2.20    1.00
   4  -2  -6   56.69    3.70
   4  -2  -6   57.99    3.90
  -4   2   6   56.09    3.90
  -4   2   6   55.89    4.10
  -4   2   6   59.89    3.90
   3  -2  -6   37.80    2.50
   3  -2  -6   36.60    2.60
   3  -2  -6   33.40    2.80
  -3   2   6   35.00    3.20
  -3   2   6   38.20    2.80
  -3   2   6   31.90    2.90
  -3   2   6   35.20    2.50
  -3   2   6   36.10    2.90
   2  -2  -6   26.30    2.40
   2  -2  -6   26.30    2.10
   2  -2  -6   27.90    2.00
  -2   2   6   22.60    2.60
  -2   2   6   27.70    2.10
  -2   2   6   24.40    2.10
  -2   2   6   26.60    2.30
  -2   2   6   28.40    2.10
   1  -2  -6 1166.98   63.89
   1  -2  -6  985.80   63.99
   1  -2  -6 1018.10   63.89
   1  -2  -6 1059.09   63.89
  -1   2   6  991.70   64.09
  -1   2   6 1045.20   64.19
  -1   2   6 1104.39   63.89
  -1   2   6 1039.30   64.09
   0  -2  -6  159.08   10.40
   0  -2  -6  162.88   10.50
   0  -2  -6  163.28   10.40
   0   2   6  183.18   10.40
   0   2   6  169.28   10.70
   0   2   6  172.38   10.40
  -1  -2  -6    5.20    0.70
  -1  -2  -6    3.20    0.60
  -1  -2  -6    5.00    0.80
  -1  -2  -6    4.00    0.70
  -1  -2  -6    5.50    1.20
  -1  -2  -6    4.00    0.60
   1   2   6    4.20    0.60
   1   2   6    3.10    0.50
   1   2   6    4.10    0.90
  -2  -2  -6    0.90    0.70
  -2  -2  -6    1.00    0.50
  -2  -2  -6    1.10    0.70
  -2  -2  -6    0.80    0.60
  -2  -2  -6    1.30    0.60
  -2  -2  -6    0.50    1.00
  -2  -2  -6    1.50    0.60
   2   2   6    0.00    0.30
   2   2   6   -0.50    0.80
   2   2   6    0.50    0.40
  -3  -2  -6    1.90    0.80
  -3  -2  -6    2.50    0.60
  -3  -2  -6    1.60    0.70
   3   2   6    2.00    0.40
   3   2   6    1.50    0.60
   3   2   6    1.60    0.70
  -4  -2  -6  126.09    7.90
  -4  -2  -6  130.89    8.20
  -4  -2  -6  125.69    8.00
  -4  -2  -6  125.49    8.10
  -4  -2  -6  134.39    8.40
  -4  -2  -6  134.69    8.10
  -4  -2  -6  124.99    7.90
   4   2   6  130.79    8.40
   4   2   6  117.09    7.90
  -5  -2  -6  554.54   32.90
  -5  -2  -6  531.75   32.90
  -5  -2  -6  490.65   32.80
  -5  -2  -6  545.15   32.90
  -5  -2  -6  552.24   32.80
   5   2   6  547.95   32.80
   5   2   6  508.15   33.20
   5   2   6  572.24   32.80
  -6  -2  -6  199.88   12.20
  -6  -2  -6  199.08   12.20
  -6  -2  -6  199.28   12.10
  -6  -2  -6  189.78   12.20
   6   2   6  188.58   12.10
   6   2   6  197.38   12.10
   6   2   6  195.88   12.00
  -7  -2  -6    7.60    0.90
  -7  -2  -6    6.80    1.00
  -7  -2  -6    7.30    1.40
  -7  -2  -6    7.30    0.90
   7   2   6    7.00    1.10
   7   2   6    6.60    1.50
  -8  -2  -6    0.40    0.80
  -8  -2  -6    0.70    0.40
   4  -3  -6   28.50    2.00
   4  -3  -6   26.60    1.80
  -4   3   6   20.90    1.80
  -4   3   6   24.70    2.00
  -4   3   6   22.40    2.20
   3  -3  -6   13.20    1.40
   3  -3  -6   13.00    1.30
  -3   3   6   12.70    1.50
  -3   3   6   14.50    1.60
  -3   3   6   11.70    1.90
   2  -3  -6  159.98    9.20
   2  -3  -6  137.49    9.20
   2  -3  -6  157.68    9.20
  -2   3   6  155.78    9.20
  -2   3   6  144.49    9.20
  -2   3   6  132.79    9.50
  -2   3   6  144.79    9.30
   1  -3  -6  422.56   27.10
   1  -3  -6  464.15   27.10
   1  -3  -6  449.06   27.10
   1  -3  -6  443.46   27.20
  -1   3   6  481.55   27.10
  -1   3   6  405.76   27.20
   0  -3  -6   20.40    1.70
   0  -3  -6   23.70    1.80
   0  -3  -6   23.60    1.60
   0  -3  -6   22.80    1.70
   0  -3  -6   21.60    2.90
   0   3   6   24.00    2.00
   0   3   6   18.00    2.30
  -1  -3  -6    6.80    0.80
  -1  -3  -6    7.40    1.10
  -1  -3  -6    6.20    0.90
  -1  -3  -6    8.00    1.50
  -1  -3  -6    6.30    1.00
   1   3   6    6.70    0.80
   1   3   6    7.80    1.20
  -2  -3  -6  243.98   14.50
  -2  -3  -6  237.48   14.70
  -2  -3  -6  248.88   14.50
  -2  -3  -6  211.48   14.50
  -2  -3  -6  242.68   14.60
  -2  -3  -6  244.28   14.60
   2   3   6  239.18   14.50
   2   3   6  237.08   14.80
   2   3   6  226.28   14.50
  -3  -3  -6  146.49    9.50
  -3  -3  -6  160.18    9.40
  -3  -3  -6  144.59    9.90
  -3  -3  -6  155.18    9.40
  -3  -3  -6  156.18    9.50
  -3  -3  -6  157.58    9.40
   3   3   6  138.99    9.40
   3   3   6  152.28    9.30
   3   3   6  150.18    9.70
  -4  -3  -6  147.09    8.90
  -4  -3  -6  146.19    8.70
  -4  -3  -6  141.09    8.80
  -4  -3  -6  138.49    9.30
  -4  -3  -6  132.59    8.70
  -4  -3  -6  140.69    8.90
   4   3   6  140.99    9.20
   4   3   6  128.09    8.70
   4   3   6  145.49    8.60
  -5  -3  -6   -0.60    1.70
  -5  -3  -6   -0.20    0.60
  -5  -3  -6    0.00    0.70
  -5  -3  -6    0.30    0.70
  -5  -3  -6    0.00    0.90
   5   3   6    1.00    0.50
   5   3   6   -1.90    1.60
   5   3   6    2.00    0.90
  -6  -3  -6   38.20    2.70
  -6  -3  -6   39.20    2.70
  -6  -3  -6   39.10    4.60
  -6  -3  -6   37.90    2.70
   6   3   6   35.70    2.70
   6   3   6   38.10    2.60
  -7  -3  -6  123.79    7.20
  -7  -3  -6  110.19    7.10
  -7  -3  -6  111.79    7.20
   7   3   6  109.99    7.10
   7   3   6  113.19    7.10
  -8  -3  -6    8.10    0.80
  -8  -3  -6    7.90    0.90
   8   3   6    9.70    1.20
   4  -4  -6    3.50    0.50
  -4   4   6    4.00    0.60
   3  -4  -6  282.17   16.70
   3  -4  -6  298.87   16.80
  -3   4   6  292.07   16.80
  -3   4   6  233.58   16.80
  -3   4   6  257.67   16.70
   2  -4  -6   72.99    4.40
   2  -4  -6   70.89    4.40
  -2   4   6   69.39    4.50
  -2   4   6   68.49    4.40
  -2   4   6   59.69    4.40
   1  -4  -6    0.10    0.60
   1  -4  -6    0.80    0.70
   1  -4  -6    0.30    0.80
   1  -4  -6    0.70    0.60
  -1   4   6    0.00    1.10
  -1   4   6    1.00    1.50
  -1   4   6    1.40    0.60
   0  -4  -6  733.03   45.10
   0  -4  -6  723.03   45.10
   0  -4  -6  719.73   45.10
   0  -4  -6  785.52   45.10
   0   4   6  777.32   45.10
   0   4   6  666.03   45.30
   0   4   6  783.52   45.20
  -1  -4  -6   27.60    2.10
  -1  -4  -6   26.80    2.10
  -1  -4  -6   25.70    2.50
  -1  -4  -6   26.10    2.10
  -1  -4  -6   29.10    2.00
  -1  -4  -6   30.30    2.10
   1   4   6   26.70    2.00
   1   4   6   28.90    2.00
  -2  -4  -6  254.57   15.60
  -2  -4  -6  257.57   15.70
  -2  -4  -6  252.37   15.60
  -2  -4  -6  263.07   15.60
  -2  -4  -6  250.27   15.70
   2   4   6  244.18   15.60
   2   4   6  254.77   15.50
  -3  -4  -6   13.10    1.70
  -3  -4  -6   13.60    1.20
  -3  -4  -6   12.90    1.40
  -3  -4  -6   11.10    1.20
  -3  -4  -6   12.50    1.80
   3   4   6   10.80    1.00
  -4  -4  -6  273.47   16.00
  -4  -4  -6  258.67   15.90
  -4  -4  -6  249.97   15.80
  -4  -4  -6  269.47   15.80
   4   4   6  236.58   16.30
   4   4   6  254.77   15.70
  -5  -4  -6   66.99    4.40
  -5  -4  -6   63.89    4.20
  -5  -4  -6   67.09    4.20
  -5  -4  -6   56.49    4.10
   5   4   6   65.49    4.10
  -6  -4  -6  166.08   10.30
  -6  -4  -6  167.38   10.40
  -7  -4  -6  186.98   10.90
  -7  -4  -6  160.88   10.70
  -7  -4  -6  176.08   10.80
   3  -5  -6  102.69    6.40
   3  -5  -6  111.29    6.40
  -3   5   6  102.89    6.50
  -3   5   6  100.49    6.60
   2  -5  -6   40.70    2.70
   2  -5  -6   42.90    2.60
   2  -5  -6   40.60    2.50
  -2   5   6   40.60    2.70
  -2   5   6   32.20    2.70
  -2   5   6   34.80    2.70
  -2   5   6   37.20    2.60
   1  -5  -6  108.39    6.10
  -1   5   6   85.99    6.20
  -1   5   6   87.89    6.10
  -1   5   6   98.69    6.00
   0  -5  -6  134.09    7.90
   0  -5  -6  121.39    7.70
   0  -5  -6  131.29    7.90
   0  -5  -6  128.79    7.80
   0  -5  -6  136.39    7.80
   0   5   6  109.79    8.30
   0   5   6  127.09    7.80
   0   5   6  131.39    7.90
   0   5   6  105.09    8.00
  -1  -5  -6  100.79    6.40
  -1  -5  -6  110.79    6.60
  -1  -5  -6  105.79    6.50
  -1  -5  -6  100.09    6.50
   1   5   6  103.09    6.40
   1   5   6   95.19    6.90
  -2  -5  -6  453.35   26.00
  -2  -5  -6  444.66   25.90
  -2  -5  -6  401.26   26.00
  -2  -5  -6  437.36   26.00
   2   5   6  394.36   26.20
   2   5   6  414.96   25.90
  -3  -5  -6   16.50    1.60
  -3  -5  -6   17.60    1.40
  -3  -5  -6   16.70    1.90
  -3  -5  -6   17.50    1.50
   3   5   6   16.40    1.40
   3   5   6   16.10    2.90
  -4  -5  -6   64.89    4.20
  -4  -5  -6   62.99    4.20
  -4  -5  -6   64.69    4.30
  -4  -5  -6   61.39    4.10
  -5  -5  -6    2.00    0.70
  -5  -5  -6    4.60    1.80
  -6  -5  -6  103.19    6.20
  -6  -5  -6   90.29    6.10
  -6  -5  -6  101.39    6.20
  -7  -5  -6   21.40    1.80
  -7  -5  -6   19.60    1.70
  -7  -5  -6   25.30    1.70
   2  -6  -6    6.80    0.80
   2  -6  -6    5.60    0.70
  -2   6   6    6.50    0.90
   1  -6  -6  106.69    7.20
   1  -6  -6  118.19    7.20
   1  -6  -6  114.09    7.20
   1  -6  -6  123.19    7.20
  -1   6   6  118.49    7.20
   0  -6  -6    4.50    0.70
   0  -6  -6    2.20    0.70
   0  -6  -6    3.10    0.90
   0  -6  -6    4.40    0.60
   0   6   6    5.80    0.90
   0   6   6    2.90    0.90
  -1  -6  -6    0.40    0.80
  -1  -6  -6    0.20    0.70
   1   6   6    0.90    1.00
   1   6   6    0.40    0.70
   1   6   6    1.10    0.70
  -2  -6  -6   19.20    2.60
   2   6   6   16.80    1.50
   2   6   6   15.80    2.00
   2   6   6   18.20    1.70
  -3  -6  -6    4.40    0.80
   3   6   6    3.50    1.60
  -4  -6  -6   93.59    6.40
  -4  -6  -6  101.09    6.30
  -4  -6  -6  103.79    6.30
  -4  -6  -6  100.19    6.30
  -5  -6  -6  105.79    6.80
  -5  -6  -6  111.99    6.80
  -5  -6  -6  111.29    6.80
  -5  -6  -6  104.89    6.70
  -6  -6  -6   25.00    1.80
  -6  -6  -6   22.20    1.70
   0  -7  -6   25.60    1.90
   0  -7  -6   25.80    1.80
   0   7   6   31.90    1.90
  -1  -7  -6   23.50    1.80
  -1  -7  -6   24.30    1.70
  -1  -7  -6   25.30    1.60
   1   7   6   21.30    1.80
  -2  -7  -6    5.00    0.70
  -2  -7  -6    3.10    0.90
  -2  -7  -6    6.30    0.70
   2   7   6    2.40    1.20
  -3  -7  -6  152.68    8.80
  -3  -7  -6  128.89    8.80
  -3  -7  -6  146.29    8.80
  -4  -7  -6    0.60    0.40
  -4  -7  -6    0.60    0.50
  -4  -7  -6    0.80    0.70
  -5  -7  -6  121.29    7.10
  -5  -7  -6  107.59    7.00
   2   6  -7   13.90    1.10
  -2  -6   7   12.60    1.10
  -2  -6   7   14.80    1.20
   1   6  -7    6.60    1.10
   1   6  -7    8.70    0.80
  -1  -6   7    9.00    0.90
  -1  -6   7    8.40    0.90
  -1  -6   7    9.80    0.80
   0   6  -7    7.90    1.00
   0  -6   7    7.60    0.80
   0  -6   7    8.60    0.80
   0  -6   7    8.30    1.10
  -1   6  -7  107.09    7.10
  -1   6  -7  115.89    7.10
   1  -6   7  114.99    7.10
   1  -6   7  119.69    7.10
  -2   6  -7   26.30    2.10
  -2   6  -7   26.70    1.80
   2  -6   7   23.10    1.60
   2  -6   7   20.60    1.60
   3   5  -7   10.60    1.20
   3   5  -7   14.20    1.10
  -3  -5   7   12.90    1.10
  -3  -5   7   15.00    1.20
   2   5  -7   81.79    5.60
   2   5  -7   94.99    5.60
  -2  -5   7   84.59    5.70
  -2  -5   7   96.59    5.70
   1   5  -7  227.28   15.10
   1   5  -7  251.17   15.50
   1   5  -7  256.47   15.20
  -1  -5   7  255.87   15.30
  -1  -5   7  246.18   15.20
   0   5  -7    4.20    0.90
   0   5  -7    3.60    0.70
   0  -5   7    4.90    0.90
   0  -5   7    6.30    1.00
   0  -5   7    4.50    0.80
  -1   5  -7   15.00    1.40
   1  -5   7   15.50    1.30
   1  -5   7   14.00    1.60
   1  -5   7   15.30    1.30
  -2   5  -7   59.49    4.10
  -2   5  -7   60.99    4.10
  -2   5  -7   58.29    4.00
   2  -5   7   67.29    4.10
   2  -5   7   67.49    4.00
  -3   5  -7   38.20    2.60
  -3   5  -7   35.40    2.60
  -3   5  -7   37.20    2.80
   3  -5   7   40.80    2.50
   3  -5   7   41.50    2.70
  -4   5  -7    0.50    0.60
  -4   5  -7    0.90    0.50
  -4   5  -7    1.40    0.70
   4  -5   7    0.30    0.50
   4  -5   7    1.00    0.30
   4   4  -7   61.39    3.90
  -4  -4   7   62.79    3.90
  -4  -4   7   57.59    3.90
   3   4  -7   75.99    5.80
   3   4  -7   77.39    5.10
   3   4  -7   84.49    5.20
  -3  -4   7   88.19    5.20
  -3  -4   7   76.69    5.20
   2   4  -7   43.90    3.20
   2   4  -7   35.10    2.80
   2   4  -7   41.40    3.00
   2   4  -7   41.10    2.70
   1   4  -7    7.90    1.00
   1   4  -7    5.80    1.00
   1   4  -7    4.40    1.30
   1   4  -7    2.10    1.80
  -1  -4   7    8.50    1.30
  -1  -4   7    6.00    1.00
   0   4  -7   48.80    3.20
   0   4  -7   49.80    3.60
   0   4  -7   40.30    3.00
   0   4  -7   47.80    3.40
   0  -4   7   44.50    3.20
   0  -4   7   48.60    3.10
   0  -4   7   44.50    3.20
  -1   4  -7   27.50    2.30
  -1   4  -7   26.20    2.70
  -1   4  -7   29.60    2.20
   1  -4   7   30.40    2.40
   1  -4   7   30.30    2.00
   1  -4   7   27.20    2.10
  -2   4  -7    3.10    0.70
  -2   4  -7    1.20    0.50
   2  -4   7    2.30    0.80
   2  -4   7    2.80    0.60
  -3   4  -7  210.28   13.70
  -3   4  -7  234.58   13.70
  -3   4  -7  238.88   13.80
   3  -4   7  240.18   13.80
   3  -4   7  213.68   13.60
   3  -4   7  195.28   13.60
  -4   4  -7   39.90    2.60
  -4   4  -7   34.30    2.60
  -4   4  -7   35.70    2.50
   4  -4   7   37.90    2.60
   4  -4   7   43.00    2.60
   4  -4   7   39.50    2.80
  -5   4  -7   92.89    6.00
  -5   4  -7  113.89    6.10
  -5   4  -7   92.39    6.10
   5  -4   7   91.79    6.10
   5  -4   7   94.99    6.00
   4   3  -7   57.39    3.50
   4   3  -7   47.20    3.90
  -4  -3   7   58.29    3.50
  -4  -3   7   58.59    3.50
  -4  -3   7   48.70    3.90
  -4  -3   7   49.60    3.60
   3   3  -7    0.30    0.70
   3   3  -7   -0.10    0.70
  -3  -3   7    0.20    0.80
  -3  -3   7    0.50    0.80
  -3  -3   7   -0.30    0.70
   2   3  -7  314.17   18.50
   2   3  -7  297.97   18.50
   2   3  -7  283.07   18.30
  -2  -3   7  294.67   19.70
  -2  -3   7  259.87   18.40
  -2  -3   7  316.17   18.50
  -2  -3   7  333.17   18.50
   1   3  -7    0.60    0.60
   1   3  -7    0.00    1.00
   1   3  -7    0.20    0.70
   1   3  -7    1.10    1.10
   1   3  -7    0.40    1.00
   1   3  -7    2.30    2.60
  -1  -3   7    0.10    1.60
  -1  -3   7    0.20    0.90
  -1  -3   7    1.10    0.70
  -1  -3   7    0.80    0.60
   0   3  -7    4.70    2.60
   0   3  -7    5.40    0.90
   0   3  -7    4.70    0.80
   0   3  -7    4.60    0.90
   0   3  -7    5.00    0.90
   0  -3   7    5.00    0.80
   0  -3   7    3.90    2.10
   0  -3   7    4.00    0.70
   0  -3   7    4.50    0.90
  -1   3  -7    1.90    0.80
  -1   3  -7    2.90    1.10
  -1   3  -7    2.50    0.90
  -1   3  -7    2.30    3.30
   1  -3   7    2.40    0.50
   1  -3   7    2.90    1.40
   1  -3   7    2.30    0.90
   1  -3   7    1.70    0.90
  -2   3  -7   69.39    4.50
  -2   3  -7   70.99    4.40
  -2   3  -7   75.59    4.50
  -2   3  -7   62.69    4.50
   2  -3   7   63.29    4.50
   2  -3   7   68.69    4.60
   2  -3   7   54.89    5.50
   2  -3   7   66.69    4.30
  -3   3  -7  188.98   11.40
  -3   3  -7  191.48   11.40
  -3   3  -7  173.78   11.40
  -3   3  -7  164.08   11.40
   3  -3   7  181.98   11.30
   3  -3   7  189.98   11.40
   3  -3   7  189.08   11.30
  -4   3  -7   11.50    1.70
   4  -3   7   12.70    1.20
   4  -3   7   12.20    2.00
   4  -3   7   15.10    1.80
  -5   3  -7   18.70    2.00
  -5   3  -7   25.40    1.80
  -5   3  -7   24.00    1.70
   5  -3   7   21.50    1.70
   5  -3   7   22.60    1.80
  -6   3  -7    3.50    0.60
  -6   3  -7    3.40    0.50
   6  -3   7    2.90    0.60
   5   2  -7    0.40    0.50
  -5  -2   7    0.10    0.40
  -5  -2   7    0.90    0.50
  -5  -2   7    0.60    0.70
  -5  -2   7   -0.20    1.00
   4   2  -7   18.70    2.00
   4   2  -7   19.00    1.70
  -4  -2   7   20.80    1.70
  -4  -2   7   20.00    1.50
  -4  -2   7   19.90    2.10
  -4  -2   7   16.10    1.50
   3   2  -7   -0.20    1.00
   3   2  -7    0.90    0.90
  -3  -2   7    3.50    1.60
  -3  -2   7    0.40    0.60
  -3  -2   7   -0.40    0.50
   2   2  -7   31.50    2.50
   2   2  -7   33.50    3.80
   2   2  -7   35.40    2.50
  -2  -2   7   31.50    2.50
  -2  -2   7   32.80    2.60
  -2  -2   7   36.70    2.50
  -2  -2   7   27.50    3.90
  -2  -2   7   36.00    2.40
   1   2  -7   31.80    2.40
   1   2  -7   28.60    3.30
   1   2  -7   28.30    2.30
   1   2  -7   30.10    2.40
  -1  -2   7   31.60    2.50
  -1  -2   7   31.90    2.30
  -1  -2   7   31.40    2.70
  -1  -2   7   29.50    2.90
  -1  -2   7   31.90    2.20
   0   2  -7   49.10    3.30
   0   2  -7   49.80    3.30
   0   2  -7   49.80    3.40
   0   2  -7   40.40    3.50
   0  -2   7   43.90    3.10
   0  -2   7   51.09    3.30
   0  -2   7   49.80    3.50
  -1   2  -7  300.17   18.10
  -1   2  -7  289.67   18.10
  -1   2  -7  309.87   18.10
   1  -2   7  283.37   18.50
   1  -2   7  294.77   18.10
   1  -2   7  263.87   18.20
   1  -2   7  310.47   18.00
   1  -2   7  303.47   18.00
  -2   2  -7   68.29    4.50
  -2   2  -7   58.89    5.50
  -2   2  -7   72.69    4.40
  -2   2  -7   67.99    4.40
   2  -2   7   65.89    4.30
   2  -2   7   66.39    4.50
   2  -2   7   65.79    4.20
   2  -2   7   61.29    4.50
   2  -2   7   66.99    4.20
  -3   2  -7  193.08   11.60
  -3   2  -7  175.88   11.60
  -3   2  -7  191.88   11.60
  -3   2  -7  177.48   12.10
  -3   2  -7  203.48   11.60
   3  -2   7  195.28   11.50
   3  -2   7  181.68   11.50
   3  -2   7  196.58   11.50
   3  -2   7  187.18   11.50
   3  -2   7  163.28   12.10
   3  -2   7  184.48   11.80
  -4   2  -7   -1.00    0.70
  -4   2  -7    0.40    2.10
  -4   2  -7   -0.10    0.70
   4  -2   7    2.00    1.10
   4  -2   7    2.30    2.50
   4  -2   7    0.50    0.60
   4  -2   7   -0.50    1.00
   4  -2   7    1.00    0.50
   4  -2   7    0.30    0.60
  -5   2  -7    0.80    0.50
  -5   2  -7   -0.30    0.80
   5  -2   7    1.40    0.70
   5  -2   7    1.40    0.80
   5  -2   7    1.00    0.50
   5  -2   7    1.00    1.40
  -6   2  -7    8.50    0.90
  -6   2  -7    8.00    1.00
   6  -2   7    6.40    0.90
   6  -2   7    7.20    1.10
   5   1  -7   46.50    3.20
  -5  -1   7   46.90    3.20
  -5  -1   7   50.79    3.20
  -5  -1   7   49.60    3.70
   4   1  -7  116.09    7.50
   4   1  -7  121.09    7.40
  -4  -1   7  120.49    7.40
  -4  -1   7  114.39    7.40
   3   1  -7    4.50    1.00
   3   1  -7    3.20    0.70
   3   1  -7    3.60    0.70
  -3  -1   7    3.40    0.90
  -3  -1   7    4.50    1.00
  -3  -1   7    3.40    0.80
   2   1  -7  353.26   23.10
   2   1  -7  356.16   22.60
   2   1  -7  374.56   22.70
   2   1  -7  382.76   22.70
  -2  -1   7  326.37   23.20
  -2  -1   7  372.76   22.70
  -2  -1   7  401.46   22.70
  -2  -1   7  389.26   22.70
   1   1  -7   67.49    4.30
   1   1  -7   59.99    4.10
   1   1  -7   63.69    4.20
  -1  -1   7   62.89    4.10
  -1  -1   7   63.29    4.30
  -1  -1   7   66.99    4.30
   0   1  -7   60.99    3.90
   0   1  -7   56.39    3.90
   0   1  -7   58.29    4.60
   0   1  -7   60.19    3.90
   0   1  -7   59.49    4.00
   0  -1   7   61.99    3.80
   0  -1   7   58.89    3.80
   0  -1   7   58.29    4.50
   0  -1   7   57.19    4.10
   0  -1   7   59.49    4.00
  -1   1  -7   64.09    4.30
  -1   1  -7   59.09    4.70
  -1   1  -7   68.59    4.40
  -1   1  -7   67.69    4.30
   1  -1   7   61.79    4.60
   1  -1   7   66.09    4.10
   1  -1   7   66.49    4.80
   1  -1   7   61.69    4.30
   1  -1   7   67.39    4.20
  -2   1  -7    0.40    0.90
  -2   1  -7    0.90    0.60
  -2   1  -7    0.10    0.70
  -2   1  -7    0.80    0.80
  -2   1  -7    1.20    2.10
  -2   1  -7    1.40    1.40
   2  -1   7   -1.70    1.50
   2  -1   7    0.70    0.40
   2  -1   7    0.80    0.90
  -3   1  -7  204.88   11.90
  -3   1  -7  180.78   12.30
  -3   1  -7  194.38   11.90
  -3   1  -7  185.28   11.80
  -3   1  -7  175.18   11.80
  -3   1  -7  204.28   11.80
   3  -1   7  192.58   11.70
   3  -1   7  180.78   11.70
   3  -1   7  198.38   11.80
  -4   1  -7  452.05   26.90
  -4   1  -7  464.45   26.90
  -4   1  -7  403.86   26.80
  -4   1  -7  467.75   26.90
  -4   1  -7  401.36   27.20
  -4   1  -7  458.85   26.80
   4  -1   7  447.56   26.80
   4  -1   7  450.35   26.70
   4  -1   7  397.66   27.20
  -5   1  -7  354.96   25.80
  -5   1  -7  434.86   25.20
  -5   1  -7  421.16   25.30
   5  -1   7  426.96   25.20
   5  -1   7  440.46   25.20
   5  -1   7  392.36   25.10
  -6   1  -7   15.60    1.40
  -6   1  -7   16.70    1.60
   6  -1   7   14.50    1.50
   6  -1   7   14.40    1.30
   6  -1   7   15.40    1.50
  -7   1  -7   50.29    3.10
  -7   1  -7   47.50    3.10
   7  -1   7   49.99    3.20
   7  -1   7   44.90    3.10
   5   0  -7   22.10    2.20
   5   0  -7   18.20    1.40
  -5   0   7   20.30    1.60
  -5   0   7   17.00    1.60
   4   0  -7  194.48   12.60
   4   0  -7  204.08   12.50
   4   0  -7  206.58   12.50
  -4   0   7  219.78   12.60
  -4   0   7  199.68   12.60
  -4   0   7  193.88   12.50
   3   0  -7   64.69    4.30
   3   0  -7   62.09    4.20
   3   0  -7   67.19    4.30
  -3   0   7   66.09    4.30
  -3   0   7   65.59    4.40
  -3   0   7   63.39    4.30
   2   0  -7    6.00    0.80
   2   0  -7    8.40    1.50
   2   0  -7    8.20    1.30
  -2   0   7    8.70    1.40
  -2   0   7    5.80    1.20
  -2   0   7    7.50    2.00
  -2   0   7    6.60    1.00
   1   0  -7  772.32   47.10
   1   0  -7  766.42   46.20
   1   0  -7  792.42   46.20
   1   0  -7  739.43   46.10
  -1   0   7  775.52   46.20
  -1   0   7  794.72   46.10
  -1   0   7  730.23   46.20
  -1   0   7  643.34   46.30
  -1   0   7  806.92   46.10
   0   0  -7  151.58    9.20
   0   0  -7  145.39    9.10
   0   0  -7  145.99    9.20
   0   0  -7  144.59    9.50
   0   0  -7  149.88    9.10
   0   0   7  153.58    9.10
   0   0   7  132.59    9.50
   0   0   7  147.49    9.20
   0   0   7  150.48    9.10
  -1   0  -7   22.50    1.60
  -1   0  -7   21.30    1.50
  -1   0  -7   20.80    1.70
  -1   0  -7   21.40    1.80
  -1   0  -7   22.10    2.10
  -1   0  -7   17.30    1.90
  -1   0  -7   17.80    2.30
   1   0   7   23.00    1.50
   1   0   7   22.80    1.60
   1   0   7   22.00    2.40
  -2   0  -7    1.10    0.80
  -2   0  -7   -0.40    1.30
  -2   0  -7    1.20    0.50
  -2   0  -7    2.10    1.90
  -2   0  -7    1.80    0.90
  -2   0  -7    1.50    0.60
  -2   0  -7    0.20    0.90
   2   0   7   -0.70    1.10
   2   0   7    0.70    0.40
  -3   0  -7   77.49    4.70
  -3   0  -7   77.19    4.80
  -3   0  -7   74.19    4.60
  -3   0  -7   67.79    4.70
  -3   0  -7   70.89    4.80
  -3   0  -7   68.69    4.70
  -3   0  -7   68.89    5.20
   3   0   7   73.89    4.60
   3   0   7   66.99    5.20
   3   0   7   74.29    4.60
  -4   0  -7   51.49    3.50
  -4   0  -7   53.89    3.80
  -4   0  -7   56.79    3.60
  -4   0  -7   53.79    3.60
  -4   0  -7   53.99    3.50
  -4   0  -7   53.99    3.70
   4   0   7   50.89    3.50
   4   0   7   56.19    3.50
   4   0   7   53.19    3.50
   4   0   7   51.29    4.10
  -5   0  -7  232.78   13.80
  -5   0  -7  229.28   13.80
  -5   0  -7  203.28   14.40
  -5   0  -7  241.38   13.80
  -5   0  -7  228.38   13.80
  -5   0  -7  222.38   13.80
   5   0   7  235.08   13.80
   5   0   7  232.88   13.70
   5   0   7  205.98   13.70
   5   0   7  200.08   14.40
  -6   0  -7   48.40    3.20
  -6   0  -7   51.19    3.20
  -6   0  -7   44.50    3.20
  -6   0  -7   51.49    3.40
  -6   0  -7   45.60    3.20
   6   0   7   46.50    3.20
   6   0   7   50.09    3.20
   6   0   7   48.80    3.20
  -7   0  -7    3.60    1.00
  -7   0  -7    2.70    0.50
   7   0   7    3.30    0.70
   7   0   7    0.70    0.90
   7   0   7    1.10    0.70
   5  -1  -7   42.70    2.60
   5  -1  -7   38.20    2.80
  -5   1   7   39.50    2.80
  -5   1   7   45.10    2.90
   4  -1  -7   13.10    1.40
   4  -1  -7   15.60    1.50
   4  -1  -7   15.60    1.30
  -4   1   7   15.20    1.50
  -4   1   7   13.80    1.30
  -4   1   7   14.00    1.50
   3  -1  -7   53.59    3.50
   3  -1  -7   51.89    3.60
   3  -1  -7   54.09    3.70
  -3   1   7   56.29    3.70
   2  -1  -7  123.49    7.20
   2  -1  -7  118.49    7.40
   2  -1  -7  122.59    7.30
  -2   1   7  104.19    7.70
  -2   1   7  115.79    7.30
  -2   1   7  105.79    7.30
  -2   1   7  118.69    7.30
  -2   1   7  110.99    7.50
   1  -1  -7  286.27   16.90
   1  -1  -7  278.67   17.10
   1  -1  -7  293.07   17.00
   1  -1  -7  271.67   16.90
  -1   1   7  293.07   17.10
  -1   1   7  282.67   16.90
  -1   1   7  258.27   17.20
  -1   1   7  249.88   17.20
  -1   1   7  272.07   16.90
   0  -1  -7    0.80    0.60
   0  -1  -7    0.20    0.60
   0  -1  -7    2.00    1.00
   0  -1  -7    0.70    0.40
   0  -1  -7   -0.10    0.50
   0   1   7    0.30    0.50
   0   1   7    0.60    0.70
   0   1   7    0.40    0.80
  -1  -1  -7    8.70    1.20
  -1  -1  -7    8.50    1.30
  -1  -1  -7    8.80    0.90
  -1  -1  -7    7.50    1.10
  -1  -1  -7    8.70    0.80
   1   1   7    5.90    1.10
   1   1   7    7.90    1.00
   1   1   7    6.10    1.40
  -2  -1  -7  208.38   12.70
  -2  -1  -7  180.28   13.00
  -2  -1  -7  210.08   12.60
  -2  -1  -7  217.38   12.80
  -2  -1  -7  197.98   12.60
  -2  -1  -7  197.28   12.60
  -2  -1  -7  222.18   12.60
   2   1   7  191.68   13.10
   2   1   7  218.28   12.60
  -3  -1  -7   27.20    2.10
  -3  -1  -7   29.10    2.40
  -3  -1  -7   27.30    2.80
  -3  -1  -7   28.20    2.20
  -3  -1  -7   28.30    2.20
  -3  -1  -7   29.10    2.00
  -3  -1  -7   29.80    2.20
   3   1   7   29.80    2.00
   3   1   7   27.20    2.50
   3   1   7   28.70    2.00
  -4  -1  -7  171.98   10.70
  -4  -1  -7  178.08   10.70
  -4  -1  -7  158.08   10.50
  -4  -1  -7  169.38   10.60
  -4  -1  -7  175.28   10.60
  -4  -1  -7  168.78   10.60
  -4  -1  -7  172.88   10.70
   4   1   7  171.78   10.50
   4   1   7  184.48   10.50
   4   1   7  157.18   11.00
  -5  -1  -7   35.60    3.30
  -5  -1  -7   36.90    2.70
  -5  -1  -7   39.00    2.70
  -5  -1  -7   35.50    2.60
  -5  -1  -7   39.80    2.70
  -5  -1  -7   40.90    2.90
   5   1   7   40.40    2.60
   5   1   7   36.50    2.60
   5   1   7   34.90    3.80
  -6  -1  -7    0.70    0.70
  -6  -1  -7    0.10    0.60
  -6  -1  -7    1.50    0.60
  -6  -1  -7    0.60    0.60
   6   1   7    0.80    0.50
   6   1   7    0.90    0.60
   6   1   7    0.50    0.60
  -7  -1  -7   70.29    4.60
  -7  -1  -7   72.49    4.60
  -7  -1  -7   72.09    4.60
   7   1   7   70.19    4.60
   7   1   7   74.39    4.60
   4  -2  -7    2.90    0.60
   4  -2  -7    3.30    0.50
   4  -2  -7    5.30    1.70
  -4   2   7    3.20    0.60
  -4   2   7    1.70    0.80
  -4   2   7    1.90    1.20
   3  -2  -7   75.99    5.50
   3  -2  -7   81.79    5.60
  -3   2   7   93.19    5.70
  -3   2   7   95.99    5.60
   2  -2  -7   37.60    2.50
   2  -2  -7   33.50    2.70
   2  -2  -7   36.40    2.30
  -2   2   7   32.40    2.50
  -2   2   7   33.70    2.50
  -2   2   7   40.70    3.20
  -2   2   7   25.50    4.10
  -2   2   7   34.40    2.70
  -2   2   7   34.90    2.50
   1  -2  -7    0.50    0.60
   1  -2  -7    0.80    0.70
   1  -2  -7   -0.90    1.00
   1  -2  -7    0.40    0.60
  -1   2   7    1.00    0.60
  -1   2   7    0.00    0.60
  -1   2   7    1.20    1.20
  -1   2   7    0.80    1.40
   0  -2  -7  181.88   11.30
   0  -2  -7  173.98   11.30
   0  -2  -7  187.38   11.30
   0  -2  -7  194.08   11.30
   0  -2  -7  175.18   11.40
   0   2   7  195.78   11.30
   0   2   7  186.38   11.30
   0   2   7  170.28   11.70
  -1  -2  -7  224.98   14.40
  -1  -2  -7  242.88   14.30
  -1  -2  -7  223.78   14.30
  -1  -2  -7  222.68   14.40
  -1  -2  -7  230.48   14.30
  -1  -2  -7  233.88   14.30
   1   2   7  251.07   14.30
   1   2   7  231.28   14.70
   1   2   7  234.58   14.30
  -2  -2  -7   98.99    6.00
  -2  -2  -7   97.19    6.00
  -2  -2  -7   92.09    6.00
  -2  -2  -7   91.49    6.20
  -2  -2  -7   91.49    6.00
  -2  -2  -7   97.09    6.00
   2   2   7   95.99    6.00
   2   2   7   99.29    6.60
  -3  -2  -7   35.80    2.30
  -3  -2  -7   31.90    2.50
  -3  -2  -7   33.10    3.20
  -3  -2  -7   36.20    2.50
  -3  -2  -7   38.10    2.80
  -3  -2  -7   34.70    2.40
  -3  -2  -7   34.60    2.50
   3   2   7   35.30    2.30
   3   2   7   34.00    2.90
   3   2   7   35.30    2.40
  -4  -2  -7   89.59    5.50
  -4  -2  -7   87.29    5.70
  -4  -2  -7   76.19    5.70
  -4  -2  -7   90.99    5.80
  -4  -2  -7   84.59    5.50
  -4  -2  -7   86.99    5.50
   4   2   7   93.69    5.50
   4   2   7   83.99    6.20
   4   2   7   87.89    5.50
  -5  -2  -7  726.33   44.10
  -5  -2  -7  773.22   44.20
  -5  -2  -7  760.22   44.10
  -5  -2  -7  698.23   44.70
  -5  -2  -7  685.33   44.00
  -5  -2  -7  738.63   44.10
   5   2   7  646.54   44.60
   5   2   7  746.43   44.10
   5   2   7  739.13   44.00
  -6  -2  -7  170.08    9.60
  -6  -2  -7  145.69    9.60
   6   2   7  146.59    9.50
   6   2   7  150.38    9.50
  -7  -2  -7   36.30    2.50
  -7  -2  -7   34.90    2.60
  -7  -2  -7   36.00    2.40
   7   2   7   34.60    2.40
   7   2   7   33.90    2.80
   7   2   7   35.40    2.40
   4  -3  -7   62.79    3.90
   4  -3  -7   63.69    4.00
   3  -3  -7   79.49    4.40
   3  -3  -7   77.49    4.50
  -3   3   7   58.79    4.70
  -3   3   7   64.99    4.60
  -3   3   7   70.19    4.60
   2  -3  -7    3.10    0.50
   2  -3  -7    2.80    0.70
  -2   3   7    2.60    1.30
  -2   3   7    1.80    0.90
  -2   3   7    3.20    0.80
  -2   3   7    0.90    1.20
   1  -3  -7    1.70    0.70
   1  -3  -7    2.10    0.60
   1  -3  -7    1.90    0.60
   1  -3  -7    2.30    0.80
   1  -3  -7   -0.10    1.40
  -1   3   7    2.00    0.80
  -1   3   7    1.90    0.60
  -1   3   7    1.70    0.90
  -1   3   7    1.70    1.20
   0  -3  -7  409.86   24.80
   0  -3  -7  426.36   24.70
   0  -3  -7  397.06   24.70
   0  -3  -7  397.26   24.70
   0  -3  -7  412.46   24.70
   0   3   7  369.96   25.20
   0   3   7  362.36   24.90
   0   3   7  423.76   24.70
   0   3   7  437.26   24.70
  -1  -3  -7   47.70    3.40
  -1  -3  -7   49.20    3.40
  -1  -3  -7   53.29    3.40
  -1  -3  -7   49.99    3.80
  -1  -3  -7   52.99    3.50
  -1  -3  -7   52.19    3.30
   1   3   7   51.39    3.40
   1   3   7   54.29    3.40
  -2  -3  -7  194.58   12.30
  -2  -3  -7  201.98   12.20
  -2  -3  -7  196.58   12.40
  -2  -3  -7  197.98   12.30
  -2  -3  -7  185.98   12.20
  -2  -3  -7  206.88   12.20
  -2  -3  -7  197.28   12.20
   2   3   7  182.48   12.50
   2   3   7  205.08   12.20
   2   3   7  210.48   12.20
  -3  -3  -7  179.98   10.80
  -3  -3  -7  168.38   10.90
  -3  -3  -7  176.28   10.80
  -3  -3  -7  175.08   10.90
  -3  -3  -7  186.68   10.90
   3   3   7  174.38   10.70
   3   3   7  165.58   11.30
   3   3   7  170.88   10.80
  -4  -3  -7   65.59    4.10
  -4  -3  -7   59.19    4.20
  -4  -3  -7   58.59    4.70
  -4  -3  -7   70.19    4.30
  -4  -3  -7   66.49    4.20
  -4  -3  -7   58.39    4.00
   4   3   7   62.79    4.00
   4   3   7   58.29    5.10
  -5  -3  -7   12.00    1.40
  -5  -3  -7   12.90    1.40
  -5  -3  -7   12.90    1.10
  -5  -3  -7   11.40    2.50
  -5  -3  -7   10.30    1.20
   5   3   7   10.90    2.80
   5   3   7   12.00    1.40
   5   3   7   13.10    1.20
  -6  -3  -7  157.78   10.00
  -6  -3  -7  163.88    9.90
  -6  -3  -7  164.28    9.90
   6   3   7  153.28    9.90
  -7  -3  -7    7.60    1.10
  -7  -3  -7    8.60    1.10
  -7  -3  -7    7.30    1.00
   7   3   7    6.00    1.00
   7   3   7    8.20    1.10
  -3   4   7  111.79    6.90
  -3   4   7  107.89    7.10
   2  -4  -7   41.80    2.50
   2  -4  -7   40.50    2.60
  -2   4   7   36.30    2.60
  -2   4   7   35.10    2.70
  -2   4   7   35.30    2.90
   1  -4  -7  411.16   23.80
   1  -4  -7  340.07   23.80
   1  -4  -7  432.96   24.00
  -1   4   7  409.66   23.90
  -1   4   7  343.67   23.90
  -1   4   7  405.46   23.90
   0  -4  -7   10.10    1.00
   0  -4  -7   11.90    1.90
   0  -4  -7   10.40    1.30
   0  -4  -7    8.70    1.10
   0  -4  -7   10.60    1.10
   0  -4  -7   12.00    1.30
   0   4   7   10.00    1.20
   0   4   7   12.50    2.00
   0   4   7    9.80    1.20
  -1  -4  -7   45.50    2.90
  -1  -4  -7   46.10    2.90
  -1  -4  -7   37.90    2.80
  -1  -4  -7   43.60    2.90
  -1  -4  -7   41.80    3.20
  -1  -4  -7   43.50    2.90
   1   4   7   34.20    3.40
   1   4   7   42.60    2.80
  -2  -4  -7   56.19    3.70
  -2  -4  -7   50.99    3.70
  -2  -4  -7   55.19    3.60
  -2  -4  -7   53.79    3.60
  -2  -4  -7   55.69    3.60
   2   4   7   55.59    3.50
  -3  -4  -7    0.10    0.60
  -3  -4  -7    1.50    1.40
  -3  -4  -7    0.00    0.60
  -3  -4  -7    0.90    0.90
  -3  -4  -7    0.50    0.60
   3   4   7    0.30    0.50
   3   4   7    2.50    1.10
  -4  -4  -7  242.28   14.60
  -4  -4  -7  247.88   14.70
  -4  -4  -7  230.98   14.60
  -4  -4  -7  246.58   14.70
   4   4   7  229.58   14.50
   4   4   7  225.68   14.60
  -5  -4  -7  117.19    7.10
   5   4   7  115.59    7.10
   5   4   7  110.39    7.20
  -6  -4  -7   66.89    4.30
  -6  -4  -7   65.69    4.20
  -6  -4  -7   67.89    4.30
   6   4   7   60.19    4.20
  -7  -4  -7    2.00    0.50
  -7  -4  -7    1.50    0.40
  -7  -4  -7    1.90    0.50
   2  -5  -7  130.09    8.60
   2  -5  -7  150.78    8.50
  -2   5   7  135.39    8.60
   1  -5  -7   29.10    2.00
   1  -5  -7   30.80    2.10
   1  -5  -7   29.50    2.10
   1  -5  -7   31.10    2.20
   1  -5  -7   30.60    2.20
  -1   5   7   30.50    2.10
  -1   5   7   28.80    2.20
   0  -5  -7    7.90    1.00
   0  -5  -7    7.60    0.90
   0  -5  -7   10.70    1.20
   0  -5  -7    8.60    1.20
   0   5   7    6.00    1.00
   0   5   7    7.20    1.30
   0   5   7    6.50    1.10
  -1  -5  -7  131.99    8.80
  -1  -5  -7  139.79    8.80
  -1  -5  -7  147.19    8.80
   1   5   7  143.59    8.80
   1   5   7  142.69    8.70
   1   5   7  140.49    8.90
  -2  -5  -7    2.30    0.50
  -2  -5  -7    2.80    1.90
  -2  -5  -7    1.50    0.80
  -2  -5  -7    2.90    0.50
   2   5   7    1.60    0.70
   2   5   7    2.30    0.50
  -3  -5  -7  402.26   23.50
  -3  -5  -7  407.46   23.60
  -3  -5  -7  378.56   23.50
   3   5   7  371.16   23.50
   3   5   7  362.96   23.40
  -4  -5  -7   42.30    2.80
  -4  -5  -7   43.80    3.10
  -4  -5  -7   40.10    3.00
  -4  -5  -7   41.40    2.80
  -5  -5  -7   70.09    4.50
  -5  -5  -7   72.49    4.50
  -5  -5  -7   69.59    4.50
  -5  -5  -7   65.49    4.40
  -6  -5  -7    5.00    0.90
  -6  -5  -7    3.40    0.80
  -6  -5  -7    5.20    0.60
   1  -6  -7   43.50    2.80
   1  -6  -7   45.20    2.80
  -1   6   7   41.90    2.80
   0  -6  -7   15.90    1.30
   0  -6  -7   15.30    1.30
   0  -6  -7   15.50    1.30
   0   6   7   17.00    1.40
   0   6   7   16.90    1.40
  -1  -6  -7    8.10    1.10
  -1  -6  -7    7.80    0.90
  -1  -6  -7    9.50    0.90
   1   6   7    8.10    1.10
   1   6   7    8.20    1.00
  -2  -6  -7    0.50    0.60
  -2  -6  -7    0.10    0.40
  -2  -6  -7    0.50    0.50
   2   6   7    0.70    0.70
   2   6   7    0.40    0.70
  -3  -6  -7  198.48   11.40
  -3  -6  -7  194.88   11.40
  -3  -6  -7  177.78   11.40
   3   6   7  169.58   11.40
  -4  -6  -7   16.60    1.30
  -4  -6  -7   17.00    1.30
  -4  -6  -7   15.30    1.40
  -5  -6  -7   37.30    2.50
  -5  -6  -7   36.30    2.40
  -5  -6  -7   33.20    2.40
  -1  -7  -7   39.90    2.40
  -1  -7  -7   38.90    2.40
  -1  -7  -7   32.80    2.40
   1   7   7   35.20    2.50
  -2  -7  -7   34.20    2.20
  -2  -7  -7   34.80    2.30
  -3  -7  -7   19.60    1.30
  -3  -7  -7   18.60    1.30
  -3  -7  -7   15.40    1.30
  -4  -7  -7    6.00    0.80
  -4  -7  -7    7.30    0.70
  -4  -7  -7    4.20    0.60
   2   5  -8   89.79    5.30
  -2  -5   8   81.99    5.40
  -1  -5   8    8.00    0.80
  -1  -5   8    7.90    0.90
   0   5  -8    3.30    0.50
   0  -5   8    3.30    0.60
   0  -5   8    3.10    0.50
   0  -5   8    3.30    0.40
  -1   5  -8   19.30    1.60
  -1   5  -8   17.50    2.20
  -1   5  -8   31.50    3.30
   1  -5   8   25.70    1.70
   1  -5   8   24.00    1.60
   1  -5   8   22.80    1.60
  -2   5  -8   60.99    3.90
   2  -5   8   69.09    3.90
   2  -5   8   54.79    3.90
  -3   5  -8   52.39    3.20
  -3   5  -8   46.10    3.20
   3  -5   8   48.60    3.10
   3   4  -8   19.00    1.40
   3   4  -8   17.70    1.50
  -3  -4   8   24.10    1.50
   2   4  -8   26.50    1.90
   2   4  -8   26.90    2.00
  -2  -4   8   27.40    1.90
  -2  -4   8   22.50    1.90
   1   4  -8   -0.30    1.00
   1   4  -8    0.20    0.50
   1   4  -8   -0.50    0.70
  -1  -4   8    0.60    0.70
  -1  -4   8   -0.10    0.40
  -1  -4   8    0.20    0.70
   0   4  -8  104.29    6.70
   0   4  -8   92.89    6.70
   0   4  -8  109.89    6.90
   0  -4   8  114.29    6.70
   0  -4   8  106.59    6.80
   0  -4   8  115.69    6.80
  -1   4  -8   33.70    2.70
  -1   4  -8   32.90    2.40
   1  -4   8   31.20    2.30
   1  -4   8   34.30    2.30
   1  -4   8   33.50    2.50
  -2   4  -8  337.47   20.60
  -2   4  -8  304.07   20.60
   2  -4   8  329.77   20.60
   2  -4   8  347.37   20.60
   2  -4   8  363.96   20.90
  -3   4  -8  132.09    9.30
  -3   4  -8  158.18    9.40
   3  -4   8  162.48    9.40
   3  -4   8  152.18    9.30
   4  -4   8   66.79    4.10
   4  -4   8   59.19    4.00
   4  -4   8   65.29    4.10
   3   3  -8  159.98   11.10
   3   3  -8  182.78   11.20
  -3  -3   8  190.68   11.20
  -3  -3   8  189.98   11.20
   2   3  -8  110.49    7.00
   2   3  -8  116.39    6.90
   2   3  -8   98.89    7.00
  -2  -3   8  118.99    7.00
  -2  -3   8  106.59    6.90
   1   3  -8   52.39    3.80
   1   3  -8   48.60    3.60
   1   3  -8   55.89    3.60
  -1  -3   8   59.09    4.40
  -1  -3   8   49.99    3.50
   0   3  -8  102.09    6.30
   0   3  -8   94.59    6.20
   0   3  -8  103.69    6.20
   0  -3   8   96.59    6.30
   0  -3   8   91.39    6.20
  -1   3  -8    8.90    1.50
  -1   3  -8    8.60    1.50
   1  -3   8    7.50    1.20
   1  -3   8    8.50    1.10
   1  -3   8    8.80    1.60
  -2   3  -8   40.40    2.60
   2  -3   8   36.70    2.40
   2  -3   8   34.10    2.80
   2  -3   8   28.80    2.60
  -3   3  -8    4.10    0.70
  -3   3  -8    4.30    0.80
  -3   3  -8    4.10    0.90
   3  -3   8    4.20    1.10
   3  -3   8    3.90    0.60
   3  -3   8    5.10    0.90
  -4   3  -8  401.56   24.00
  -4   3  -8  409.86   24.00
   4  -3   8  405.66   24.00
   4  -3   8  361.46   24.10
   4  -3   8  385.26   24.00
  -5   3  -8  140.99    8.70
  -5   3  -8  144.29    8.70
   5  -3   8  135.09    8.70
   4   2  -8  113.99    7.20
  -4  -2   8  107.99    7.10
  -4  -2   8  122.59    7.20
   3   2  -8   27.00    2.30
   3   2  -8   26.10    2.40
   3   2  -8   34.60    2.30
  -3  -2   8   26.40    2.30
  -3  -2   8   33.00    2.20
  -3  -2   8   34.50    2.20
   2   2  -8    2.50    1.00
   2   2  -8    1.00    1.00
   2   2  -8    1.40    0.90
  -2  -2   8   -1.00    0.90
  -2  -2   8    0.10    0.80
   1   2  -8  315.97   18.90
   1   2  -8  309.07   18.90
   1   2  -8  289.37   18.90
  -1  -2   8  295.57   18.80
  -1  -2   8  311.77   19.00
  -1  -2   8  323.47   18.90
   0   2  -8   49.40    3.40
   0   2  -8   49.50    3.40
   0   2  -8   51.39    3.40
   0   2  -8   39.90    4.90
   0  -2   8   40.40    4.10
   0  -2   8   52.49    3.20
   0  -2   8   46.60    3.60
   0  -2   8   51.19    3.40
  -1   2  -8    5.90    0.90
  -1   2  -8    6.50    3.10
  -1   2  -8    5.40    0.90
  -1   2  -8    7.60    1.00
   1  -2   8    3.40    1.20
   1  -2   8    5.10    1.00
   1  -2   8    4.40    2.10
   1  -2   8    6.60    1.00
   1  -2   8    6.30    1.00
  -2   2  -8   23.20    1.70
  -2   2  -8   23.40    1.70
  -2   2  -8   24.10    2.00
   2  -2   8   21.80    1.70
   2  -2   8   21.00    1.70
   2  -2   8   15.70    2.90
   2  -2   8   23.40    1.70
   2  -2   8   20.80    2.40
   2  -2   8   17.30    2.10
  -3   2  -8   90.49    5.70
  -3   2  -8   96.19    5.80
  -3   2  -8   91.79    5.80
   3  -2   8   93.89    5.60
   3  -2   8   77.99    6.10
   3  -2   8   78.29    5.80
   3  -2   8   92.19    5.70
   3  -2   8   88.19    5.60
  -4   2  -8   16.20    1.80
  -4   2  -8   17.40    1.50
   4  -2   8   17.20    1.30
   4  -2   8   18.30    1.60
   4  -2   8   15.40    1.40
  -5   2  -8  170.68   10.70
  -5   2  -8  182.98   10.70
   5  -2   8  158.78   10.60
   5  -2   8  178.78   10.70
  -6   2  -8    9.00    0.80
   4   1  -8   42.20    2.70
  -4  -1   8   39.40    2.70
  -4  -1   8   39.70    2.80
   3   1  -8  128.69    8.00
   3   1  -8  126.89    8.00
  -3  -1   8  115.19    8.00
  -3  -1   8  134.69    8.00
  -3  -1   8  130.09    8.00
   2   1  -8  165.58   10.80
   2   1  -8  154.38   10.90
   2   1  -8  191.48   11.00
  -2  -1   8  186.48   11.00
  -2  -1   8  178.08   10.80
  -2  -1   8  178.48   11.00
   1   1  -8  127.19    7.50
   1   1  -8  111.69    7.50
   1   1  -8  107.19    7.30
   1   1  -8  127.79    7.50
   1   1  -8  107.69    8.30
  -1  -1   8  101.69    8.10
  -1  -1   8  123.79    7.60
  -1  -1   8  132.79    7.50
   0   1  -8  171.38   10.70
   0   1  -8  183.78   10.70
   0   1  -8  165.38   10.60
   0   1  -8  161.98   11.30
   0   1  -8  188.68   10.80
   0  -1   8  168.98   10.90
   0  -1   8  180.58   10.70
   0  -1   8  151.88   11.20
  -1   1  -8  138.69    8.10
  -1   1  -8  128.19    8.10
  -1   1  -8  122.39    9.10
  -1   1  -8  141.49    8.20
   1  -1   8  128.59    8.10
   1  -1   8  131.49    8.00
   1  -1   8  121.59    8.40
   1  -1   8  132.09    8.00
   1  -1   8  114.19    8.60
  -2   1  -8  204.38   12.60
  -2   1  -8  210.78   12.60
  -2   1  -8  211.48   12.60
   2  -1   8  223.78   12.60
   2  -1   8  189.18   12.60
   2  -1   8  179.68   13.10
   2  -1   8  203.28   12.50
  -3   1  -8   20.80    2.00
  -3   1  -8   19.50    1.90
  -3   1  -8   19.50    1.90
  -3   1  -8   21.80    2.00
  -3   1  -8   23.50    1.90
   3  -1   8   23.50    1.80
   3  -1   8   20.80    1.60
   3  -1   8   23.40    1.70
   3  -1   8   17.90    2.70
  -4   1  -8   22.30    1.90
  -4   1  -8   21.70    1.60
  -4   1  -8   22.40    2.00
  -4   1  -8   17.40    2.40
  -4   1  -8   20.20    1.90
   4  -1   8   20.80    1.70
   4  -1   8   23.30    1.60
   4  -1   8   19.90    1.60
   4  -1   8   20.30    1.60
  -5   1  -8    7.00    0.90
  -5   1  -8    5.70    1.10
  -5   1  -8    6.20    1.00
   5  -1   8    7.00    1.00
   5  -1   8    5.70    0.90
   5  -1   8    6.20    0.90
  -6   1  -8    5.70    0.90
  -6   1  -8    5.00    0.80
   6  -1   8    3.50    0.90
   6  -1   8    4.50    0.90
   4   0  -8    0.60    0.70
   4   0  -8    0.40    0.60
   4   0  -8   -0.70    0.70
  -4   0   8    0.10    0.70
  -4   0   8    0.00    0.60
  -4   0   8    0.00    0.60
   3   0  -8   71.89    4.50
   3   0  -8   63.19    4.40
   3   0  -8   75.69    4.60
  -3   0   8   70.49    4.70
  -3   0   8   67.09    4.60
  -3   0   8   70.79    4.50
   2   0  -8    0.30    0.90
   2   0  -8    0.40    1.00
   2   0  -8    1.70    0.50
  -2   0   8    1.50    0.70
   1   0  -8   20.30    1.70
   1   0  -8   17.20    1.90
   1   0  -8   21.20    1.80
   1   0  -8   19.90    1.60
  -1   0   8   23.70    2.80
  -1   0   8   21.40    1.80
  -1   0   8   18.60    1.90
  -1   0   8   15.90    2.80
  -1   0   8   20.30    1.70
   0   0  -8  121.29    7.60
   0   0  -8  126.09    7.80
   0   0  -8  123.59    7.60
   0   0   8  125.99    7.70
   0   0   8  119.89    8.00
   0   0   8  124.69    7.60
   0   0   8  113.19    7.60
  -1   0  -8  125.79    8.10
  -1   0  -8  131.39    8.00
  -1   0  -8  117.49    8.00
  -1   0  -8  130.59    7.90
  -1   0  -8  134.39    7.90
   1   0   8  109.29    8.40
   1   0   8  126.89    8.00
   1   0   8  133.09    7.90
   1   0   8  131.19    7.90
  -2   0  -8  138.79    8.90
  -2   0  -8  151.18    9.10
  -2   0  -8  137.49    9.00
  -2   0  -8  138.19    9.00
   2   0   8  149.99    8.90
   2   0   8  144.59    8.90
  -3   0  -8    1.80    1.00
  -3   0  -8    2.50    0.90
  -3   0  -8    2.30    1.00
  -3   0  -8    2.30    0.70
  -3   0  -8   -0.90    2.30
  -3   0  -8    1.80    0.70
  -3   0  -8    0.20    0.70
   3   0   8    1.90    0.60
   3   0   8    1.90    1.30
   3   0   8    1.70    0.50
  -4   0  -8    6.00    0.90
  -4   0  -8    8.80    1.40
  -4   0  -8    7.10    1.20
  -4   0  -8    5.20    1.20
  -4   0  -8    9.30    1.60
  -4   0  -8    8.20    2.00
  -4   0  -8    8.80    1.40
   4   0   8    5.40    2.30
   4   0   8    9.10    1.10
   4   0   8   10.40    1.10
   4   0   8    8.20    1.00
  -5   0  -8  466.25   28.40
  -5   0  -8  421.86   28.40
  -5   0  -8  470.55   28.40
   5   0   8  500.85   28.40
   5   0   8  482.35   28.40
   5   0   8  446.26   28.30
   5   0   8  464.35   28.30
  -6   0  -8   21.30    1.80
  -6   0  -8   25.60    1.80
  -6   0  -8   23.60    1.80
   6   0   8   24.60    1.90
   6   0   8   24.90    1.80
   6   0   8   23.40    1.90
   7   0   8   30.80    2.10
   7   0   8   29.70    2.10
   4  -1  -8   40.00    2.70
   4  -1  -8   40.20    2.70
   4  -1  -8   40.90    2.70
  -4   1   8   37.40    3.30
  -4   1   8   42.60    2.90
  -4   1   8   47.50    2.80
   3  -1  -8  140.49    8.10
   3  -1  -8  135.29    8.00
   3  -1  -8  120.29    8.00
  -3   1   8  127.49    8.20
  -3   1   8  129.29    8.10
  -3   1   8  121.09    8.10
   2  -1  -8    0.90    0.80
   2  -1  -8    1.50    0.60
  -2   1   8    0.40    1.00
  -2   1   8    1.10    0.90
   1  -1  -8   20.80    1.70
   1  -1  -8   23.30    2.10
   1  -1  -8   20.80    1.70
   1  -1  -8   21.70    1.60
  -1   1   8   19.90    1.90
  -1   1   8   21.90    3.00
  -1   1   8   23.40    1.90
  -1   1   8   20.50    3.00
  -1   1   8   21.10    1.70
   0  -1  -8  213.68   12.90
   0  -1  -8  206.08   13.00
   0  -1  -8  217.48   12.90
   0  -1  -8  216.28   13.00
   0  -1  -8  212.48   13.10
   0   1   8  204.88   12.90
   0   1   8  216.18   13.10
   0   1   8  194.48   13.50
  -1  -1  -8   24.80    2.30
  -1  -1  -8   26.30    2.20
  -1  -1  -8   29.30    1.90
  -1  -1  -8   27.50    1.90
  -1  -1  -8   26.30    2.00
  -1  -1  -8   29.20    2.40
   1   1   8   26.60    3.20
   1   1   8   27.20    2.30
   1   1   8   29.20    2.00
   1   1   8   27.00    1.90
  -2  -1  -8   38.00    2.70
  -2  -1  -8   36.00    2.60
  -2  -1  -8   35.90    2.60
  -2  -1  -8   39.10    2.70
  -2  -1  -8   37.70    2.50
   2   1   8   34.60    3.70
   2   1   8   37.50    2.50
   2   1   8   40.40    2.60
  -3  -1  -8  315.87   18.20
  -3  -1  -8  284.57   18.30
  -3  -1  -8  303.47   18.30
  -3  -1  -8  272.27   18.90
  -3  -1  -8  286.67   18.30
  -3  -1  -8  319.57   18.40
  -3  -1  -8  306.07   18.30
  -3  -1  -8  297.57   18.40
   3   1   8  319.77   18.20
   3   1   8  266.77   18.80
  -4  -1  -8   39.30    2.90
  -4  -1  -8   40.90    3.00
  -4  -1  -8   38.50    2.70
  -4  -1  -8   38.20    2.70
  -4  -1  -8   36.90    2.70
  -4  -1  -8   36.80    2.60
  -4  -1  -8   29.20    4.10
  -4  -1  -8   39.70    2.70
   4   1   8   38.70    2.60
   4   1   8   31.80    3.40
   4   1   8   40.80    2.60
   4   1   8   38.70    2.60
  -5  -1  -8   10.80    1.30
  -5  -1  -8   12.40    1.20
   5   1   8   11.60    1.10
   5   1   8   11.60    1.50
   5   1   8   13.80    1.30
  -6  -1  -8  380.16   24.10
  -6  -1  -8  372.36   24.00
  -6  -1  -8  398.06   24.10
  -6  -1  -8  399.86   24.00
   6   1   8  405.76   24.10
   6   1   8  386.06   24.00
   6   1   8  414.56   24.10
  -7  -1  -8   16.10    1.30
  -7  -1  -8   18.20    1.60
   7   1   8   20.50    1.30
   7   1   8   18.40    1.50
   3  -2  -8   15.80    1.40
   3  -2  -8   16.60    1.20
  -3   2   8   15.30    1.30
   2  -2  -8  210.78   12.60
   2  -2  -8  217.88   12.70
   2  -2  -8  184.68   12.70
  -2   2   8  220.58   12.80
  -2   2   8  194.98   12.70
   1  -2  -8  213.48   13.20
   1  -2  -8  214.38   13.20
   1  -2  -8  206.68   13.30
   1  -2  -8  220.18   13.20
  -1   2   8  226.18   13.20
  -1   2   8  193.88   13.30
  -1   2   8  212.18   13.20
  -1   2   8  227.78   13.30
   0  -2  -8  455.45   27.10
   0  -2  -8  434.46   27.00
   0  -2  -8  427.66   27.00
   0  -2  -8  479.55   27.00
   0  -2  -8  462.85   27.00
   0   2   8  470.75   27.10
   0   2   8  469.25   27.00
   0   2   8  371.46   27.50
   0   2   8  470.65   27.00
   0   2   8  374.66   27.20
  -1  -2  -8  119.29    7.60
  -1  -2  -8  129.69    7.60
  -1  -2  -8  123.29    7.50
  -1  -2  -8  114.59    7.60
  -1  -2  -8  122.29    7.60
  -1  -2  -8  122.49    7.70
   1   2   8  116.19    7.70
   1   2   8  129.69    7.50
   1   2   8  110.99    8.30
  -2  -2  -8    2.50    0.60
  -2  -2  -8    2.90    0.60
  -2  -2  -8    4.20    0.80
  -2  -2  -8    2.90    0.80
  -2  -2  -8    3.10    0.70
  -2  -2  -8    2.60    0.80
   2   2   8    3.50    1.20
   2   2   8   -0.10    1.30
   2   2   8    1.80    0.50
  -3  -2  -8  125.79    8.00
  -3  -2  -8  126.19    7.90
  -3  -2  -8  136.49    8.10
  -3  -2  -8  132.89    8.10
  -3  -2  -8  130.59    7.90
  -3  -2  -8  119.09    7.90
   3   2   8  129.49    7.90
   3   2   8  117.29    8.80
  -4  -2  -8   14.10    1.40
  -4  -2  -8   16.80    1.50
  -4  -2  -8   18.90    3.70
  -4  -2  -8   15.90    1.90
  -4  -2  -8   16.00    1.50
  -4  -2  -8   15.10    1.50
   4   2   8   17.00    1.40
   4   2   8   15.80    1.40
   4   2   8   12.50    2.60
  -5  -2  -8  275.47   18.60
   5   2   8  319.27   18.60
   5   2   8  315.47   18.60
  -6  -2  -8   14.30    1.30
  -6  -2  -8   15.10    1.50
  -6  -2  -8   14.70    1.20
   6   2   8   13.60    1.30
   6   2   8   15.90    1.30
   6   2   8   13.70    1.60
  -7  -2  -8   63.79    3.90
  -7  -2  -8   55.69    3.80
   7   2   8   56.99    4.00
   7   2   8   65.49    3.90
   3  -3  -8   39.10    2.30
   3  -3  -8   30.50    2.30
   3  -3  -8   36.20    2.30
  -3   3   8   36.20    2.40
   2  -3  -8  301.57   17.10
   2  -3  -8  294.87   17.10
   2  -3  -8  280.57   17.10
  -2   3   8  269.07   17.40
  -2   3   8  241.38   17.10
  -2   3   8  286.47   17.20
   1  -3  -8   11.50    1.50
   1  -3  -8   10.80    1.20
   1  -3  -8   12.30    1.10
  -1   3   8   10.80    1.90
  -1   3   8   12.70    1.20
  -1   3   8   10.00    1.50
   0  -3  -8    0.20    0.90
   0  -3  -8    0.10    0.60
   0  -3  -8    1.10    0.70
   0  -3  -8    2.00    0.60
   0  -3  -8    1.70    0.70
   0   3   8    0.20    0.60
   0   3   8    0.80    0.60
   0   3   8    1.10    0.60
  -1  -3  -8   67.49    4.90
  -1  -3  -8   72.29    4.80
  -1  -3  -8   81.39    4.80
  -1  -3  -8   71.19    4.80
  -1  -3  -8   82.29    4.80
  -1  -3  -8   73.59    4.90
   1   3   8   75.89    4.90
   1   3   8   79.19    4.80
   1   3   8   79.79    4.80
   1   3   8   66.59    5.10
  -2  -3  -8  191.48   11.60
  -2  -3  -8  191.08   11.70
  -2  -3  -8  186.68   11.60
  -2  -3  -8  201.48   11.60
  -2  -3  -8  190.08   11.70
  -2  -3  -8  169.28   11.50
  -2  -3  -8  187.68   11.50
   2   3   8  162.88   11.60
   2   3   8  191.88   11.50
   2   3   8  201.58   11.60
  -3  -3  -8  473.25   28.10
  -3  -3  -8  462.55   28.10
  -3  -3  -8  452.35   28.20
  -3  -3  -8  479.25   28.20
  -3  -3  -8  444.16   28.10
   3   3   8  450.55   28.00
   3   3   8  458.45   28.10
  -4  -3  -8    2.30    0.60
  -4  -3  -8    1.50    0.60
  -4  -3  -8    1.20    1.00
  -4  -3  -8    1.50    0.70
  -4  -3  -8    1.80    0.50
   4   3   8    1.50    0.60
   4   3   8    1.40    0.60
  -5  -3  -8   86.89    5.50
  -5  -3  -8   80.99    5.50
  -5  -3  -8   95.49    5.60
  -5  -3  -8   85.79    5.50
   5   3   8   86.69    5.50
  -6  -3  -8    0.80    0.60
  -6  -3  -8    1.00    0.50
  -6  -3  -8    0.70    0.50
   6   3   8    0.40    0.80
   6   3   8    0.50    0.80
  -7  -3  -8    1.30    0.40
  -7  -3  -8    0.20    0.40
   7   3   8    1.00    0.80
   2  -4  -8   71.79    4.10
   2  -4  -8   63.69    4.10
   2  -4  -8   70.29    4.20
  -2   4   8   60.99    4.20
  -2   4   8   61.69    4.20
   1  -4  -8   68.69    4.30
   1  -4  -8   67.29    4.20
   1  -4  -8   69.99    4.20
  -1   4   8   61.49    4.30
  -1   4   8   65.69    4.30
  -1   4   8   66.29    4.30
   0  -4  -8   17.00    1.50
   0  -4  -8   20.80    1.60
   0  -4  -8   20.10    1.50
   0  -4  -8   17.30    1.40
   0  -4  -8   18.80    1.40
   0  -4  -8   14.40    2.00
   0   4   8   14.50    1.90
   0   4   8   18.60    1.50
   0   4   8   19.20    1.50
  -1  -4  -8  101.69    7.00
  -1  -4  -8  100.29    6.80
  -1  -4  -8  121.39    7.00
   1   4   8  115.19    6.90
   1   4   8  115.29    7.00
  -2  -4  -8   28.60    2.20
  -2  -4  -8   28.00    2.20
  -2  -4  -8   30.90    2.10
   2   4   8   30.90    2.10
   2   4   8   30.30    2.00
   2   4   8   25.10    2.50
  -3  -4  -8  358.96   22.00
  -3  -4  -8  366.56   22.00
   3   4   8  356.06   21.90
   3   4   8  353.56   21.90
  -4  -4  -8   13.20    1.30
  -4  -4  -8   15.10    1.30
  -4  -4  -8   16.80    1.70
  -4  -4  -8   13.90    1.20
   4   4   8   11.90    1.50
  -5  -4  -8    2.70    0.60
  -5  -4  -8    3.80    0.80
  -5  -4  -8    5.30    0.80
  -5  -4  -8    4.30    0.70
   5   4   8    3.20    0.70
   5   4   8    4.60    0.80
  -6  -4  -8   68.09    4.30
  -6  -4  -8   68.69    4.20
  -6  -4  -8   66.89    4.30
   6   4   8   60.39    4.30
   1  -5  -8    5.00    0.50
   1  -5  -8    4.70    0.60
  -1   5   8    2.90    0.70
  -1   5   8    4.70    0.80
   0  -5  -8   59.59    3.70
   0  -5  -8   56.19    3.60
   0  -5  -8   54.29    3.60
   0  -5  -8   60.49    3.70
   0   5   8   59.79    3.70
   0   5   8   52.29    3.60
  -1  -5  -8   97.69    6.20
  -1  -5  -8  102.39    6.10
  -1  -5  -8   97.39    6.20
   1   5   8   94.79    6.10
   1   5   8   97.29    6.10
  -2  -5  -8   55.89    3.50
  -2  -5  -8   54.99    3.40
  -2  -5  -8   53.49    3.40
  -2  -5  -8   47.00    3.60
   2   5   8   52.59    3.50
   2   5   8   52.69    3.50
  -3  -5  -8   49.99    3.40
  -3  -5  -8   48.70    3.20
  -3  -5  -8   50.79    3.30
  -3  -5  -8   50.29    3.20
   3   5   8   46.00    3.20
   3   5   8   46.70    3.20
  -4  -5  -8    2.50    0.60
  -4  -5  -8    6.30    0.80
  -4  -5  -8    4.80    0.80
  -4  -5  -8    4.00    0.70
   4   5   8    5.40    1.00
   4   5   8    3.80    0.80
  -5  -5  -8    0.70    0.40
  -5  -5  -8    1.10    0.40
  -5  -5  -8    1.10    0.40
  -5  -5  -8    1.30    0.60
  -1  -6  -8    0.40    0.40
  -1  -6  -8    0.70    0.40
  -1  -6  -8   -0.70    0.50
   1   6   8    0.30    1.30
   1   6   8    0.50    0.50
  -2  -6  -8    0.80    0.40
  -2  -6  -8    0.20    0.40
  -2  -6  -8    1.50    0.40
   2   6   8    1.30    0.70
  -3  -6  -8    0.50    0.30
  -3  -6  -8    0.90    0.40
  -3  -6  -8    0.80    0.40
   3   6   8    0.70    0.80
  -4  -6  -8  111.99    6.90
   1   4  -9  164.58   10.70
  -1  -4   9  184.28   10.80
  -1  -4   9  175.78   10.80
   0   4  -9   34.60    2.50
   0  -4   9   38.20    2.40
   0  -4   9   35.60    2.50
   0  -4   9   42.40    2.60
  -1   4  -9   10.80    1.00
  -1   4  -9   11.30    1.20
   1  -4   9    9.30    0.90
   1  -4   9   11.60    2.20
  -2   4  -9   99.49    6.30
   2  -4   9  100.99    6.40
   2  -4   9  104.39    6.30
  -3   4  -9    1.70    0.40
  -3   4  -9    1.00    0.60
   3  -4   9    2.20    0.60
   3  -4   9    1.00    0.30
   2   3  -9    0.80    0.70
   2   3  -9   -0.10    0.80
  -2  -3   9    1.10    0.50
   1   3  -9  274.57   18.00
   1   3  -9  298.27   18.00
   1   3  -9  307.57   18.10
  -1  -3   9  308.27   18.10
  -1  -3   9  273.67   18.00
  -1  -3   9  306.27   18.10
   0   3  -9  171.98   10.60
   0   3  -9  167.68   10.60
   0   3  -9  164.28   10.60
   0  -3   9  170.78   10.70
   0  -3   9  184.18   10.60
  -1   3  -9    3.50    0.90
  -1   3  -9    4.60    0.70
  -1   3  -9    3.20    0.60
   1  -3   9    3.80    0.60
   1  -3   9    3.80    0.80
   1  -3   9    4.30    0.70
  -2   3  -9  187.38   11.00
  -2   3  -9  171.98   10.90
  -2   3  -9  169.08   11.00
   2  -3   9  174.88   11.10
   2  -3   9  183.48   10.90
  -3   3  -9  133.59    8.30
   3  -3   9  140.79    8.20
   3  -3   9  126.49    8.40
  -4   3  -9   11.60    1.00
   4  -3   9   10.30    0.90
   3   2  -9   13.40    1.40
  -3  -2   9   14.40    1.40
   2   2  -9    1.50    0.80
   2   2  -9    2.30    0.60
   2   2  -9    3.40    1.00
  -2  -2   9    1.30    0.70
  -2  -2   9    2.70    0.50
   1   2  -9   32.10    2.60
   1   2  -9   38.50    2.50
   1   2  -9   40.40    2.70
  -1  -2   9   35.50    2.80
  -1  -2   9   38.80    2.50
  -1  -2   9   35.00    2.50
   0   2  -9   17.10    1.50
   0   2  -9   20.70    1.80
   0   2  -9   15.50    1.70
   0  -2   9   18.00    1.50
   0  -2   9   17.80    1.70
   0  -2   9   19.60    1.50
  -1   2  -9  113.99    6.80
  -1   2  -9  100.99    6.70
  -1   2  -9  107.69    6.80
   1  -2   9   99.29    7.00
   1  -2   9  119.29    6.70
   1  -2   9  103.79    6.80
  -2   2  -9   86.69    5.50
  -2   2  -9   82.99    5.60
  -2   2  -9   92.89    5.60
  -2   2  -9   86.79    5.60
   2  -2   9   82.69    5.60
   2  -2   9   84.69    5.70
   2  -2   9   91.69    5.50
  -3   2  -9    5.80    0.90
  -3   2  -9    7.40    1.30
  -3   2  -9    5.60    1.10
  -3   2  -9    8.00    0.90
   3  -2   9    5.30    1.20
   3  -2   9    6.20    1.00
   3  -2   9    6.10    0.90
  -4   2  -9    0.70    0.40
  -4   2  -9   -0.30    0.60
   4  -2   9    0.90    0.40
   4  -2   9    0.60    0.60
  -5   2  -9  161.78    9.30
   5  -2   9  138.19    9.30
   5  -2   9  154.38    9.30
   3   1  -9  134.09    7.60
  -3  -1   9  112.99    7.50
  -3  -1   9  116.39    7.60
   2   1  -9    0.30    0.60
   2   1  -9    0.40    0.50
  -2  -1   9   -0.10    0.40
  -2  -1   9   -0.20    0.70
   1   1  -9   15.30    1.50
   1   1  -9   15.60    1.60
  -1  -1   9   14.40    1.30
  -1  -1   9   13.00    1.30
  -1  -1   9   13.40    1.90
   0   1  -9    9.40    1.60
   0  -1   9   11.00    1.00
   0  -1   9    7.00    1.50
  -1   1  -9   10.10    1.30
  -1   1  -9   11.60    1.30
  -1   1  -9   10.70    1.40
   1  -1   9   11.90    1.40
   1  -1   9   12.70    2.00
   1  -1   9   12.20    1.10
  -2   1  -9   32.90    2.40
  -2   1  -9   29.10    2.10
   2  -1   9   26.70    2.40
   2  -1   9   27.60    2.10
   2  -1   9   31.70    2.10
  -3   1  -9   42.40    3.00
  -3   1  -9   47.20    3.00
  -3   1  -9   38.40    3.00
  -3   1  -9   43.80    3.10
   3  -1   9   40.50    2.80
  -4   1  -9    3.30    1.00
  -4   1  -9    4.80    0.80
  -4   1  -9    4.50    0.70
   4  -1   9    6.50    0.80
   4  -1   9    3.20    1.00
   4  -1   9    5.30    0.70
   4  -1   9    3.80    0.70
  -5   1  -9    3.80    0.70
  -5   1  -9    3.90    0.60
   5  -1   9    2.80    0.80
   5  -1   9    1.90    0.80
   5  -1   9    4.00    0.50
   3   0  -9   30.60    2.00
   3   0  -9   31.90    2.00
  -3   0   9   25.30    2.30
  -3   0   9   28.40    2.00
   2   0  -9   38.90    2.60
   2   0  -9   37.70    2.70
   2   0  -9   43.70    2.70
  -2   0   9   37.00    2.60
  -2   0   9   37.30    2.60
  -2   0   9   39.70    3.00
   1   0  -9   75.49    4.60
   1   0  -9   77.29    4.60
   1   0  -9   64.69    4.40
  -1   0   9   65.69    4.50
  -1   0   9   69.39    5.00
   0   0  -9  333.07   18.80
   0   0  -9  305.07   18.90
   0   0  -9  297.07   18.70
   0   0   9  286.77   18.70
  -1   0  -9   51.89    3.50
  -1   0  -9   53.59    3.70
   1   0   9   58.69    3.70
   1   0   9   52.29    3.50
   1   0   9   51.69    3.60
  -2   0  -9   10.40    1.30
  -2   0  -9   11.60    1.60
   2   0   9   11.60    1.20
   2   0   9   10.00    1.10
  -3   0  -9   63.39    4.30
  -3   0  -9   61.59    4.20
  -3   0  -9   60.19    4.10
  -3   0  -9   61.29    4.20
  -3   0  -9   65.09    4.30
   3   0   9   63.19    4.10
   3   0   9   70.09    4.10
   3   0   9   61.49    4.10
  -4   0  -9    0.70    0.50
  -4   0  -9    0.20    0.70
  -4   0  -9    0.70    0.90
  -4   0  -9    0.60    0.60
   4   0   9   -0.50    0.80
   4   0   9    0.30    0.60
   4   0   9    0.80    0.60
  -5   0  -9   12.60    1.20
  -5   0  -9   13.60    1.20
  -5   0  -9   12.70    1.30
   5   0   9   12.80    1.40
   5   0   9   14.10    1.20
   5   0   9   15.50    1.20
   5   0   9   13.50    1.40
  -6   0  -9    0.50    0.50
   6   0   9    0.50    0.50
   6   0   9    0.70    0.50
   3  -1  -9    7.80    0.90
   3  -1  -9    9.60    0.90
   3  -1  -9    7.50    0.80
  -3   1   9    5.90    1.10
  -3   1   9    7.70    0.90
   2  -1  -9  149.79   10.40
   2  -1  -9  172.08   10.40
   2  -1  -9  175.88   10.50
  -2   1   9  179.58   10.50
  -2   1   9  169.88   10.60
   1  -1  -9    0.10    0.60
   1  -1  -9   -1.10    0.90
   1  -1  -9    0.00    0.60
   1  -1  -9    1.10    0.90
  -1   1   9    0.30    0.70
  -1   1   9   -0.20    0.70
   0  -1  -9   50.49    3.50
   0   1   9   52.69    3.40
   0   1   9   52.79    3.60
  -1  -1  -9   82.59    5.00
  -1  -1  -9   78.19    5.00
  -1  -1  -9   80.09    5.10
  -1  -1  -9   81.29    5.30
   1   1   9   80.09    5.00
   1   1   9   73.59    5.00
  -2  -1  -9  264.47   16.40
  -2  -1  -9  258.87   16.40
  -2  -1  -9  251.37   16.30
  -2  -1  -9  280.77   16.50
   2   1   9  274.67   16.30
   2   1   9  265.87   16.30
  -3  -1  -9  269.77   16.50
  -3  -1  -9  271.97   16.50
  -3  -1  -9  252.57   16.40
  -3  -1  -9  277.27   16.50
   3   1   9  262.07   16.30
  -4  -1  -9    4.40    0.90
  -4  -1  -9    3.30    0.80
  -4  -1  -9    3.30    0.60
  -4  -1  -9    3.50    0.70
  -4  -1  -9    3.50    0.90
   4   1   9    2.80    0.70
   4   1   9    3.10    0.60
   4   1   9    5.30    0.90
  -5  -1  -9  135.99    9.10
  -5  -1  -9  156.48    9.20
  -5  -1  -9  153.98    9.10
  -5  -1  -9  137.19    9.10
   5   1   9  148.59    9.10
   5   1   9  147.99    9.10
   5   1   9  145.99    9.10
  -6  -1  -9    2.50    0.90
  -6  -1  -9    3.40    0.60
   6   1   9    3.80    0.60
   6   1   9    2.70    0.70
   2  -2  -9  102.99    6.00
   2  -2  -9   96.29    6.00
  -2   2   9   89.19    6.00
   1  -2  -9   -0.80    0.60
   1  -2  -9    0.20    0.50
   1  -2  -9    0.10    0.70
   1  -2  -9   -0.70    0.40
  -1   2   9   -0.20    0.50
  -1   2   9   -0.60    1.40
  -1   2   9    0.80    0.60
   0  -2  -9  136.59    9.30
   0  -2  -9  132.49    9.30
   0  -2  -9  159.48    9.30
   0  -2  -9  158.38    9.30
   0  -2  -9  153.78    9.30
   0   2   9  153.98    9.40
   0   2   9  155.08    9.30
  -1  -2  -9   98.99    6.60
   1   2   9   98.19    6.80
   1   2   9  110.79    6.50
   1   2   9  108.59    6.50
  -2  -2  -9   58.69    4.20
  -2  -2  -9   68.19    4.10
  -2  -2  -9   65.39    4.20
   2   2   9   61.39    4.00
   2   2   9   63.79    4.10
  -3  -2  -9  428.56   29.00
  -3  -2  -9  514.85   29.00
   3   2   9  475.75   29.00
   3   2   9  484.15   29.00
  -4  -2  -9  152.78   10.00
  -4  -2  -9  166.58   10.10
  -4  -2  -9  171.98   10.10
  -4  -2  -9  156.28    9.90
  -4  -2  -9  162.58    9.90
   4   2   9  166.58   10.00
   4   2   9  150.48    9.90
  -5  -2  -9   18.90    1.50
  -5  -2  -9   18.50    1.80
  -5  -2  -9   19.60    1.50
   5   2   9   18.30    1.50
   5   2   9   21.40    1.50
  -6  -2  -9    9.90    1.00
  -6  -2  -9   13.60    1.20
  -6  -2  -9   13.70    1.10
   6   2   9   12.30    1.00
   6   2   9   12.70    1.20
   2  -3  -9   70.39    5.20
   2  -3  -9   93.69    5.20
  -2   3   9   85.99    5.20
   1  -3  -9   11.70    1.00
   1  -3  -9   12.00    1.50
   1  -3  -9   12.50    1.10
   1  -3  -9   12.60    1.00
  -1   3   9   11.50    1.10
  -1   3   9   13.60    1.50
   0  -3  -9   89.49    5.50
   0  -3  -9   75.19    5.70
   0  -3  -9   88.59    5.50
   0  -3  -9   95.49    5.50
   0  -3  -9   87.79    5.60
   0   3   9   91.79    5.70
   0   3   9   84.99    5.60
   0   3   9   90.89    5.60
  -1  -3  -9    0.30    0.50
  -1  -3  -9    1.10    0.60
  -1  -3  -9    0.50    0.60
  -1  -3  -9   -0.10    0.80
  -1  -3  -9    0.70    0.70
  -1  -3  -9    0.60    1.10
  -1  -3  -9   -0.40    0.60
   1   3   9   -0.10    0.90
   1   3   9    0.00    0.50
   1   3   9    0.80    0.70
  -2  -3  -9  157.38   11.30
  -2  -3  -9  188.58   11.30
  -2  -3  -9  185.18   11.20
  -2  -3  -9  159.38   11.10
  -2  -3  -9  182.68   11.30
  -2  -3  -9  196.18   11.20
   2   3   9  188.68   11.20
   2   3   9  197.08   11.20
  -3  -3  -9    2.50    0.70
  -3  -3  -9    0.90    0.80
  -3  -3  -9    1.00    0.60
  -3  -3  -9    1.60    0.40
  -3  -3  -9    1.30    0.80
   3   3   9    2.20    0.70
   3   3   9    1.90    0.60
  -4  -3  -9   19.40    1.90
  -4  -3  -9   21.30    1.50
  -4  -3  -9   20.80    1.70
  -4  -3  -9   22.40    1.70
   4   3   9   21.40    1.70
   4   3   9   22.60    1.60
  -5  -3  -9   12.10    1.10
  -5  -3  -9   11.80    1.00
  -5  -3  -9   10.90    1.20
   5   3   9   11.80    1.30
  -6  -3  -9   22.10    1.50
  -6  -3  -9   16.80    1.40
   6   3   9   19.40    1.50
   6   3   9   18.10    1.50
   1  -4  -9   39.00    2.40
  -1   4   9   32.80    2.40
  -1   4   9   38.30    2.40
   0  -4  -9    2.50    0.50
   0  -4  -9    2.80    0.50
   0  -4  -9    4.40    0.50
   0   4   9    3.50    0.60
   0   4   9    2.70    0.50
   0   4   9    1.90    0.80
  -1  -4  -9   18.90    1.50
  -1  -4  -9   17.30    1.40
  -1  -4  -9   19.90    1.50
  -1  -4  -9   18.10    1.80
   1   4   9   16.30    1.40
   1   4   9   16.90    1.70
   1   4   9   20.80    1.50
  -2  -4  -9    1.40    0.90
  -2  -4  -9    1.60    0.70
  -2  -4  -9    1.90    0.60
  -2  -4  -9    2.50    0.50
   2   4   9    2.10    0.60
   2   4   9    2.80    0.80
  -3  -4  -9    1.50    0.60
  -3  -4  -9    0.70    0.70
  -3  -4  -9    1.80    0.60
  -3  -4  -9   -0.10    0.50
   3   4   9    1.30    0.50
   3   4   9    0.50    0.50
  -4  -4  -9   51.39    3.30
  -4  -4  -9   46.50    3.10
  -4  -4  -9   49.40    3.30
  -4  -4  -9   50.39    3.20
   4   4   9   46.20    3.20
  -5  -4  -9    0.90    0.70
  -5  -4  -9    0.90    0.40
  -5  -4  -9    0.90    0.40
  -5  -4  -9    0.20    0.40
   5   4   9    1.30    0.60
  -1  -5  -9   37.30    2.40
  -1  -5  -9   40.30    2.50
   1   5   9   37.60    2.40
   1   5   9   34.50    2.60
  -2  -5  -9  111.99    6.50
  -2  -5  -9   93.19    6.50
  -2  -5  -9  105.69    6.50
   2   5   9  108.89    6.50
  -3  -5  -9    8.20    1.30
  -3  -5  -9    9.40    0.80
  -3  -5  -9    8.10    1.00
   3   5   9    8.60    1.00
  -4  -5  -9   91.59    5.70
   0   3 -10   36.00    2.60
   0   3 -10   38.80    2.70
   0   3 -10   40.00    2.60
   0  -3  10   41.60    2.60
   0  -3  10   43.20    2.60
  -1   3 -10  156.28   10.90
  -1   3 -10  177.98   11.00
   1  -3  10  178.38   10.80
   1  -3  10  196.68   11.00
  -2   3 -10    5.20    0.70
   2  -3  10    6.50    0.60
   2  -3  10    3.20    1.00
   1   2 -10   15.50    1.20
  -1  -2  10   14.80    1.50
  -1  -2  10   14.60    1.20
   0   2 -10  296.07   16.00
   0   2 -10  279.97   15.90
   0   2 -10  248.28   15.90
   0  -2  10  224.98   15.90
   0  -2  10  262.77   15.90
   0  -2  10  247.58   16.00
  -1   2 -10   46.90    3.00
  -1   2 -10   42.90    3.00
   1  -2  10   47.50    3.40
   1  -2  10   48.60    2.90
   1  -2  10   42.90    3.40
  -2   2 -10    1.60    0.70
  -2   2 -10    1.00    0.70
  -2   2 -10    0.80    0.70
  -2   2 -10    1.70    0.90
   2  -2  10    1.00    1.00
  -3   2 -10   60.49    3.80
  -3   2 -10   55.99    3.70
   3  -2  10   59.99    3.70
   1   1 -10   21.90    1.70
   1   1 -10   22.30    1.70
  -1  -1  10   21.70    1.50
  -1  -1  10   17.00    2.00
  -1  -1  10   18.00    1.40
   0   1 -10  101.79    6.40
   0   1 -10  104.49    6.40
   0  -1  10   94.49    6.50
   0  -1  10  101.99    6.30
   0  -1  10  105.09    6.40
  -1   1 -10   68.89    4.40
  -1   1 -10   73.79    4.40
  -1   1 -10   57.29    4.60
   1  -1  10   69.59    4.30
   1  -1  10   68.79    4.40
  -2   1 -10  116.09    7.10
  -2   1 -10  113.49    7.10
  -2   1 -10  116.89    7.10
   2  -1  10  101.99    7.20
   2  -1  10  119.79    7.00
  -3   1 -10   32.50    2.10
  -3   1 -10   33.60    2.20
  -3   1 -10   27.00    2.10
  -3   1 -10   26.80    2.00
   3  -1  10   26.00    2.30
   3  -1  10   26.70    1.90
   3  -1  10   26.30    2.00
  -4   1 -10   10.40    1.40
  -4   1 -10   12.10    1.40
  -4   1 -10   11.80    0.90
   4  -1  10   11.10    0.90
   4  -1  10    9.60    1.50
   1   0 -10    1.90    0.50
   1   0 -10    1.70    0.60
  -1   0  10    1.70    0.40
  -1   0  10    2.90    0.50
  -1   0  10    2.30    2.50
   0   0 -10    8.30    1.10
   0   0 -10    7.80    1.00
   0   0  10    7.60    1.10
   0   0  10    7.90    0.80
  -1   0 -10   20.20    1.80
  -1   0 -10   20.50    1.60
   1   0  10   22.00    1.60
   1   0  10   19.90    1.60
   1   0  10   20.40    2.00
  -2   0 -10   68.29    4.40
  -2   0 -10   69.69    4.30
  -2   0 -10   72.69    4.30
   2   0  10   67.39    4.20
   2   0  10   56.49    4.40
   2   0  10   63.69    4.20
  -3   0 -10  142.19    8.20
  -3   0 -10  130.19    8.10
  -3   0 -10  125.99    8.10
   3   0  10  135.09    8.10
   3   0  10  119.19    8.00
  -4   0 -10   58.29    3.70
  -4   0 -10   54.39    3.70
  -4   0 -10   63.39    3.80
   4   0  10   58.49    3.60
   4   0  10   52.99    3.90
  -5   0 -10   14.70    1.40
   5   0  10   15.40    1.20
   5   0  10   13.80    1.20
   1  -1 -10    3.50    0.60
   1  -1 -10    4.90    0.80
  -1   1  10    3.40    0.70
  -1   1  10    2.20    0.80
   0  -1 -10   43.90    2.90
   0  -1 -10   47.60    2.80
   0   1  10   41.00    2.80
   0   1  10   36.10    2.80
  -1  -1 -10    7.80    0.90
  -1  -1 -10    9.60    1.10
   1   1  10    7.10    1.30
   1   1  10    7.90    1.00
   1   1  10    7.30    1.20
  -2  -1 -10   43.10    2.90
  -2  -1 -10   45.40    2.90
  -2  -1 -10   46.00    3.10
   2   1  10   41.90    2.80
   2   1  10   39.80    2.90
  -3  -1 -10   11.20    1.40
  -3  -1 -10    7.60    1.10
  -3  -1 -10    9.60    1.10
  -3  -1 -10   10.50    1.00
   3   1  10    9.50    1.00
   3   1  10    9.60    1.20
   3   1  10   10.20    0.90
  -4  -1 -10   20.20    1.80
  -4  -1 -10   24.70    1.70
  -4  -1 -10   25.30    1.70
  -4  -1 -10   20.40    1.60
   4   1  10   23.60    1.70
   4   1  10   25.20    1.70
   4   1  10   19.60    1.80
  -5  -1 -10   23.80    1.70
   5   1  10   21.90    1.60
   1  -2 -10  134.29    7.40
   1  -2 -10  113.19    7.40
   1  -2 -10  110.79    7.40
   0  -2 -10   30.20    2.40
   0  -2 -10   37.90    2.30
   0   2  10   37.30    2.40
  -1  -2 -10    0.80    0.70
  -1  -2 -10    0.70    0.50
  -1  -2 -10    0.30    0.60
  -1  -2 -10    0.30    0.80
   1   2  10    1.20    0.80
   1   2  10    0.60    0.80
   1   2  10    0.70    0.40
  -2  -2 -10  166.28   10.60
  -2  -2 -10  179.68   10.70
  -2  -2 -10  157.48   10.60
  -2  -2 -10  182.78   10.70
   2   2  10  184.08   10.60
   2   2  10  167.28   10.60
  -3  -2 -10    9.90    1.10
  -3  -2 -10   11.60    1.30
  -3  -2 -10    9.30    1.10
  -3  -2 -10   11.40    1.20
   3   2  10    9.80    1.20
   3   2  10   11.90    1.00
  -4  -2 -10  100.59    7.20
  -4  -2 -10  127.99    7.20
   4   2  10  119.29    7.20
   4   2  10  119.09    7.20
  -5  -2 -10   19.50    1.40
  -5  -2 -10   15.90    1.60
   5   2  10   18.70    1.40
   0  -3 -10    2.30    0.70
   0  -3 -10    0.80    0.50
   0  -3 -10    1.50    0.50
   0   3  10    1.90    0.90
   0   3  10    1.50    0.60
  -1  -3 -10  199.68   11.90
  -1  -3 -10  202.08   12.00
   1   3  10  181.28   12.00
  -2  -3 -10  145.99    9.40
  -2  -3 -10  162.38    9.30
  -2  -3 -10  147.59    9.30
  -2  -3 -10  149.19    9.30
   2   3  10  146.69    9.30
   2   3  10  149.49    9.30
  -3  -3 -10   28.20    2.00
  -3  -3 -10   27.60    1.80
  -3  -3 -10   28.90    1.90
  -3  -3 -10   26.30    2.00
   3   3  10   27.30    2.00
   3   3  10   26.90    2.10
  -4  -3 -10  271.87   17.60
  -4  -3 -10  308.87   17.60
   4   3  10  281.97   17.60
  -1  -4 -10    8.10    1.10
   1   4  10   10.30    0.80
  -2  -4 -10   61.09    3.80
  -2  -4 -10   65.09    3.90
  -2  -4 -10   57.99    3.90
  -2  -4 -10   59.89    4.00
   2   4  10   64.09    3.90
  -3  -4 -10   63.69    4.10
  -3  -4 -10   67.19    4.10
  -3  -4 -10   66.59    4.20
   3   4  10   67.89    4.20
  -2   0 -11   67.69    4.20
  -2   0 -11   70.69    4.20
   2   0  11   60.79    4.10
  -2  -1 -11   14.20    1.00
  -2  -1 -11   11.20    1.10
   2   1  11   13.40    1.00
;
_shelx_hkl_checksum              25438
loop_
_space_group_symop_operation_xyz
'x, y, z'
'-x, -y, -z'
loop_
_atom_site_type_symbol
_atom_site_label
_atom_site_fract_x
_atom_site_fract_y
_atom_site_fract_z
_atom_site_U_iso_or_equiv
_atom_site_adp_type
_atom_site_calc_flag
_atom_site_refinement_flags_adp
_atom_site_refinement_flags_posn
_atom_site_occupancy
S S1 0.71804(5) 0.55995(5) 0.14876(4) 0.01351(13) Uani d . . 1
F F1 0.58452(14) 1.00002(12) 0.15605(10) 0.0217(2) Uani d . . 1
N N1 0.02279(19) 0.82549(18) 0.62830(14) 0.0175(3) Uani d . . 1
O O1 0.88913(15) 0.54856(16) 0.20828(12) 0.0184(3) Uani d . . 1
O O2 0.68741(16) 0.39529(15) 0.08872(12) 0.0181(3) Uani d . . 1
O O3 -0.13232(16) 0.78797(18) 0.61876(13) 0.0253(3) Uani d . . 1
O O4 0.04148(17) 0.91636(17) 0.72916(13) 0.0250(3) Uani d . . 1
C C1 0.7460(2) 0.9191(2) 0.04853(18) 0.0192(3) Uani d . . 1
H H1A 0.8642 0.9005 0.0899 0.023 Uiso calc U R 1
H H1B 0.7636 1.0025 -0.0408 0.023 Uiso calc U R 1
C C2 0.7163(2) 0.7349(2) 0.00492(17) 0.0161(3) Uani d . . 1
H H2A 0.8196 0.6898 -0.0829 0.019 Uiso calc U R 1
H H2B 0.5907 0.7542 -0.026 0.019 Uiso calc U R 1
C C3 0.5129(2) 0.6399(2) 0.29329(17) 0.0142(3) Uani d . . 1
C C4 0.3324(2) 0.6186(2) 0.27576(17) 0.0176(3) Uani d . . 1
H H4 0.3201 0.564 0.1884 0.021 Uiso calc U R 1
C C5 0.1706(2) 0.6780(2) 0.38722(18) 0.0176(3) Uani d . . 1
H H5 0.0456 0.6639 0.3787 0.021 Uiso calc U R 1
C C6 0.1961(2) 0.7586(2) 0.51145(17) 0.0153(3) Uani d . . 1
C C7 0.3751(2) 0.7814(2) 0.53088(17) 0.0160(3) Uani d . . 1
H H7 0.3867 0.8371 0.618 0.019 Uiso calc U R 1
C C8 0.5366(2) 0.7202(2) 0.41910(17) 0.0158(3) Uani d . . 1
H H8 0.6618 0.733 0.4284 0.019 Uiso calc U R 1
loop_
_atom_site_aniso_label
_atom_site_aniso_U_11
_atom_site_aniso_U_22
_atom_site_aniso_U_33
_atom_site_aniso_U_12
_atom_site_aniso_U_13
_atom_site_aniso_U_23
S1 0.0121(2) 0.0154(2) 0.0134(2) -0.00177(14) -0.00410(14) -0.00155(14)
F1 0.0253(5) 0.0175(5) 0.0199(5) -0.0026(4) -0.0008(4) -0.0029(4)
N1 0.0166(7) 0.0191(7) 0.0160(7) -0.0012(5) -0.0041(5) 0.0005(5)
O1 0.0133(5) 0.0240(6) 0.0181(6) -0.0005(4) -0.0062(4) -0.0022(4)
O2 0.0194(6) 0.0163(6) 0.0190(6) -0.0027(4) -0.0046(4) -0.0035(4)
O3 0.0139(6) 0.0378(7) 0.0245(6) -0.0051(5) -0.0037(5) -0.0042(5)
O4 0.0238(6) 0.0304(7) 0.0204(6) -0.0030(5) -0.0031(5) -0.0099(5)
C1 0.0166(8) 0.0206(8) 0.0194(8) -0.0045(6) -0.0008(6) -0.0021(6)
C2 0.0156(7) 0.0182(8) 0.0144(7) -0.0028(6) -0.0033(6) -0.0007(6)
C3 0.0151(7) 0.0144(7) 0.0132(7) -0.0029(6) -0.0037(6) 0.0007(6)
C4 0.0185(8) 0.0207(8) 0.0156(8) -0.0051(6) -0.0063(6) -0.0025(6)
C5 0.0141(7) 0.0214(8) 0.0191(8) -0.0047(6) -0.0062(6) -0.0002(6)
C6 0.0151(8) 0.0156(7) 0.0140(7) -0.0015(6) -0.0026(6) 0.0009(6)
C7 0.0194(8) 0.0162(8) 0.0139(7) -0.0035(6) -0.0067(6) -0.0011(6)
C8 0.0150(7) 0.0169(7) 0.0176(8) -0.0043(6) -0.0069(6) 0.0008(6)
loop_
_atom_type_symbol
_atom_type_description
_atom_type_scat_dispersion_real
_atom_type_scat_dispersion_imag
_atom_type_scat_source
C C 0.0181 0.0091 'International Tables Vol C Tables 4.2.6.8 and 6.1.1.4'
H H 0.0000 0.0000 'International Tables Vol C Tables 4.2.6.8 and 6.1.1.4'
N N 0.0311 0.0180 'International Tables Vol C Tables 4.2.6.8 and 6.1.1.4'
O O 0.0492 0.0322 'International Tables Vol C Tables 4.2.6.8 and 6.1.1.4'
F F 0.0727 0.0534 'International Tables Vol C Tables 4.2.6.8 and 6.1.1.4'
S S 0.3331 0.5567 'International Tables Vol C Tables 4.2.6.8 and 6.1.1.4'
loop_
_geom_angle_atom_site_label_1
_geom_angle_atom_site_label_2
_geom_angle_atom_site_label_3
_geom_angle
O2 S1 O1 118.58(7)
O2 S1 C2 107.16(7)
O1 S1 C2 108.91(7)
O2 S1 C3 108.01(7)
O1 S1 C3 107.66(7)
C2 S1 C3 105.83(7)
O4 N1 O3 123.65(13)
O4 N1 C6 118.03(13)
O3 N1 C6 118.32(13)
F1 C1 C2 109.54(12)
F1 C1 H1A 109.8
C2 C1 H1A 109.8
F1 C1 H1B 109.8
C2 C1 H1B 109.8
H1A C1 H1B 108.2
C1 C2 S1 114.53(11)
C1 C2 H2A 108.6
S1 C2 H2A 108.6
C1 C2 H2B 108.6
S1 C2 H2B 108.6
H2A C2 H2B 107.6
C4 C3 C8 122.11(14)
C4 C3 S1 117.97(11)
C8 C3 S1 119.91(12)
C5 C4 C3 119.14(14)
C5 C4 H4 120.4
C3 C4 H4 120.4
C6 C5 C4 118.19(14)
C6 C5 H5 120.9
C4 C5 H5 120.9
C5 C6 C7 123.52(14)
C5 C6 N1 117.99(14)
C7 C6 N1 118.48(13)
C6 C7 C8 117.90(14)
C6 C7 H7 121.0
C8 C7 H7 121.0
C7 C8 C3 119.13(14)
C7 C8 H8 120.4
C3 C8 H8 120.4
loop_
_geom_bond_atom_site_label_1
_geom_bond_atom_site_label_2
_geom_bond_distance
S1 O2 1.4407(11)
S1 O1 1.4438(11)
S1 C2 1.7789(15)
S1 C3 1.7791(15)
F1 C1 1.4024(18)
N1 O4 1.2246(17)
N1 O3 1.2287(18)
N1 C6 1.474(2)
C1 C2 1.508(2)
C1 H1A 0.99
C1 H1B 0.99
C2 H2A 0.99
C2 H2B 0.99
C3 C4 1.388(2)
C3 C8 1.391(2)
C4 C5 1.384(2)
C4 H4 0.95
C5 C6 1.384(2)
C5 H5 0.95
C6 C7 1.387(2)
C7 C8 1.388(2)
C7 H7 0.95
C8 H8 0.95
loop_
_geom_hbond_atom_site_label_D
_geom_hbond_atom_site_label_H
_geom_hbond_atom_site_label_A
_geom_hbond_site_symmetry_A
_geom_hbond_distance_DH
_geom_hbond_distance_HA
_geom_hbond_distance_DA
_geom_hbond_angle_DHA
C1 H1A O4 2_676 0.99 2.50 3.237(2) 131.5
C1 H1B O4 1_654 0.99 2.58 3.211(2) 121.8
C2 H2B F1 2_675 0.99 2.40 3.1656(18) 134.0
C4 H4 O2 2_665 0.95 2.55 3.3881(19) 147.1
C5 H5 O1 1_455 0.95 2.41 3.1989(19) 140.4
C7 H7 F1 2_676 0.95 2.53 3.4822(18) 177.4
loop_
_geom_torsion_atom_site_label_1
_geom_torsion_atom_site_label_2
_geom_torsion_atom_site_label_3
_geom_torsion_atom_site_label_4
_geom_torsion
F1 C1 C2 S1 -68.12(15)
O2 S1 C2 C1 179.82(10)
O1 S1 C2 C1 -50.76(13)
C3 S1 C2 C1 64.74(13)
O2 S1 C3 C4 -35.20(14)
O1 S1 C3 C4 -164.36(12)
C2 S1 C3 C4 79.29(13)
O2 S1 C3 C8 144.62(12)
O1 S1 C3 C8 15.46(14)
C2 S1 C3 C8 -100.88(13)
C8 C3 C4 C5 -0.4(2)
S1 C3 C4 C5 179.40(12)
C3 C4 C5 C6 0.7(2)
C4 C5 C6 C7 -0.6(2)
C4 C5 C6 N1 178.66(13)
O4 N1 C6 C5 -171.42(14)
O3 N1 C6 C5 8.2(2)
O4 N1 C6 C7 7.9(2)
O3 N1 C6 C7 -172.47(14)
C5 C6 C7 C8 0.2(2)
N1 C6 C7 C8 -179.11(13)
C6 C7 C8 C3 0.2(2)
C4 C3 C8 C7 0.0(2)
S1 C3 C8 C7 -179.86(11)
