#------------------------------------------------------------------------------
#$Date: 2015-12-09 10:40:27 +0200 (Wed, 09 Dec 2015) $
#$Revision: 170918 $
#$URL: svn://www.crystallography.net/cod/cif/1/52/07/1520739.cif $
#------------------------------------------------------------------------------
#
# This file is available in the Crystallography Open Database (COD),
# http://www.crystallography.net/
#
# All data on this site have been placed in the public domain by the
# contributors.
#
data_1520739
loop_
_publ_author_name
'Mary Sheeba, Mani'
'Preethi, Sankaranarayanan'
'Nijamudheen, A.'
'Muthu Tamizh, Manoharan'
'Datta, Ayan'
'Farrugia, Louis J.'
'Karvembu, Ramasamy'
_publ_section_title
;
 Half-sandwich Ru(\h6-C6H6) complexes with chiral aroylthioureas for
 enhanced asymmetric transfer hydrogenation of ketones -- experimental and
 theoretical studies
;
_journal_issue                   10
_journal_name_full               'Catal. Sci. Technol.'
_journal_page_first              4790
_journal_paper_doi               10.1039/C5CY00774G
_journal_volume                  5
_journal_year                    2015
_chemical_absolute_configuration ad
_chemical_compound_source        'as described'
_chemical_formula_moiety         'C20 H20 Cl2 N2  O Ru S2'
_chemical_formula_sum            'C20 H20 Cl2 N2 O Ru S2'
_chemical_formula_weight         540.47
_chemical_name_systematic
;
 ?
;
_space_group_IT_number           19
_symmetry_cell_setting           orthorhombic
_symmetry_Int_Tables_number      19
_symmetry_space_group_name_Hall  'P 2ac 2ab'
_symmetry_space_group_name_H-M   'P 21 21 21'
_atom_sites_solution_hydrogens   mixed
_atom_sites_solution_primary     direct
_atom_sites_solution_secondary   direct
_audit_conform_dict_location     ftp://ftp.iucr.org/pub/cif_core.dic
_audit_conform_dict_name         cif_core.dic
_audit_conform_dict_version      2.4.3
_audit_creation_date             2013-11-11T13:44:14-00:00
_audit_creation_method           'WinGX routine CIF_UPDATE'
_audit_update_record
;
2014-11-05 deposited with the CCDC.
2015-07-03 downloaded from the CCDC.
;
_cell_angle_alpha                90
_cell_angle_beta                 90
_cell_angle_gamma                90
_cell_formula_units_Z            4
_cell_length_a                   6.61740(10)
_cell_length_b                   17.1016(3)
_cell_length_c                   19.4048(4)
_cell_measurement_reflns_used    5426
_cell_measurement_temperature    100(2)
_cell_measurement_theta_max      34.97
_cell_measurement_theta_min      2
_cell_measurement_wavelength     0.71073
_cell_volume                     2196.00(7)
_computing_cell_refinement       'HKL Scalepack (Otwinowski & Minor 1997)'
_computing_data_collection       'Collect (Bruker AXS BV, 1997-2004)'
_computing_data_reduction
'HKL Denzo and Scalepack (Otwinowski & Minor 1997)'
_computing_molecular_graphics    'ORTEP-3 for Windows (Farrugia, 2012)'
_computing_publication_material  'WinGX publication routines (Farrugia, 2012)'
_computing_structure_refinement  'SHELXL-2013 (Sheldrick, 2013)'
_computing_structure_solution    'SIR-92 (Altomare et al., 1994)'
_diffrn_ambient_temperature      100(2)
_diffrn_detector                 'CCD plate'
_diffrn_detector_area_resol_mean 9
_diffrn_measured_fraction_theta_full 1
_diffrn_measured_fraction_theta_max 0.998
_diffrn_measurement_device       '95mm CCD camera on \k-goniostat'
_diffrn_measurement_device_type  KappaCCD
_diffrn_measurement_method       'CCD rotation images, thick slices'
_diffrn_orient_matrix_UB_11      0.146356
_diffrn_orient_matrix_UB_12      -0.00671
_diffrn_orient_matrix_UB_13      0.01139
_diffrn_orient_matrix_UB_21      0.032704
_diffrn_orient_matrix_UB_22      -0.003
_diffrn_orient_matrix_UB_23      -0.050243
_diffrn_orient_matrix_UB_31      0.01862
_diffrn_orient_matrix_UB_32      0.05801
_diffrn_orient_matrix_UB_33      -0.001281
_diffrn_radiation_monochromator  'horizonally mounted graphite crystal'
_diffrn_radiation_probe          x-ray
_diffrn_radiation_type           MoK\a
_diffrn_radiation_wavelength     0.71073
_diffrn_reflns_av_R_equivalents  0.035
_diffrn_reflns_laue_measured_fraction_full 1
_diffrn_reflns_laue_measured_fraction_max 0.998
_diffrn_reflns_limit_h_max       10
_diffrn_reflns_limit_h_min       -10
_diffrn_reflns_limit_k_max       27
_diffrn_reflns_limit_k_min       -27
_diffrn_reflns_limit_l_max       31
_diffrn_reflns_limit_l_min       -31
_diffrn_reflns_number            83354
_diffrn_reflns_point_group_measured_fraction_full 1
_diffrn_reflns_point_group_measured_fraction_max 0.997
_diffrn_reflns_reduction_process
;
        Scaled and merged with Sortav
        R.H. Blessing, (1987) Cryst. Rev. 1, 3-58
        R.H. Blessing, (1989) J. Appl. Cryst. 22, 396-397
;
_diffrn_reflns_theta_full        25.242
_diffrn_reflns_theta_max         35.029
_diffrn_reflns_theta_min         2.099
_diffrn_source                   'Enraf Nonius FR590'
_exptl_absorpt_coefficient_mu    1.161
_exptl_absorpt_correction_T_max  0.89
_exptl_absorpt_correction_T_min  0.595
_exptl_absorpt_correction_type   gaussian
_exptl_absorpt_process_details
;
        P. Coppens, L. Leiserowitz, D Rabinovich, Acta Cryst.
        (1965), 18, 1035-1038
;
_exptl_crystal_colour            orange
_exptl_crystal_density_diffrn    1.635
_exptl_crystal_density_method    'not measured'
_exptl_crystal_description       prism
_exptl_crystal_F_000             1088
_exptl_crystal_size_max          0.8
_exptl_crystal_size_mid          0.29
_exptl_crystal_size_min          0.15
_refine_diff_density_max         0.643
_refine_diff_density_min         -0.642
_refine_diff_density_rms         0.06
_refine_ls_abs_structure_details
;
 Flack x determined using 3988 quotients [(I+)-(I-)]/[(I+)+(I-)]
 (Parsons and Flack (2004), Acta Cryst. A60, s61).
;
_refine_ls_abs_structure_Flack   -0.009(7)
_refine_ls_extinction_coef       0.0015(3)
_refine_ls_extinction_expression Fc^*^=kFc[1+0.001xFc^2^\l^3^/sin(2\q)]^-1/4^
_refine_ls_extinction_method     SHELXL
_refine_ls_goodness_of_fit_ref   1.049
_refine_ls_hydrogen_treatment    refU
_refine_ls_matrix_type           full
_refine_ls_number_constraints    0
_refine_ls_number_parameters     281
_refine_ls_number_reflns         9662
_refine_ls_number_restraints     0
_refine_ls_restrained_S_all      1.049
_refine_ls_R_factor_all          0.0198
_refine_ls_R_factor_gt           0.0177
_refine_ls_shift/su_max          0.005
_refine_ls_shift/su_mean         0
_refine_ls_structure_factor_coef Fsqd
_refine_ls_weighting_details
'w=1/[\s^2^(Fo^2^)+(0.0151P)^2^+0.1580P] where P=(Fo^2^+2Fc^2^)/3'
_refine_ls_weighting_scheme      calc
_refine_ls_wR_factor_gt          0.0438
_refine_ls_wR_factor_ref         0.0443
_reflns_number_gt                9231
_reflns_number_total             9662
_reflns_threshold_expression     'I > 2\s(I)'
_iucr_refine_instructions_details
;
TITL (C6H6)RuCl2(C14H14N2OS) KappaCCD 100K in  P 21 21 21
CELL  0.71073   6.6174  17.1016  19.4048   90.000   90.000   90.000
ZERR     4.00   0.0001   0.0003   0.0004    0.000    0.000    0.000
LATT  -1
SYMM  1/2 - X, - Y, 1/2 + Z
SYMM  1/2 + X, 1/2 - Y, - Z
SYMM  - X, 1/2 + Y, 1/2 - Z
SFAC  RU   S    CL   O    N    C    H
UNIT  4    8    8    4    8    80   80
MERG   2
FMAP   2
PLAN    5
SIZE     0.150   0.290   0.800
ACTA
BOND   $H
CONF
L.S.  10
TEMP  -173.00
WGHT    0.015100    0.158000
EXTI    0.001460
FVAR       0.39855
RU1   1    0.608586    0.834912    0.610082    11.00000    0.01078    0.01175 =
         0.01186    0.00105    0.00120    0.00049
S1    2    0.464104    0.819370    0.723103    11.00000    0.01694    0.01566 =
         0.01261    0.00141    0.00251    0.00316
S2    2    1.018288    0.501233    0.773960    11.00000    0.02721    0.01678 =
         0.02676    0.00664    0.00298    0.00548
CL1   3    0.594056    0.694985    0.594935    11.00000    0.02347    0.01392 =
         0.01506   -0.00201   -0.00068   -0.00276
CL2   3    0.945736    0.816903    0.655780    11.00000    0.01161    0.01490 =
         0.02804    0.00609   -0.00221   -0.00174
O1    4    0.690857    0.596843    0.826283    11.00000    0.02805    0.01861 =
         0.02470    0.00880    0.00718    0.00223
N1    5    0.714663    0.699054    0.749940    11.00000    0.01847    0.01429 =
         0.01431    0.00277    0.00230    0.00195
N2    5    0.442955    0.716537    0.823872    11.00000    0.02057    0.01480 =
         0.01458    0.00064    0.00341   -0.00029
C1    6    0.543948    0.739974    0.768416    11.00000    0.01792    0.01270 =
         0.01241   -0.00099   -0.00017   -0.00107
C2    6    0.778258    0.628844    0.777737    11.00000    0.01970    0.01449 =
         0.01609    0.00217   -0.00071   -0.00071
C3    6    0.959590    0.594217    0.746853    11.00000    0.02055    0.01302 =
         0.01815    0.00265   -0.00134    0.00222
C4    6    1.100931    0.623566    0.700175    11.00000    0.02496    0.01560 =
         0.02094   -0.00115   -0.00370    0.00722
AFIX  43
H4    7    1.094156    0.673899    0.679590    11.00000    0.05057
AFIX   0
C5    6    1.255952    0.568191    0.687605    11.00000    0.02396    0.02038 =
         0.02376    0.00188    0.00151    0.00170
AFIX  43
H5    7    1.366529    0.577452    0.657469    11.00000    0.03321
AFIX   0
C6    6    1.229594    0.499548    0.723634    11.00000    0.02245    0.01943 =
         0.02506    0.00340    0.00091    0.00653
AFIX  43
H6    7    1.318949    0.456190    0.720779    11.00000    0.02271
AFIX   0
C7    6    0.258895    0.753516    0.849849    11.00000    0.01910    0.01844 =
         0.01629   -0.00125    0.00356   -0.00225
AFIX  13
H7    7    0.162475    0.760430    0.810639    11.00000    0.01492
AFIX   0
C8    6    0.164711    0.697260    0.902357    11.00000    0.03085    0.02492 =
         0.02434    0.00026    0.01012   -0.00794
AFIX 137
H8A   7    0.259775    0.688602    0.940322    11.00000    0.01996
H8B   7    0.134695    0.647291    0.879853    11.00000    0.03380
H8C   7    0.039480    0.719940    0.920446    11.00000    0.07135
AFIX   0
C10   6    0.347248    0.862796    0.546208    11.00000    0.01599    0.02379 =
         0.01522    0.00292   -0.00205    0.00265
AFIX  43
H10   7    0.222123    0.836077    0.541561    11.00000    0.02588
AFIX   0
C11   6    0.512194    0.844310    0.502333    11.00000    0.02445    0.02373 =
         0.01262    0.00236    0.00017    0.00693
AFIX  43
H11   7    0.495864    0.805542    0.467715    11.00000    0.02797
AFIX   0
C12   6    0.699725    0.882543    0.509311    11.00000    0.02099    0.02532 =
         0.01773    0.00822    0.00651    0.00602
AFIX  43
H12   7    0.809063    0.870107    0.479539    11.00000    0.02599
AFIX   0
C13   6    0.722748    0.940535    0.562103    11.00000    0.01776    0.01822 =
         0.02543    0.00944    0.00218    0.00038
AFIX  43
H13   7    0.850130    0.965111    0.568478    11.00000    0.02652
AFIX   0
C14   6    0.558875    0.961569    0.604675    11.00000    0.02028    0.01250 =
         0.02195    0.00301    0.00012    0.00285
AFIX  43
H14   7    0.573343    1.001873    0.638003    11.00000    0.03289
AFIX   0
C15   6    0.371540    0.921649    0.597073    11.00000    0.01618    0.01883 =
         0.01775    0.00312    0.00160    0.00566
AFIX  43
H15   7    0.261493    0.934547    0.626385    11.00000    0.02995
AFIX   0
C111  6    0.300157    0.832999    0.881905    11.00000    0.02062    0.01715 =
         0.01494    0.00024    0.00272    0.00032
C112  6    0.483778    0.850421    0.913500    11.00000    0.02431    0.02143 =
         0.02403   -0.00596   -0.00490    0.00404
AFIX  43
H112  7    0.587440    0.812035    0.915121    11.00000    0.02980
AFIX   0
C113  6    0.516447    0.923810    0.942757    11.00000    0.03100    0.02394 =
         0.02719   -0.00792   -0.00381    0.00018
AFIX  43
H113  7    0.642518    0.935409    0.963827    11.00000    0.04006
AFIX   0
C114  6    0.365193    0.979879    0.941141    11.00000    0.03923    0.01893 =
         0.02661   -0.00370    0.00156    0.00177
AFIX  43
H114  7    0.387300    1.029802    0.961244    11.00000    0.05067
AFIX   0
C115  6    0.181538    0.962925    0.910110    11.00000    0.03473    0.02375 =
         0.03866   -0.00404   -0.00084    0.00988
AFIX  43
H115  7    0.077576    1.001214    0.909035    11.00000    0.04931
AFIX   0
C116  6    0.149395    0.889470    0.880404    11.00000    0.02414    0.02409 =
         0.03191   -0.00233   -0.00202    0.00550
AFIX  43
H116  7    0.023581    0.878120    0.859052    11.00000    0.03742
AFIX   0
H1    7    0.779611    0.715328    0.714988    11.00000    0.02276
H2    7    0.484659    0.675046    0.844680    11.00000    0.02367
HKLF    4
REM  (C6H6)RuCl2(C14H14N2OS) KappaCCD 100K in  P 21 21 21
REM R1 =  0.0177 for    9231 Fo > 4sig(Fo)  and  0.0198 for all    9662 data
REM    281 parameters refined using      0 restraints
END
;
_cod_data_source_file            c5cy00774g2.cif
_cod_data_source_block           comp_4
_cod_depositor_comments
'Adding full bibliography for 1520736--1520740.cif.'
_cod_database_code               1520739
_audit_block_doi                 10.5517/cc13npyd
_shelx_estimated_absorpt_t_min   0.457
_shelx_estimated_absorpt_t_max   0.845
_iucr_refine_reflections_details
;
   0   0   2 1694.82  46.664   1
   0   0   4 3061.78 95.3276   1
   0   0   6 6142.29 154.837   1
   0   0   8 2177.03 52.9834   1
   0   0  10 1924.14 45.9527   1
   0   0  12 30.4817  2.7521   1
   0   0  14 1121.80 29.4817   1
   0   0  16 610.693 20.3307   1
   0   0  18 3125.92 86.5385   1
   0   0  20 143.675 4.89561   1
   0   0  22 0.04328 1.39308   1
   0   0  24 566.863 16.2014   1
   0   0  26 142.375 5.55567   1
   0   0  28 84.2409  4.1671   1
   0   0  30 45.8136 4.29125   1
   0   1   2 1354.25 33.6362   1
   0   1   3 243.604 6.15202   1
   0   1   4 274.064 7.03223   1
   0   1   5  791.11 18.6353   1
   0   1   6 156.906 4.01181   1
   0   1   7 3.05772 0.96264   1
   0   1   8 228.467 5.69523   1
   0   1   9 3037.66 69.8519   1
   0   1  10 894.306 20.7158   1
   0   1  11 125.364 3.35745   1
   0   1  12 2.47386 1.42605   1
   0   1  13 223.081 5.76408   1
   0   1  14 264.612 6.89415   1
   0   1  15 608.288 14.6786   1
   0   1  16 821.255 20.1705   1
   0   1  17 35.4649 2.42204   1
   0   1  18-1.35087 2.40886   1
   0   1  19 1243.66 29.5848   1
   0   1  20 387.443  9.7277   1
   0   1  21 2.76708 0.91004   1
   0   1  22 12.3584   1.077   1
   0   1  23 279.028  7.3568   1
   0   1  24 10.6969 1.56991   1
   0   1  25  8.6513 1.36144   1
   0   1  26 206.013 5.94165   1
   0   1  27 228.298 6.74939   1
   0   1  28 104.967 3.73612   1
   0   1  29 1.75028 2.63871   1
   0   1  30 51.0378 5.27264   1
   0   1  31 6.07188 2.66261   1
   0   2   0 2662.84  72.565   1
   0   2   1 1304.56 31.7379   1
   0   2   2  55.156 1.48464   1
   0   2   3 8635.34 320.931   1
   0   2   4 2512.22 60.2153   1
   0   2   5 120.416 3.12787   1
   0   2   6 26.8451  0.9189   1
   0   2   7 2156.66 50.1054   1
   0   2   8 1057.16 24.8003   1
   0   2   9 268.777 6.83779   1
   0   2  10 278.109  6.7063   1
   0   2  11 1253.86 29.0011   1
   0   2  12 96.5242 3.32143   1
   0   2  13 53.3332  2.6229   1
   0   2  14 428.462   10.67   1
   0   2  15 147.352 4.68623   1
   0   2  16 196.074 5.68269   1
   0   2  17 958.346 23.1236   1
   0   2  18 87.4789 3.18811   1
   0   2  19 784.567 19.3789   1
   0   2  20 173.322  4.7784   1
   0   2  21 505.716 13.1959   1
   0   2  22 80.6642 2.54049   1
   0   2  23 5.85441 1.18545   1
   0   2  24 6.19974 1.16254   1
   0   2  25  514.44 13.6726   1
   0   2  26 34.3352 1.93928   1
   0   2  27 66.6574 2.71636   1
   0   2  28 43.4561 2.84118   1
   0   2  29 256.226 8.65446   1
   0   2  30 17.9927 2.58217   1
   0   2  31 19.6277 3.02045   1
   0   3   1 67.4364 1.69914   1
   0   3   2 4406.53 108.957   1
   0   3   3 7.25146 0.50059   1
   0   3   4 65.6505 2.17041   1
   0   3   5 218.682 5.61813   1
   0   3   6 212.367  5.2305   1
   0   3   7 30.2504 1.34713   1
   0   3   8 0.66212 1.12482   1
   0   3   9 1.80523 1.31254   1
   0   3  10 605.666 14.1961   1
   0   3  11 27.4036 1.71804   1
   0   3  12 117.606 3.46522   1
   0   3  13 34.6151 2.48473   1
   0   3  14  5.9183 2.24142   1
   0   3  15 30.7804 2.73284   1
   0   3  16 1249.57 31.0049   1
   0   3  17 23.7313 1.61207   1
   0   3  18  18.196 2.62162   1
   0   3  19 3.98586 1.20859   1
   0   3  20 1275.48 30.5668   1
   0   3  21 40.4855  2.3447   1
   0   3  22   66.59 2.24931   1
   0   3  23 62.1865 2.32389   1
   0   3  24 194.087 5.55424   1
   0   3  25 8.61692  1.4384   1
   0   3  26 340.121 9.54935   1
   0   3  27 3.72648 1.85293   1
   0   3  28  327.50 9.66161   1
   0   3  29 16.2943  4.1785   1
   0   3  30 183.504 6.42984   1
   0   3  31 11.3156 2.65954   1
   0   4   0 1281.76 33.3606   1
   0   4   1 1700.43 40.3442   1
   0   4   2 1198.63  28.915   1
   0   4   3 435.505 10.1147   1
   0   4   4 941.076 21.9411   1
   0   4   5 2248.89 53.0987   1
   0   4   6 174.358 4.37301   1
   0   4   7 87.1506 2.37549   1
   0   4   8 361.328  8.7235   1
   0   4   9  513.48  12.139   1
   0   4  10 780.395 18.2694   1
   0   4  11 727.773 17.0766   1
   0   4  12 129.994 4.15421   1
   0   4  13 35.2563 2.29352   1
   0   4  14  499.55  12.355   1
   0   4  15 110.688 4.24922   1
   0   4  16 206.012  6.4103   1
   0   4  17 528.579 15.1922   1
   0   4  18 147.945 4.28134   1
   0   4  19  800.61 20.0819   1
   0   4  20 107.403 3.25644   1
   0   4  21 146.345   4.123   1
   0   4  22 266.364 6.99596   1
   0   4  23 151.975 4.79209   1
   0   4  24 31.6107 1.79551   1
   0   4  25 805.914 21.6236   1
   0   4  26 39.2534 3.77149   1
   0   4  27 82.7111 3.52743   1
   0   4  28 74.8166 3.38347   1
   0   4  29 444.411 13.3781   1
   0   4  30  20.372 2.80463   1
   0   4  31 10.4905 6.29196   1
   0   5   1 3127.98 75.1397   1
   0   5   2 1151.58  26.617   1
   0   5   3  620.98 14.4665   1
   0   5   4 1673.43 39.1211   1
   0   5   5  35.719 1.13886   1
   0   5   6 8.69719 0.83239   1
   0   5   7 78.7574 2.19965   1
   0   5   8 122.574 3.23787   1
   0   5   9 1056.04 24.9517   1
   0   5  10 1014.22 23.5871   1
   0   5  11 0.74194  1.5576   1
   0   5  12 211.286 5.97744   1
   0   5  13 100.365 3.44172   1
   0   5  14 1.83983 2.58723   1
   0   5  15 407.669 13.3484   1
   0   5  16 438.575 10.8952   1
   0   5  17 345.569   9.151   1
   0   5  18 19.0499 2.73876   1
   0   5  19 753.893 19.3468   1
   0   5  20 253.132 6.56427   1
   0   5  21 9.43834 1.01545   1
   0   5  22 1.99324 1.18998   1
   0   5  23 248.764 7.08222   1
   0   5  24 241.296  6.9344   1
   0   5  25-0.59669 4.07496   1
   0   5  26 177.304 5.54216   1
   0   5  27 323.714 9.34958   1
   0   5  28 180.266 5.69569   1
   0   5  29 6.47162 2.45706   1
   0   5  30 10.2042 2.92716   1
   0   6   0 9846.61 219.732   1
   0   6   1   46.82 1.24536   1
   0   6   2 15.1374 0.72922   1
   0   6   3  385.30 8.85035   1
   0   6   4 1252.95 28.7541   1
   0   6   5 8.41062 0.85191   1
   0   6   6 2246.82 53.8415   1
   0   6   7 225.422 5.43699   1
   0   6   8 2544.92 59.0464   1
   0   6   9 8.83613 1.26811   1
   0   6  10 1493.37 34.5969   1
   0   6  11 114.795 3.71348   1
   0   6  12 354.822 8.78054   1
   0   6  13 524.639 12.8771   1
   0   6  14 208.682  5.9816   1
   0   6  15 110.332 4.50524   1
   0   6  16 620.254 15.0553   1
   0   6  17 23.8001 1.33049   1
   0   6  18 2036.52  48.703   1
   0   6  19 94.1292 3.98457   1
   0   6  20  1.9739 1.00485   1
   0   6  21 5.09795 1.07658   1
   0   6  22 94.2558 3.11276   1
   0   6  23 14.4556 1.32455   1
   0   6  24 236.625 6.88733   1
   0   6  25 111.403 3.73879   1
   0   6  26  355.01 9.96391   1
   0   6  27 3.28906 1.98986   1
   0   6  28 106.375 5.22622   1
   0   6  29 1.15376 2.39701   1
   0   6  30  30.337 3.69973   1
   0   7   1 3040.44 69.9805   1
   0   7   2 337.968 8.00372   1
   0   7   3 3900.45 90.4506   1
   0   7   4 146.405 3.63285   1
   0   7   5 664.164 15.2647   1
   0   7   6 56.2688 1.64555   1
   0   7   7 39.8279 1.50285   1
   0   7   8 528.073 12.6026   1
   0   7   9 1360.72 31.6112   1
   0   7  10 834.183   19.49   1
   0   7  11 4.48371 1.18633   1
   0   7  12 125.119 3.73788   1
   0   7  13 12.5774 1.95796   1
   0   7  14 0.69939 2.25454   1
   0   7  15 1348.31 34.2768   1
   0   7  16 395.586 10.1889   1
   0   7  17 243.609 6.46919   1
   0   7  18 10.6436 0.85547   1
   0   7  19 666.302 16.5708   1
   0   7  20 67.4627 2.28309   1
   0   7  21 34.6049 1.70432   1
   0   7  22 68.6454 3.19278   1
   0   7  23  245.60 6.79826   1
   0   7  24 14.3003 1.54389   1
   0   7  25  46.854 2.38738   1
   0   7  26 40.5362  2.2994   1
   0   7  27  406.77 11.6621   1
   0   7  28 63.1049 3.18796   1
   0   7  29 3.13198 2.62353   1
   0   7  30 20.8167  2.9719   1
   0   8   0 2040.61 50.0694   1
   0   8   1 4879.05 114.501   1
   0   8   2 215.385 5.09886   1
   0   8   3 1785.11 41.3007   1
   0   8   4 2808.28 64.3691   1
   0   8   5  23.734 1.00448   1
   0   8   6 434.116 10.1003   1
   0   8   7 1998.78 46.1195   1
   0   8   8 30.9763 1.44551   1
   0   8   9 99.5897 3.13783   1
   0   8  10 283.219 6.94121   1
   0   8  11 506.126 12.6259   1
   0   8  12 131.477 4.12767   1
   0   8  13 833.874  20.922   1
   0   8  14 555.234 13.8075   1
   0   8  15 627.627 16.6377   1
   0   8  16 129.141 3.38906   1
   0   8  17  520.73  12.874   1
   0   8  18 69.4219 2.93832   1
   0   8  19 146.282 4.03554   1
   0   8  20 251.122 6.65158   1
   0   8  21 272.148 7.50126   1
   0   8  22 103.235 3.22694   1
   0   8  23 4.25308 1.37798   1
   0   8  24 56.3296 2.36923   1
   0   8  25 164.271 6.23317   1
   0   8  26 18.7826 1.98692   1
   0   8  27 11.6348 2.93654   1
   0   8  28 36.8619 3.47772   1
   0   8  29  145.60 5.30296   1
   0   8  30 -1.0313 6.47241   1
   0   9   1 213.319 5.04927   1
   0   9   2 2102.35  48.525   1
   0   9   3  698.34 16.1333   1
   0   9   4 423.289 10.0074   1
   0   9   5 44.9403 1.50167   1
   0   9   6 1672.11 38.9144   1
   0   9   7 233.699 5.97315   1
   0   9   8  506.58 11.8804   1
   0   9   9 114.759 3.19601   1
   0   9  10 516.333 12.4128   1
   0   9  11  39.481 2.29843   1
   0   9  12 474.264 11.9886   1
   0   9  13  726.86 18.7092   1
   0   9  14 111.526 3.61758   1
   0   9  15 300.096 7.41125   1
   0   9  16 508.454 12.6957   1
   0   9  17 269.367 6.97661   1
   0   9  18 216.673 5.84655   1
   0   9  19 2.48338  1.0457   1
   0   9  20 880.006 22.3021   1
   0   9  21 38.2595 1.69913   1
   0   9  22 153.371 4.51716   1
   0   9  23 1.15788 1.35476   1
   0   9  24 347.688 9.64805   1
   0   9  25 56.9691 3.06101   1
   0   9  26 198.239 5.95724   1
   0   9  27-0.48588  5.2313   1
   0   9  28 45.0805  3.4236   1
   0   9  29 73.3771 4.27239   1
   0  10   0 204.831 5.24058   1
   0  10   1 2345.00 53.7817   1
   0  10   2 1275.88 29.3862   1
   0  10   3 105.133   2.753   1
   0  10   4 772.102 17.8592   1
   0  10   5  118.32 3.03381   1
   0  10   6 8.96522 1.23201   1
   0  10   7 700.159 16.5566   1
   0  10   8 44.2946  1.8473   1
   0  10   9 7.76709  1.5573   1
   0  10  10 224.656 6.05324   1
   0  10  11 493.733 12.1504   1
   0  10  12 339.286 9.19353   1
   0  10  13 0.92283 0.56146   1
   0  10  14 122.937 3.86242   1
   0  10  15 19.2278   0.896   1
   0  10  16 303.668  7.7114   1
   0  10  17 908.905 24.7917   1
   0  10  18 92.6509  2.7199   1
   0  10  19 535.128 14.0053   1
   0  10  20 29.8677 1.57195   1
   0  10  21 140.158 4.29284   1
   0  10  22 269.535 7.64446   1
   0  10  23 8.76812 1.45995   1
   0  10  24 9.30078 1.88026   1
   0  10  25 419.531 11.8113   1
   0  10  26 214.204 7.59767   1
   0  10  27-2.56187 4.95256   1
   0  10  28  70.818 7.64043   1
   0  10  29 81.6785 5.84743   1
   0  11   1  624.26  14.598   1
   0  11   2 647.745 15.1029   1
   0  11   3 328.035 7.89014   1
   0  11   4 610.171 14.3101   1
   0  11   5 493.806 12.7192   1
   0  11   6  10.868 1.29732   1
   0  11   7  10.996 1.45589   1
   0  11   8  92.504  2.8395   1
   0  11   9  541.88 13.2938   1
   0  11  10 204.573 6.24792   1
   0  11  11 31.3209 2.83633   1
   0  11  12 54.4989 2.83773   1
   0  11  13 775.208 18.5937   1
   0  11  14 229.559 6.94215   1
   0  11  15 107.431 2.92869   1
   0  11  16 88.8785 2.62292   1
   0  11  17 746.025 18.4387   1
   0  11  18 20.6458 1.45255   1
   0  11  19 283.044 7.53875   1
   0  11  20 135.704 4.02186   1
   0  11  21 175.599 5.03123   1
   0  11  22 1.77682  2.4387   1
   0  11  23 165.306 6.09357   1
   0  11  24 45.9057  2.3928   1
   0  11  25-1.77557 5.54027   1
   0  11  26 90.4615  4.0923   1
   0  11  27 283.959 9.27397   1
   0  11  28 98.5795 5.12675   1
   0  12   0 2497.58 58.8654   1
   0  12   1 39.2429 1.56607   1
   0  12   2 226.813 5.52349   1
   0  12   3 509.406 12.0414   1
   0  12   4 407.409 10.0461   1
   0  12   5  126.73 3.62737   1
   0  12   6 237.248 6.12528   1
   0  12   7 241.932 6.48817   1
   0  12   8 925.123 22.8862   1
   0  12   9 129.081 4.31158   1
   0  12  10 105.301 3.87908   1
   0  12  11 23.9487  3.5014   1
   0  12  12 267.178 10.0007   1
   0  12  13 238.644 5.95224   1
   0  12  14 226.901 5.78714   1
   0  12  15 131.882 6.36112   1
   0  12  16 14.8201 1.94455   1
   0  12  17 8.29138  1.3236   1
   0  12  18 1322.99 35.0777   1
   0  12  19 179.462 5.02323   1
   0  12  20 27.5218 1.66323   1
   0  12  21 28.9457 1.94695   1
   0  12  22 175.894   5.269   1
   0  12  23-0.84964 4.04999   1
   0  12  24 291.312 10.4057   1
   0  12  25 87.9561 3.64444   1
   0  12  26  362.06 11.4458   1
   0  12  27 48.3226 4.73255   1
   0  12  28 84.3967 4.71047   1
   0  13   1 205.406 5.14621   1
   0  13   2 472.482 11.1872   1
   0  13   3 413.791 10.3285   1
   0  13   4 264.385 7.00567   1
   0  13   5 274.958 6.84639   1
   0  13   6 279.507 7.02317   1
   0  13   7  14.971 1.85069   1
   0  13   8 955.556 23.8958   1
   0  13   9 973.541 24.6506   1
   0  13  10 171.823 5.17604   1
   0  13  11-0.32975 7.05216   1
   0  13  12 608.706 15.0052   1
   0  13  13 39.5709 1.51863   1
   0  13  14 2.30985 0.76035   1
   0  13  15 471.284 11.7844   1
   0  13  16 363.995 9.85725   1
   0  13  17 103.814 4.13939   1
   0  13  18 2.68941 1.47949   1
   0  13  19 222.241 6.21222   1
   0  13  20 1.56845 1.41361   1
   0  13  21 88.5593 3.26066   1
   0  13  22 35.0564 2.00814   1
   0  13  23 134.168 4.55808   1
   0  13  24 6.89611 1.83761   1
   0  13  25  6.7995 2.38514   1
   0  13  26 10.6793 4.67426   1
   0  13  27 210.758  8.4825   1
   0  14   0 461.504 11.8015   1
   0  14   1  551.44 13.2428   1
   0  14   2 5.19357 1.16381   1
   0  14   3 1626.85 38.4882   1
   0  14   4 648.938 15.9001   1
   0  14   5 6.70521 2.33463   1
   0  14   6 5.51171 2.19438   1
   0  14   7 1816.90 43.2204   1
   0  14   8 293.957 7.98717   1
   0  14   9 206.422 5.56587   1
   0  14  10 20.4969 2.29226   1
   0  14  11 1113.41 26.8262   1
   0  14  12 0.26957 0.91338   1
   0  14  13 355.732 9.04867   1
   0  14  14  33.751  1.6314   1
   0  14  15 332.752 8.97356   1
   0  14  16 99.9049 2.90004   1
   0  14  17 288.111 7.66631   1
   0  14  18 121.242 3.79149   1
   0  14  19 1.99766 1.18395   1
   0  14  20 33.9505 1.81402   1
   0  14  21 299.747 9.21325   1
   0  14  22  191.85 6.07538   1
   0  14  23  2.4773 2.08476   1
   0  14  24 18.7138 2.73169   1
   0  14  25 82.1892 4.85989   1
   0  14  26 41.8588 3.43652   1
   0  15   1 125.308 3.72088   1
   0  15   2 1136.82 27.3115   1
   0  15   3 144.042 4.75329   1
   0  15   4 78.0804  2.8126   1
   0  15   5 126.731  4.0635   1
   0  15   6  713.61 17.8429   1
   0  15   7 106.202 3.58172   1
   0  15   8 407.839 10.3622   1
   0  15   9 48.1041 1.55042   1
   0  15  10 16.5016 1.19715   1
   0  15  11 2.20918 1.35014   1
   0  15  12 1310.52 32.7843   1
   0  15  13 196.245 5.27079   1
   0  15  14 1.87973 1.14253   1
   0  15  15 20.5282 1.35645   1
   0  15  16 413.477  11.007   1
   0  15  17 18.2329 1.66834   1
   0  15  18 34.6406 1.77112   1
   0  15  19 19.8188 1.76436   1
   0  15  20 219.967 6.68825   1
   0  15  21 2.48647 1.89857   1
   0  15  22 104.937 5.39727   1
   0  15  23  22.173 2.14994   1
   0  15  24 76.6736 6.82374   1
   0  15  25 54.3275 4.64227   1
   0  15  26 90.7173 4.98421   1
   0  16   0 223.451 7.95753   1
   0  16   1  997.19 24.9772   1
   0  16   2 545.284 13.2796   1
   0  16   3 384.921 9.44814   1
   0  16   4 568.619 13.6488   1
   0  16   5 106.926 3.61613   1
   0  16   6-1.04852 1.99143   1
   0  16   7 1027.67 25.3247   1
   0  16   8 71.9959 3.39046   1
   0  16   9 13.9874 1.47646   1
   0  16  10 246.064 6.74981   1
   0  16  11  555.99 14.0079   1
   0  16  12 6.08484 1.15398   1
   0  16  13 241.775  7.2891   1
   0  16  14 854.408 21.2501   1
   0  16  15 34.7624 1.57626   1
   0  16  16 533.745 13.9091   1
   0  16  17 289.641  8.5504   1
   0  16  18 8.98236  1.3716   1
   0  16  19 87.1738 3.38681   1
   0  16  20 9.89343 1.62164   1
   0  16  21 140.146 4.67701   1
   0  16  22 233.709 9.51225   1
   0  16  23-1.00403 4.94106   1
   0  16  24 31.6563 2.94975   1
   0  16  25 119.113 5.29677   1
   0  17   1 64.7486 1.90721   1
   0  17   2 380.603 9.48369   1
   0  17   3  8.2864 1.07567   1
   0  17   4 1.49525 0.71615   1
   0  17   5 338.299 8.23476   1
   0  17   6 18.2173  0.8398   1
   0  17   7 9.73987 0.96548   1
   0  17   8 299.528 7.52421   1
   0  17   9 546.661 14.3884   1
   0  17  10 183.596 5.37151   1
   0  17  11  15.099 2.39659   1
   0  17  12 170.094 5.30599   1
   0  17  13 319.201 9.16835   1
   0  17  14 336.351 9.99054   1
   0  17  15 3.37871 1.33956   1
   0  17  16 116.821 3.70815   1
   0  17  17 300.362 8.57251   1
   0  17  18 3.22094 1.65531   1
   0  17  19 200.508 6.38435   1
   0  17  20 37.5322 2.31498   1
   0  17  21 87.5727 3.65724   1
   0  17  22 12.7088 3.15844   1
   0  17  23 273.058 11.2538   1
   0  17  24-1.24664  5.4194   1
   0  18   0 313.465 9.67595   1
   0  18   1 108.238 3.00509   1
   0  18   2 27.8355 1.28208   1
   0  18   3 39.9161 1.44464   1
   0  18   4 89.2101 3.31671   1
   0  18   5   0.477 1.03569   1
   0  18   6  17.651 1.04877   1
   0  18   7  82.648 2.91214   1
   0  18   8 367.026 9.38993   1
   0  18   9 82.5115  2.4871   1
   0  18  10 281.106 7.27835   1
   0  18  11 318.047 8.67052   1
   0  18  12 318.906 10.3186   1
   0  18  13 2.41116 1.46613   1
   0  18  14 145.359 7.02412   1
   0  18  15 28.6858 1.92632   1
   0  18  16 98.3327 3.30581   1
   0  18  17 23.3622 2.12704   1
   0  18  18 717.596 19.5347   1
   0  18  19-0.15668 5.52776   1
   0  18  20 151.301 7.49713   1
   0  18  21 0.78033 2.67512   1
   0  18  22 222.673 7.89099   1
   0  18  23-0.73175 6.34663   1
   0  19   1 107.359 2.98194   1
   0  19   2 107.146 4.32421   1
   0  19   3 126.201 3.43507   1
   0  19   4 145.515 4.67169   1
   0  19   5 18.0786 1.49417   1
   0  19   6 77.3427 2.37653   1
   0  19   7 9.73422 1.47577   1
   0  19   8 98.5759 2.98833   1
   0  19   9 120.697 4.00829   1
   0  19  10 3.75349 1.00024   1
   0  19  11 6.13282 1.36443   1
   0  19  12 370.155   10.41   1
   0  19  13 68.9432 3.46365   1
   0  19  14 101.872  4.5469   1
   0  19  15 28.0224  1.9524   1
   0  19  16 125.031 4.19911   1
   0  19  17 91.7469 4.23669   1
   0  19  18 18.0389 2.26949   1
   0  19  19 57.6414 2.91946   1
   0  19  20 60.0266 3.84425   1
   0  19  21 28.1569 3.21172   1
   0  19  22 54.5302  4.5096   1
   0  20   0 3.30917 1.86841   1
   0  20   1 52.0129 1.78005   1
   0  20   2 3.87709 0.98445   1
   0  20   3 528.446 13.1414   1
   0  20   4 53.3832 1.96675   1
   0  20   5 2.28708 1.27961   1
   0  20   6 77.1125 2.69935   1
   0  20   7 838.504 21.3958   1
   0  20   8 10.4136 1.51436   1
   0  20   9 6.06365  1.6755   1
   0  20  10 7.23621 1.97944   1
   0  20  11 453.645 12.4606   1
   0  20  12 123.349 4.56591   1
   0  20  13 105.752 3.69504   1
   0  20  14 3.54717  1.8943   1
   0  20  15 431.407  13.159   1
   0  20  16  4.0759 1.54973   1
   0  20  17 7.99725 2.03469   1
   0  20  18 118.698 4.77188   1
   0  20  19  73.025  3.7356   1
   0  20  20-3.66088 6.60244   1
   0  20  21 189.402 7.43342   1
   0  21   1 0.75673 1.05805   1
   0  21   2 248.688 7.60358   1
   0  21   3 97.4175  3.2134   1
   0  21   4 293.421 8.60436   1
   0  21   5   77.67 2.85362   1
   0  21   6 615.977  16.263   1
   0  21   7-1.50771 3.90307   1
   0  21   8 244.428 7.56395   1
   0  21   9 6.55081 1.72097   1
   0  21  10  13.513 1.89445   1
   0  21  11 93.4545 3.98066   1
   0  21  12 769.558 24.2149   1
   0  21  13  89.108 3.99695   1
   0  21  14  2.1833 1.96256   1
   0  21  15 16.6642 2.25691   1
   0  21  16  143.51 4.99102   1
   0  21  17 17.0606  3.2942   1
   0  21  18   33.56 2.68473   1
   0  21  19 5.13263 2.65566   1
   0  21  20 80.5023  4.1353   1
   0  22   0 1.50378 1.88113   1
   0  22   1 255.544 6.76136   1
   0  22   2 413.957 10.8447   1
   0  22   3 344.932 9.29803   1
   0  22   4 387.894 10.6111   1
   0  22   5-0.17901 3.68168   1
   0  22   6 28.3645 2.11404   1
   0  22   7 723.078  19.146   1
   0  22   8 53.1693 2.55786   1
   0  22   9 16.2161 3.18717   1
   0  22  10 256.374 7.91351   1
   0  22  11 249.874 8.38177   1
   0  22  12 11.8852 2.17501   1
   0  22  13 238.981 7.57343   1
   0  22  14 238.605 8.50817   1
   0  22  15 98.8951 4.58666   1
   0  22  16 208.588 7.50323   1
   0  22  17 201.161 10.0892   1
   0  22  18-0.50314 7.15911   1
   0  23   1 83.2785 3.03939   1
   0  23   2 334.468 9.12952   1
   0  23   3 3.69719 1.43423   1
   0  23   4 1.69994 1.68617   1
   0  23   5 250.579 7.28944   1
   0  23   6-2.02121 4.80071   1
   0  23   7 3.50619 1.68209   1
   0  23   8 169.446 5.24297   1
   0  23   9 383.477 11.1772   1
   0  23  10 6.12185 2.45903   1
   0  23  11 180.945 7.09545   1
   0  23  12 14.5069 2.61706   1
   0  23  13 428.786 13.4228   1
   0  23  14 56.9393 3.31456   1
   0  23  15 9.94449 2.88083   1
   0  23  16  84.794 5.67286   1
   0  23  17 73.1592 5.39439   1
   0  24   0  287.51 9.06862   1
   0  24   1  16.145 1.80512   1
   0  24   2 3.71112 2.11483   1
   0  24   3 15.7591 2.27281   1
   0  24   4 78.3432 4.11551   1
   0  24   5 27.8175 2.55615   1
   0  24   6 177.544 5.66414   1
   0  24   7 1.32837 2.52776   1
   0  24   8 251.592 8.34988   1
   0  24   9 -1.8114 4.58631   1
   0  24  10 267.244 8.84652   1
   0  24  11  29.191 3.07087   1
   0  24  12 96.9274 4.24633   1
   0  24  13 0.38135 2.84457   1
   0  24  14 175.986 9.38546   1
   0  24  15 50.3366 4.65225   1
   0  25   1 17.0417  2.2323   1
   0  25   2 3.09814 2.45294   1
   0  25   3 4.21544 2.79089   1
   0  25   4 55.4004 3.45065   1
   0  25   5 155.171 5.80079   1
   0  25   6 90.0113 5.54455   1
   0  25   7-0.18271 5.28737   1
   0  25   8 96.9508 4.68182   1
   0  25   9 59.8965 3.66924   1
   0  25  10 125.198 5.31041   1
   0  25  11 -0.0459 6.12335   1
   0  25  12 107.841  5.3409   1
   0  25  13 108.217 4.85371   1
   0  26   0 17.5753 3.03259   1
   0  26   1 10.6809 3.44293   1
   0  26   2 8.87608 2.80557   1
   0  26   3 257.845  9.9784   1
   0  26   4 3.02689 2.75181   1
   0  26   5 73.2087  3.9587   1
   0  26   6 30.7696 3.60436   1
   0  26   7 88.9428 5.41505   1
   0  26   8 4.08773 2.68712   1
   0  26   9 4.39922 5.32765   1
   0  26  10 36.3171 3.50837   1
   0  27   1 32.9604 3.74023   1
   0  27   2 59.6527 3.78038   1
   0  27   3 0.31486 3.65251   1
   0  27   4 99.6648 5.59336   1
   0  27   5 82.0962 6.31534   1
   0  27   6 107.663  5.2149   1
   1   0   1 1784.91 44.3227   1
   1   0   2 5958.47 153.965   1
   1   0   3 6970.13 196.382   1
   1   0   4 3574.46 89.5445   1
   1   0   5 309.704 7.53685   1
   1   0   6 5023.81 119.983   1
   1   0   7 2358.54 55.7733   1
   1   0   8  448.04 10.7756   1
   1   0   9 706.383 16.9628   1
   1   0  10 92.0487 2.80737   1
   1   0  11 1727.42 39.9301   1
   1   0  12 753.398  17.682   1
   1   0  13 504.461  12.066   1
   1   0  14 1.44978 2.77118   1
   1   0  15 612.684 17.1147   1
   1   0  16 213.581 7.01815   1
   1   0  17 638.993 16.9804   1
   1   0  18 58.2953 2.79326   1
   1   0  19 217.009 5.46479   1
   1   0  20 431.291 11.4699   1
   1   0  21 80.0875 2.39196   1
   1   0  22 228.242 5.97274   1
   1   0  23 146.305 4.70623   1
   1   0  24 149.133 4.21295   1
   1   0  25 54.9838 2.23512   1
   1   0  26 24.5687 2.50936   1
   1   0  27 56.0919  2.9631   1
   1   0  28 2.83833 1.85136   1
   1   0  29 78.3167 5.20104   1
   1   0  30 54.9793 3.57941   1
   1   0  31 33.2205 3.77583   1
   1   1 -31 56.4873  4.9382   1
   1   1 -30 21.0641  3.1186   1
   1   1 -29 78.0563 4.42693   1
   1   1 -28 53.9307 3.14774   1
   1   1 -27 92.1162 3.28215   1
   1   1 -26 281.794 7.87913   1
   1   1 -25 33.3759   2.208   1
   1   1 -24 93.9295 3.45451   1
   1   1 -23 44.9358 1.87506   1
   1   1 -22 123.182 3.52037   1
   1   1 -21 263.254 7.61638   1
   1   1 -20 190.465 5.70479   1
   1   1 -19 119.658 3.21196   1
   1   1 -18 131.885 4.70359   1
   1   1 -17  232.13 6.21472   1
   1   1 -16 596.061   15.60   1
   1   1 -15 106.676 4.72687   1
   1   1 -14 7.46708 2.29348   1
   1   1 -13 1148.07 27.0186   1
   1   1 -12 1139.60 26.4136   1
   1   1 -11 397.681 9.50019   1
   1   1 -10 1627.90 37.5425   1
   1   1  -9 701.804  16.496   1
   1   1  -8 4061.20 93.8157   1
   1   1  -7 1441.77 34.2409   1
   1   1  -6 1048.42 24.5124   1
   1   1  -5 373.285 8.95427   1
   1   1  -4 2004.59 49.7579   1
   1   1  -3 187.733 4.48869   1
   1   1  -2 1250.19 31.5057   1
   1   1  -1 837.405  20.373   1
   1   1   0 108.597 2.62376   1
   1   1   1 816.911 19.2671   1
   1   1   2 1239.58 29.6367   1
   1   1   3 218.837 5.16169   1
   1   1   4 2085.34 49.5891   1
   1   1   5 339.815 8.13052   1
   1   1   6 1011.27 24.4832   1
   1   1   7 1466.32 33.8325   1
   1   1   8 4118.70 95.5965   1
   1   1   9  720.71 17.3645   1
   1   1  10 1623.80 37.5813   1
   1   1  11 366.409 9.00033   1
   1   1  12 1122.39 26.1765   1
   1   1  13 1145.10 27.0006   1
   1   1  14 9.95856 2.34027   1
   1   1  15 107.858 3.57616   1
   1   1  16 572.003 17.6025   1
   1   1  17  238.98 6.37663   1
   1   1  18 142.636 3.66705   1
   1   1  19 121.475 3.46141   1
   1   1  20 191.155 6.70642   1
   1   1  21 254.321 6.47572   1
   1   1  22 122.514    4.26   1
   1   1  23 43.4767 1.72747   1
   1   1  24 99.2837 3.03929   1
   1   1  25 39.5304  2.0436   1
   1   1  26 287.207 9.14511   1
   1   1  27 86.4315 3.01122   1
   1   1  28 53.1544  2.7068   1
   1   1  29 67.8063  3.8019   1
   1   1  30 19.9107 2.36297   1
   1   1  31  51.505 3.30857   1
   1   2 -31   62.14 4.61888   1
   1   2 -30 28.8534 3.16948   1
   1   2 -29 13.4921 2.22777   1
   1   2 -28  153.46 5.32749   1
   1   2 -27  160.48 5.50906   1
   1   2 -26 115.029 4.79191   1
   1   2 -25 70.4103 2.85489   1
   1   2 -24 102.939 3.21259   1
   1   2 -23 328.843 8.69661   1
   1   2 -22 92.1986 2.76484   1
   1   2 -21 304.809  7.8183   1
   1   2 -20 23.6797 1.57648   1
   1   2 -19 343.897 10.3981   1
   1   2 -18 783.934 19.2203   1
   1   2 -17 761.372 19.9529   1
   1   2 -16 164.162   5.421   1
   1   2 -15 0.71923 2.27183   1
   1   2 -14 246.388 6.50627   1
   1   2 -13 413.914 10.0207   1
   1   2 -12 964.495 22.4292   1
   1   2 -11 608.545 14.5135   1
   1   2 -10 1239.32 28.6578   1
   1   2  -9 565.318 13.4652   1
   1   2  -8 882.553 20.3951   1
   1   2  -7 2697.78 62.3664   1
   1   2  -6 3013.86 70.5897   1
   1   2  -5  799.06  18.608   1
   1   2  -4 402.279 9.75064   1
   1   2  -3 2181.76 57.0886   1
   1   2  -2 2139.34 52.9818   1
   1   2  -1 4875.40 123.882   1
   1   2   0 5162.84 129.293   1
   1   2   1 4814.55 118.592   1
   1   2   2 2093.69 49.8668   1
   1   2   3 2084.09  49.028   1
   1   2   4 438.229 10.4539   1
   1   2   5  858.51 20.2443   1
   1   2   6 2948.53 68.3861   1
   1   2   7 2693.96 62.5252   1
   1   2   8 892.833 21.0279   1
   1   2   9 555.103 13.0685   1
   1   2  10 1225.80  28.422   1
   1   2  11 629.046  14.935   1
   1   2  12 942.057 22.1581   1
   1   2  13 424.752 10.3335   1
   1   2  14 233.752  6.3761   1
   1   2  15 8.38342 1.82626   1
   1   2  16 163.607 5.40763   1
   1   2  17 731.215 19.1173   1
   1   2  18 771.162 20.1011   1
   1   2  19 335.647 8.53473   1
   1   2  20 20.1409 1.32655   1
   1   2  21 286.596 7.30278   1
   1   2  22 82.5282 3.20664   1
   1   2  23 334.836 8.72723   1
   1   2  24 98.1584 3.28888   1
   1   2  25 68.2704 2.52752   1
   1   2  26  115.90 4.32088   1
   1   2  27 151.429 6.32369   1
   1   2  28 159.978 5.03562   1
   1   2  29 14.1122 2.31692   1
   1   2  30 33.1677 4.32859   1
   1   2  31 55.2137 6.96584   1
   1   3 -31 44.6727  4.4342   1
   1   3 -30 11.1689 2.50018   1
   1   3 -29  16.832 2.42732   1
   1   3 -28 78.0106 3.66376   1
   1   3 -27 585.457 18.3822   1
   1   3 -26 79.8268 4.17624   1
   1   3 -25 28.0775 1.75566   1
   1   3 -24 76.3847 2.75144   1
   1   3 -23  49.917 2.01045   1
   1   3 -22 333.162 8.63587   1
   1   3 -21 185.007 5.08531   1
   1   3 -20 97.7281 2.94776   1
   1   3 -19 228.434 6.60242   1
   1   3 -18 181.517 5.81691   1
   1   3 -17 1556.99 38.4289   1
   1   3 -16 37.5004 2.86652   1
   1   3 -15 104.294 3.68199   1
   1   3 -14  283.77 7.71728   1
   1   3 -13 353.499 8.69779   1
   1   3 -12 7.47702 1.81452   1
   1   3 -11 689.881 16.1118   1
   1   3 -10 521.235 12.2753   1
   1   3  -9 3110.89 71.4279   1
   1   3  -8 232.873 6.15925   1
   1   3  -7 745.481 17.2375   1
   1   3  -6 248.072 6.10706   1
   1   3  -5 778.143 17.9785   1
   1   3  -4 2090.25 49.8531   1
   1   3  -3 121.038 3.05627   1
   1   3  -2 1063.22  25.489   1
   1   3  -1  533.24 12.9331   1
   1   3   0 35.7007 0.95155   1
   1   3   1 533.336 12.7514   1
   1   3   2 1069.00  25.132   1
   1   3   3 112.775  3.0102   1
   1   3   4 2092.50 48.4442   1
   1   3   5 767.723 17.8955   1
   1   3   6 261.164 6.14863   1
   1   3   7 755.522 17.4852   1
   1   3   8 249.287 5.97297   1
   1   3   9 3115.61 72.0989   1
   1   3  10 530.314 12.5147   1
   1   3  11 677.694 15.9776   1
   1   3  12 8.69232 1.50717   1
   1   3  13 355.215 8.79068   1
   1   3  14 271.155 7.40656   1
   1   3  15 117.977 4.21156   1
   1   3  16 36.5228 2.80029   1
   1   3  17 1591.90 42.7758   1
   1   3  18  189.26  5.3051   1
   1   3  19 211.265 5.45408   1
   1   3  20 96.6646  2.7427   1
   1   3  21 177.403 4.93255   1
   1   3  22  328.10 8.38143   1
   1   3  23 54.5458 2.50899   1
   1   3  24 77.6411 2.57188   1
   1   3  25 32.2054  1.9163   1
   1   3  26 72.3938 2.74669   1
   1   3  27 587.421 15.7283   1
   1   3  28 78.8757 3.26808   1
   1   3  29 12.4939 2.61453   1
   1   3  30 9.04778  2.2729   1
   1   3  31 40.8434  13.074   1
   1   4 -30 50.0821 6.02285   1
   1   4 -29 62.1924 4.29638   1
   1   4 -28 158.287 5.43856   1
   1   4 -27 142.374 5.35501   1
   1   4 -26 229.201 6.78146   1
   1   4 -25 144.804 5.06981   1
   1   4 -24  137.02 5.76266   1
   1   4 -23 271.858 7.36593   1
   1   4 -22 31.6683  1.6039   1
   1   4 -21 112.059 3.24679   1
   1   4 -20 340.544 8.68803   1
   1   4 -19 347.677 8.75827   1
   1   4 -18 681.917 17.5923   1
   1   4 -17 379.419  10.258   1
   1   4 -16 109.758 4.59377   1
   1   4 -15 32.3166 2.36637   1
   1   4 -14  100.62 4.33001   1
   1   4 -13 244.102 6.31748   1
   1   4 -12 1045.37 24.2673   1
   1   4 -11 418.798 10.0874   1
   1   4 -10 1652.78 38.2902   1
   1   4  -9 604.777 14.0712   1
   1   4  -8 947.753   21.84   1
   1   4  -7 1180.14 27.2276   1
   1   4  -6 1221.09  28.283   1
   1   4  -5 557.263 13.0865   1
   1   4  -4 89.1984 2.26916   1
   1   4  -3 454.469 10.7706   1
   1   4  -2 57.8629  1.5057   1
   1   4  -1 233.226 5.52382   1
   1   4   0 74.2278 1.98008   1
   1   4   1 273.108 6.62074   1
   1   4   2 59.5655 1.52476   1
   1   4   3 437.557 10.4009   1
   1   4   4 101.601 2.56932   1
   1   4   5 534.279 12.6392   1
   1   4   6 1188.80 28.0784   1
   1   4   7 1216.23 28.0392   1
   1   4   8  952.40 22.1511   1
   1   4   9 592.875 13.8814   1
   1   4  10 1630.99 37.6286   1
   1   4  11 442.132 10.6237   1
   1   4  12 1044.87 24.4395   1
   1   4  13 253.253 6.43191   1
   1   4  14 97.9229 3.40856   1
   1   4  15 25.4777 2.24091   1
   1   4  16 103.637 3.71411   1
   1   4  17 378.002 9.52962   1
   1   4  18 660.091 16.7293   1
   1   4  19 346.359  8.5121   1
   1   4  20  329.43  8.2519   1
   1   4  21  120.71 3.24271   1
   1   4  22 32.8603 1.82307   1
   1   4  23 254.466 7.46377   1
   1   4  24 135.548 4.52293   1
   1   4  25 161.314 4.71947   1
   1   4  26 232.127 6.59521   1
   1   4  27  144.10 4.65969   1
   1   4  28 160.036 6.80045   1
   1   4  29 59.7678 3.94419   1
   1   4  30 50.3942 3.25482   1
   1   5 -30 79.6858 3.99495   1
   1   5 -29 78.7706  5.0784   1
   1   5 -28 82.7623 3.98488   1
   1   5 -27 164.285 5.50722   1
   1   5 -26 192.537 6.12201   1
   1   5 -25 128.129 4.84533   1
   1   5 -24 29.2601   2.266   1
   1   5 -23 3.30269 1.40672   1
   1   5 -22 71.6995 2.95344   1
   1   5 -21 327.728 8.54625   1
   1   5 -20 260.681 6.88922   1
   1   5 -19  17.438 1.07254   1
   1   5 -18 287.812 7.61373   1
   1   5 -17 435.396 11.4797   1
   1   5 -16  854.04 21.2168   1
   1   5 -15 50.0643 3.19797   1
   1   5 -14 129.702 4.72784   1
   1   5 -13  621.78 14.9411   1
   1   5 -12 184.979 4.94792   1
   1   5 -11 271.172 6.77816   1
   1   5 -10 952.929 22.3972   1
   1   5  -9 127.505 3.74586   1
   1   5  -8 649.378 15.8082   1
   1   5  -7 548.324 12.7965   1
   1   5  -6  68.151 1.98427   1
   1   5  -5 577.268 13.5628   1
   1   5  -4 826.146 19.2166   1
   1   5  -3 546.994 12.7024   1
   1   5  -2  767.00 17.9839   1
   1   5  -1 927.195 21.8982   1
   1   5   0  278.53 6.47068   1
   1   5   1 888.218 21.0987   1
   1   5   2 804.039 18.5279   1
   1   5   3 583.778 13.5385   1
   1   5   4  850.34 19.9825   1
   1   5   5 540.974 12.5469   1
   1   5   6 84.2278 2.26698   1
   1   5   7  547.52 12.6931   1
   1   5   8 644.833 14.9859   1
   1   5   9  135.47 3.53143   1
   1   5  10 961.558 22.3509   1
   1   5  11 265.711 6.62104   1
   1   5  12 192.039 5.04916   1
   1   5  13 637.918 15.1971   1
   1   5  14 137.627 4.23272   1
   1   5  15 45.3709 2.97787   1
   1   5  16 853.323 20.4471   1
   1   5  17 437.394 10.5315   1
   1   5  18 303.743 8.10915   1
   1   5  19 16.2794 0.93076   1
   1   5  20 273.909 7.40262   1
   1   5  21 320.168 8.10549   1
   1   5  22  65.897 2.72319   1
   1   5  23 5.86612 1.27259   1
   1   5  24 29.8637  1.9727   1
   1   5  25 130.719 5.39679   1
   1   5  26 195.888 6.08278   1
   1   5  27 160.976 5.77107   1
   1   5  28 87.2874 3.66302   1
   1   5  29 76.0681 3.85257   1
   1   5  30 70.0547 3.92934   1
   1   6 -30 42.0904 4.49356   1
   1   6 -29 194.514 8.06861   1
   1   6 -28 7.43093 2.28955   1
   1   6 -27 30.8857 2.38965   1
   1   6 -26 38.1755 3.01864   1
   1   6 -25 75.4759  2.9415   1
   1   6 -24 108.295 5.28555   1
   1   6 -23 42.5272 2.38625   1
   1   6 -22 72.3189 3.12453   1
   1   6 -21 211.665 6.32091   1
   1   6 -20 303.851 7.85761   1
   1   6 -19  42.202 1.91054   1
   1   6 -18 72.7685 2.13503   1
   1   6 -17 98.9084 3.57945   1
   1   6 -16 543.973 15.4083   1
   1   6 -15 556.877 13.8619   1
   1   6 -14 44.1876 2.81391   1
   1   6 -13 145.988 4.54961   1
   1   6 -12 1387.42 32.3208   1
   1   6 -11 1745.48 40.5596   1
   1   6 -10 22.9681 1.93096   1
   1   6  -9 608.109 14.2469   1
   1   6  -8 500.444 12.4025   1
   1   6  -7 2558.46 59.4594   1
   1   6  -6 1289.16 29.7504   1
   1   6  -5 30.6901 1.26004   1
   1   6  -4 226.543 5.48986   1
   1   6  -3 1878.75 43.3848   1
   1   6  -2 2729.85 65.8349   1
   1   6  -1 245.361 5.72476   1
   1   6   0 785.038 18.3522   1
   1   6   1 260.483 6.07034   1
   1   6   2 2746.71 64.3598   1
   1   6   3 1846.64 42.4398   1
   1   6   4  223.45 5.47908   1
   1   6   5  29.581 1.23542   1
   1   6   6 1320.14 30.3442   1
   1   6   7 2546.56 58.5029   1
   1   6   8 502.599 11.7333   1
   1   6   9  597.78 14.0203   1
   1   6  10 14.6709 1.65165   1
   1   6  11 1782.11 41.1333   1
   1   6  12 1388.39 32.2677   1
   1   6  13 160.156 4.39385   1
   1   6  14 41.1923 2.63958   1
   1   6  15 579.234 14.2736   1
   1   6  16 558.216 13.8622   1
   1   6  17 103.897  3.3461   1
   1   6  18 66.8988 1.96878   1
   1   6  19 46.6252 2.69639   1
   1   6  20 286.968 7.33847   1
   1   6  21 204.122 5.33643   1
   1   6  22 72.2092 2.56827   1
   1   6  23 41.0541  1.9722   1
   1   6  24 119.296 3.68104   1
   1   6  25 79.9682  4.1637   1
   1   6  26 39.8535 2.25592   1
   1   6  27 33.3327 2.22666   1
   1   6  28 10.1583 2.24186   1
   1   6  29 189.505 7.18633   1
   1   6  30 40.8481 4.78251   1
   1   7 -30 28.7097 2.88199   1
   1   7 -29 42.8242 3.71426   1
   1   7 -28 33.0343  2.8849   1
   1   7 -27  19.474 2.30876   1
   1   7 -26 220.567 6.63027   1
   1   7 -25 117.823 4.00362   1
   1   7 -24 8.26476 2.35729   1
   1   7 -23 130.893 5.27428   1
   1   7 -22 66.5629 2.52667   1
   1   7 -21 365.401 9.78942   1
   1   7 -20 91.4951 3.35852   1
   1   7 -19  400.05 11.2339   1
   1   7 -18 31.8374 1.68553   1
   1   7 -17 129.326 3.44784   1
   1   7 -16 733.604 21.5977   1
   1   7 -15 122.433 4.60784   1
   1   7 -14 146.173  4.9585   1
   1   7 -13 516.775 12.6183   1
   1   7 -12 597.542   14.34   1
   1   7 -11 387.112 9.46573   1
   1   7 -10 1147.45 26.6989   1
   1   7  -9 71.4611 2.70652   1
   1   7  -8 4067.15 93.1566   1
   1   7  -7 996.036 23.7304   1
   1   7  -6  239.95 5.80589   1
   1   7  -5 1271.01  29.314   1
   1   7  -4 209.174 4.95486   1
   1   7  -3 946.801 21.7246   1
   1   7  -2 1334.15 30.5948   1
   1   7  -1 1023.87  23.495   1
   1   7   0  396.90 9.26625   1
   1   7   1 1010.79 23.3264   1
   1   7   2 1284.68 29.5975   1
   1   7   3 906.732  20.909   1
   1   7   4  219.07 5.34503   1
   1   7   5 1265.78 29.1447   1
   1   7   6 258.534 6.43469   1
   1   7   7 1023.96 23.6778   1
   1   7   8 4023.85 92.4301   1
   1   7   9 81.1298 2.62355   1
   1   7  10 1163.20 26.9625   1
   1   7  11 377.578 9.14153   1
   1   7  12 633.089 15.4243   1
   1   7  13  530.79  12.788   1
   1   7  14  156.83 4.60181   1
   1   7  15 140.395 6.00321   1
   1   7  16  762.21 19.4917   1
   1   7  17 120.814 3.22207   1
   1   7  18 34.2742 1.32428   1
   1   7  19 369.892 9.29015   1
   1   7  20  102.29 3.59007   1
   1   7  21 341.977 8.98125   1
   1   7  22 69.5132 2.47296   1
   1   7  23 134.023 3.94733   1
   1   7  24 11.1462 1.36296   1
   1   7  25 122.755 4.10969   1
   1   7  26 234.333  8.3186   1
   1   7  27 17.2935 2.02693   1
   1   7  28 31.0202 3.02545   1
   1   7  29 50.8797 4.30143   1
   1   7  30 27.5572 3.69641   1
   1   8 -29  9.6819 3.08057   1
   1   8 -28 112.873 6.81429   1
   1   8 -27 72.9454 3.25947   1
   1   8 -26 77.2117 3.09191   1
   1   8 -25 37.4586 2.24827   1
   1   8 -24  89.592 3.09742   1
   1   8 -23 273.893 7.85528   1
   1   8 -22 29.5836 1.91177   1
   1   8 -21 45.4327 1.98851   1
   1   8 -20 24.6327 2.08169   1
   1   8 -19 364.561 9.44243   1
   1   8 -18  734.76 19.4061   1
   1   8 -17 395.022 9.90866   1
   1   8 -16 153.306 4.01126   1
   1   8 -15  129.42 4.58657   1
   1   8 -14 430.043 11.1614   1
   1   8 -13 242.906 6.66761   1
   1   8 -12 136.345 4.34647   1
   1   8 -11 1013.74 23.9439   1
   1   8 -10 1135.91 26.4577   1
   1   8  -9 1043.93 24.3298   1
   1   8  -8 750.497 17.4826   1
   1   8  -7 1649.41  37.987   1
   1   8  -6 298.099  7.0888   1
   1   8  -5 2435.60 56.0184   1
   1   8  -4 1197.23 27.4355   1
   1   8  -3 132.099 3.21291   1
   1   8  -2 620.735 14.2937   1
   1   8  -1 2389.18 54.9048   1
   1   8   0 3160.48 72.7053   1
   1   8   1 2379.55 54.9511   1
   1   8   2 622.003 14.3792   1
   1   8   3  125.74 3.10701   1
   1   8   4 1182.77 27.1829   1
   1   8   5 2453.59 56.3826   1
   1   8   6 293.574 7.00939   1
   1   8   7 1680.92  38.686   1
   1   8   8 728.083 16.9881   1
   1   8   9 1068.41 24.8365   1
   1   8  10 1132.28 26.3408   1
   1   8  11 1020.18 23.7421   1
   1   8  12 135.181 4.36549   1
   1   8  13 227.828 7.27531   1
   1   8  14 425.326 10.8731   1
   1   8  15  137.19 3.98441   1
   1   8  16 157.318  4.0162   1
   1   8  17 412.255 10.0625   1
   1   8  18 730.169 17.8771   1
   1   8  19 359.034 9.05647   1
   1   8  20 32.1919 1.63867   1
   1   8  21  44.659 2.02874   1
   1   8  22 24.8045 1.65155   1
   1   8  23 286.214 7.72908   1
   1   8  24 90.6949  3.5685   1
   1   8  25 37.0194 2.08903   1
   1   8  26  75.084 3.00606   1
   1   8  27 77.8983 3.85401   1
   1   8  28  110.93  4.5493   1
   1   8  29 10.8909 3.40022   1
   1   9 -29 3.18709 3.26123   1
   1   9 -28 82.9075 4.33898   1
   1   9 -27 353.759   11.17   1
   1   9 -26 31.0815 3.00425   1
   1   9 -25 96.5769 3.63396   1
   1   9 -24 165.019 5.29657   1
   1   9 -23 85.0444 3.44569   1
   1   9 -22 220.531 6.09586   1
   1   9 -21 47.6882 2.12716   1
   1   9 -20 138.804 4.03747   1
   1   9 -19 362.544 9.49393   1
   1   9 -18 221.181 5.90916   1
   1   9 -17 346.281  9.5465   1
   1   9 -16 24.2699 1.93787   1
   1   9 -15 336.835 8.71566   1
   1   9 -14 518.268 14.3964   1
   1   9 -13 159.208 5.58234   1
   1   9 -12 27.6229 2.66258   1
   1   9 -11 243.987 7.03702   1
   1   9 -10 77.8574 3.31841   1
   1   9  -9 2956.54 67.9123   1
   1   9  -8 1164.01 27.2192   1
   1   9  -7 298.111 7.20612   1
   1   9  -6 144.974 3.81427   1
   1   9  -5 525.734 12.2025   1
   1   9  -4 1016.54 23.4226   1
   1   9  -3 110.014 3.01723   1
   1   9  -2 8.15119 0.92302   1
   1   9  -1 574.396 13.3318   1
   1   9   0 1051.56 24.2359   1
   1   9   1 604.631 14.2289   1
   1   9   2 6.78772 0.68475   1
   1   9   3 100.098 2.74192   1
   1   9   4 1028.10 23.6163   1
   1   9   5 525.964 12.3338   1
   1   9   6 151.799 3.90089   1
   1   9   7 295.498 7.44127   1
   1   9   8 1225.96 28.3106   1
   1   9   9 2975.92 68.2879   1
   1   9  10 77.5591 3.05776   1
   1   9  11 254.255 6.51341   1
   1   9  12 29.0422 3.01082   1
   1   9  13 150.836 5.82554   1
   1   9  14 558.007 13.2879   1
   1   9  15 356.336 8.70807   1
   1   9  16 24.4394 1.22216   1
   1   9  17 352.032 8.72406   1
   1   9  18 230.358 6.44182   1
   1   9  19 342.988 8.81194   1
   1   9  20 135.438 4.13161   1
   1   9  21 42.3884 2.34462   1
   1   9  22 215.495 5.93068   1
   1   9  23 84.8414 3.26889   1
   1   9  24 172.409 5.00267   1
   1   9  25  90.992 3.40272   1
   1   9  26 30.7178 2.40332   1
   1   9  27 362.471 15.4721   1
   1   9  28 97.1961 4.74319   1
   1   9  29-0.37542 7.28263   1
   1  10 -29 57.3212 3.57574   1
   1  10 -28 106.988 6.50254   1
   1  10 -27 96.3986 4.52004   1
   1  10 -26 79.6662 3.66117   1
   1  10 -25 235.471 7.23458   1
   1  10 -24 181.264 6.15604   1
   1  10 -23 139.884 4.53522   1
   1  10 -22  0.6054 1.56508   1
   1  10 -21 132.828 5.00283   1
   1  10 -20 225.459 6.48788   1
   1  10 -19  178.33 5.30007   1
   1  10 -18 490.691 12.2006   1
   1  10 -17 232.832 7.50968   1
   1  10 -16 101.866 3.37225   1
   1  10 -15 98.3085  2.7361   1
   1  10 -14 305.401 9.95278   1
   1  10 -13 391.199 11.1019   1
   1  10 -12 202.685 5.65789   1
   1  10 -11 105.766  3.3922   1
   1  10 -10 468.643 12.2506   1
   1  10  -9 198.051 5.25688   1
   1  10  -8 457.091 10.9563   1
   1  10  -7 572.544 13.3879   1
   1  10  -6 830.022 19.2533   1
   1  10  -5 249.957 6.01418   1
   1  10  -4  53.912 1.76188   1
   1  10  -3 224.059  5.3671   1
   1  10  -2 180.965 4.34989   1
   1  10  -1 768.352 17.7584   1
   1  10   0 851.411 19.7858   1
   1  10   1 796.029 18.3357   1
   1  10   2 172.381 4.28368   1
   1  10   3 233.984 5.61279   1
   1  10   4 48.8123 1.61029   1
   1  10   5 228.481 5.61175   1
   1  10   6 847.032 19.9075   1
   1  10   7 576.878 13.9869   1
   1  10   8 445.727 10.7572   1
   1  10   9 232.153 5.91344   1
   1  10  10 489.932 13.1198   1
   1  10  11 106.188 3.93557   1
   1  10  12 191.357 6.28542   1
   1  10  13 402.186 9.93981   1
   1  10  14 317.835 7.71424   1
   1  10  15 101.504 2.95303   1
   1  10  16 99.9838 2.94396   1
   1  10  17 230.394 6.64247   1
   1  10  18 484.024 12.6603   1
   1  10  19 184.663 5.01494   1
   1  10  20 206.882  5.6351   1
   1  10  21 142.688 4.71966   1
   1  10  22 2.93362 1.32306   1
   1  10  23 142.735 4.45093   1
   1  10  24  169.17 5.27856   1
   1  10  25  242.38 7.58027   1
   1  10  26 86.7005 4.13798   1
   1  10  27 107.502 7.08049   1
   1  10  28 103.091 5.29579   1
   1  10  29 64.2343 4.72913   1
   1  11 -28 33.0044 3.34386   1
   1  11 -27 57.4538  4.2549   1
   1  11 -26 145.154 7.67193   1
   1  11 -25 129.746 4.36453   1
   1  11 -24  186.76 5.92897   1
   1  11 -23 16.4752 2.50074   1
   1  11 -22 44.2935 2.27189   1
   1  11 -21 170.718 5.23036   1
   1  11 -20 296.749 9.89614   1
   1  11 -19 150.799 4.35815   1
   1  11 -18 57.5832 2.45688   1
   1  11 -17 152.033 4.65817   1
   1  11 -16 328.622 8.34949   1
   1  11 -15 257.385  6.6368   1
   1  11 -14 146.273 5.51965   1
   1  11 -13 206.104 6.12226   1
   1  11 -12 290.058 9.29714   1
   1  11 -11 275.402 8.15053   1
   1  11 -10 132.535 4.13702   1
   1  11  -9 265.542 6.80515   1
   1  11  -8 42.3223 2.00622   1
   1  11  -7 234.802 5.81555   1
   1  11  -6 240.337 5.93296   1
   1  11  -5 68.2013 2.11408   1
   1  11  -4 25.5221 1.20234   1
   1  11  -3 522.784 12.3211   1
   1  11  -2 280.804 6.79717   1
   1  11  -1 77.2271 2.48922   1
   1  11   0 24.9216 1.56384   1
   1  11   1 64.1177 1.98149   1
   1  11   2 285.175 7.02506   1
   1  11   3 533.909 12.8376   1
   1  11   4 31.9527 1.46634   1
   1  11   5 71.2819 2.29602   1
   1  11   6 238.266 6.07787   1
   1  11   7 236.154 6.27092   1
   1  11   8 48.9141 2.56286   1
   1  11   9 274.829 7.59168   1
   1  11  10 141.203 4.96436   1
   1  11  11 277.358 7.53134   1
   1  11  12 297.195 10.0148   1
   1  11  13 188.551 5.45012   1
   1  11  14  155.01 3.98939   1
   1  11  15 252.177  7.0271   1
   1  11  16 296.431 7.82022   1
   1  11  17 147.612 4.30633   1
   1  11  18 62.9611 2.82351   1
   1  11  19 142.126 4.74157   1
   1  11  20 298.631 8.24704   1
   1  11  21 169.063 5.22578   1
   1  11  22 40.3573 2.21373   1
   1  11  23 16.5195 2.32174   1
   1  11  24 186.258 6.94644   1
   1  11  25 128.008 4.57494   1
   1  11  26 148.622 5.89659   1
   1  11  27 48.4363 5.08721   1
   1  11  28 34.5562 8.76358   1
   1  12 -28 62.7834 3.59713   1
   1  12 -27 4.43372 3.01697   1
   1  12 -26 37.9572 3.05614   1
   1  12 -25 205.539 6.60568   1
   1  12 -24 226.956 8.65204   1
   1  12 -23 12.7705 1.64059   1
   1  12 -22 31.1795 1.97192   1
   1  12 -21 211.612 6.26575   1
   1  12 -20 474.007 14.9234   1
   1  12 -19 94.1515 5.37358   1
   1  12 -18 20.0979 1.76195   1
   1  12 -17 69.8988   2.654   1
   1  12 -16 222.988 5.81974   1
   1  12 -15  297.78 7.68427   1
   1  12 -14 150.077 4.62687   1
   1  12 -13-0.96554 5.67763   1
   1  12 -12 207.632 5.69101   1
   1  12 -11 731.336  18.004   1
   1  12 -10 290.324 8.11663   1
   1  12  -9 156.892 4.29013   1
   1  12  -8 27.3975 1.63888   1
   1  12  -7 598.894 14.2105   1
   1  12  -6 339.804 8.47886   1
   1  12  -5 104.322 3.11234   1
   1  12  -4 744.807 17.5848   1
   1  12  -3 740.584 17.2644   1
   1  12  -2 559.291 13.0649   1
   1  12  -1 93.5465 2.65625   1
   1  12   0 183.273 4.89914   1
   1  12   1  95.507 2.81501   1
   1  12   2  533.57 12.6476   1
   1  12   3  751.21 17.7581   1
   1  12   4 771.469 18.0306   1
   1  12   5 110.715 3.13074   1
   1  12   6 357.268 9.13354   1
   1  12   7 626.524 14.9395   1
   1  12   8 27.6918 2.43713   1
   1  12   9  146.91 6.16921   1
   1  12  10 290.811 8.30904   1
   1  12  11 737.573 18.0765   1
   1  12  12 191.322  6.5973   1
   1  12  13 0.02642 1.19156   1
   1  12  14 152.253 4.06593   1
   1  12  15 302.499 8.69219   1
   1  12  16 214.892 5.90183   1
   1  12  17 75.1776 3.42994   1
   1  12  18 19.4686 1.76892   1
   1  12  19 100.536 3.79328   1
   1  12  20 449.818 12.0893   1
   1  12  21 218.563 6.36114   1
   1  12  22  31.774 3.04873   1
   1  12  23 14.1153 2.00648   1
   1  12  24 241.674 7.50681   1
   1  12  25 212.514 8.97542   1
   1  12  26 41.4719 5.18818   1
   1  12  27 -0.5673 6.83078   1
   1  12  28 54.5993 5.35447   1
   1  13 -27 2.24184 2.36383   1
   1  13 -26 168.873 5.99008   1
   1  13 -25 40.1336 4.36333   1
   1  13 -24 19.6268 1.96943   1
   1  13 -23 107.967 5.07687   1
   1  13 -22 4.79498 1.54965   1
   1  13 -21  81.541 3.10214   1
   1  13 -20 149.188 4.73087   1
   1  13 -19 192.821 5.34617   1
   1  13 -18 69.9225  2.2622   1
   1  13 -17 69.3508 2.17711   1
   1  13 -16 186.535 5.40463   1
   1  13 -15 281.176 7.29898   1
   1  13 -14 169.085 5.58318   1
   1  13 -13 317.921  8.0501   1
   1  13 -12 268.907 7.34438   1
   1  13 -11 612.814 15.0414   1
   1  13 -10  463.72 14.3962   1
   1  13  -9 21.0095 2.39214   1
   1  13  -8 733.965 18.0802   1
   1  13  -7 382.874 9.36904   1
   1  13  -6 361.966 9.00788   1
   1  13  -5  872.41 22.5121   1
   1  13  -4 70.2236 2.74843   1
   1  13  -3 209.148 5.51061   1
   1  13  -2 229.627 6.21264   1
   1  13  -1 424.186 10.9909   1
   1  13   0  448.33 11.2212   1
   1  13   1 412.556 10.2477   1
   1  13   2 220.998 5.65807   1
   1  13   3 216.263 5.40407   1
   1  13   4 65.1252 2.45594   1
   1  13   5 891.523 22.5318   1
   1  13   6 375.166 10.0609   1
   1  13   7  404.22  12.892   1
   1  13   8 736.655 18.7218   1
   1  13   9 16.9588  2.8928   1
   1  13  10  472.84 13.8448   1
   1  13  11 584.381 14.9581   1
   1  13  12 269.072  6.8905   1
   1  13  13 305.253 7.72624   1
   1  13  14 176.653 4.60434   1
   1  13  15 282.962 7.38437   1
   1  13  16 185.193 5.42293   1
   1  13  17 67.0636  2.6362   1
   1  13  18 70.4191 2.56147   1
   1  13  19 188.993 5.56661   1
   1  13  20 148.834 5.70083   1
   1  13  21 76.0696 3.54753   1
   1  13  22-0.31375  4.6281   1
   1  13  23 107.477 4.24045   1
   1  13  24 17.8724 2.63323   1
   1  13  25 41.8614 4.95917   1
   1  13  26 181.299 10.1046   1
   1  13  27  0.8361 3.15478   1
   1  14 -26 11.0172 2.85498   1
   1  14 -25 121.423 7.13273   1
   1  14 -24 39.7085 2.50508   1
   1  14 -23  126.84 4.22579   1
   1  14 -22 143.386 4.70101   1
   1  14 -21 43.4856 2.42161   1
   1  14 -20 183.254 5.19268   1
   1  14 -19 348.602 9.28211   1
   1  14 -18 182.568 4.95998   1
   1  14 -17 262.163 6.86166   1
   1  14 -16 28.5873 1.61986   1
   1  14 -15 212.615  6.0437   1
   1  14 -14 320.205 8.13317   1
   1  14 -13 310.188 8.52079   1
   1  14 -12 74.8759  2.4142   1
   1  14 -11 510.428 13.0178   1
   1  14 -10 343.305 8.74982   1
   1  14  -9 289.114 7.64626   1
   1  14  -8 426.984 11.7134   1
   1  14  -7 624.104 15.8913   1
   1  14  -6 472.647 11.5061   1
   1  14  -5 1022.01 24.9444   1
   1  14  -4 946.573 22.5515   1
   1  14  -3 322.301  8.0914   1
   1  14  -2 489.822 13.1498   1
   1  14  -1 583.933 14.3552   1
   1  14   0 1301.91 31.0945   1
   1  14   1 583.871 14.8588   1
   1  14   2 501.755 12.9765   1
   1  14   3 307.819 8.02868   1
   1  14   4 955.925  23.095   1
   1  14   5 1029.37   25.83   1
   1  14   6 467.285 12.1798   1
   1  14   7 617.598 17.5664   1
   1  14   8 430.224 10.9059   1
   1  14   9 291.195 7.64331   1
   1  14  10 350.448  9.0592   1
   1  14  11 511.276 12.5483   1
   1  14  12 64.5063 2.63238   1
   1  14  13 301.027 8.76591   1
   1  14  14 319.123 8.10144   1
   1  14  15 224.494 6.35185   1
   1  14  16   26.72 1.50724   1
   1  14  17 268.096 7.41794   1
   1  14  18 182.219 5.44016   1
   1  14  19 333.428 9.41609   1
   1  14  20 182.872 5.63066   1
   1  14  21 45.3874 3.49837   1
   1  14  22 132.833 5.31429   1
   1  14  23 144.766 6.24743   1
   1  14  24 40.1978 3.91494   1
   1  14  25 123.169 5.70546   1
   1  14  26 13.4766 4.32194   1
   1  15 -26 13.4987 3.54059   1
   1  15 -25 45.6186 4.45632   1
   1  15 -24 126.652 5.22946   1
   1  15 -23 117.035 8.87125   1
   1  15 -22 86.5407 3.33587   1
   1  15 -21 4.07806 1.60008   1
   1  15 -20 98.2792  3.6847   1
   1  15 -19 135.106 4.01958   1
   1  15 -18 112.548 3.61845   1
   1  15 -17 169.511 4.87321   1
   1  15 -16 34.3808 2.72287   1
   1  15 -15 548.666 14.1449   1
   1  15 -14 274.938 7.21387   1
   1  15 -13 41.6634 1.79489   1
   1  15 -12 16.3588 1.27033   1
   1  15 -11 41.0874   1.463   1
   1  15 -10 174.681 4.66452   1
   1  15  -9 1508.31 37.3176   1
   1  15  -8 534.497 12.8671   1
   1  15  -7  115.24  3.5989   1
   1  15  -6  364.19 8.80897   1
   1  15  -5 524.967 12.5861   1
   1  15  -4 276.018 6.70615   1
   1  15  -3  392.51 10.4088   1
   1  15  -2  51.938 1.90153   1
   1  15  -1 822.105 19.3526   1
   1  15   0 142.607 3.79908   1
   1  15   1 818.724 19.3889   1
   1  15   2 46.6128 1.34925   1
   1  15   3 379.488 9.80158   1
   1  15   4 291.391 6.99634   1
   1  15   5  515.12 13.3141   1
   1  15   6 375.383 9.04256   1
   1  15   7 116.267 3.89095   1
   1  15   8 538.624 13.2921   1
   1  15   9 1522.71 36.1788   1
   1  15  10 171.136 4.56266   1
   1  15  11 34.0435 1.96207   1
   1  15  12 15.4304 1.10557   1
   1  15  13 38.1864 1.57577   1
   1  15  14 283.181 7.69953   1
   1  15  15 547.884 14.5017   1
   1  15  16 32.3712 1.86045   1
   1  15  17  167.41 5.42711   1
   1  15  18  111.57 6.54175   1
   1  15  19 141.072  6.1282   1
   1  15  20 98.8076 4.79095   1
   1  15  21 2.22275  2.0161   1
   1  15  22 83.1818 3.54127   1
   1  15  23 102.577 4.38334   1
   1  15  24 122.561 6.18783   1
   1  15  25 44.8125 3.75452   1
   1  15  26 10.7831 4.65184   1
   1  16 -25 107.554 5.04127   1
   1  16 -24 80.5323 4.70265   1
   1  16 -23 66.9858  5.0476   1
   1  16 -22 23.3764 2.97297   1
   1  16 -21 87.0758 5.31026   1
   1  16 -20 40.7407 2.93896   1
   1  16 -19 192.477 7.64964   1
   1  16 -18 103.918 3.42585   1
   1  16 -17 107.314 4.25503   1
   1  16 -16 95.5972 3.14645   1
   1  16 -15 177.248 5.01381   1
   1  16 -14 262.846 7.36535   1
   1  16 -13 110.703 3.94184   1
   1  16 -12 96.4798 4.13187   1
   1  16 -11 116.412 3.48243   1
   1  16 -10 623.563 15.4572   1
   1  16  -9 276.775 9.45231   1
   1  16  -8 472.256 13.0083   1
   1  16  -7 11.9081 0.87321   1
   1  16  -6 223.299 6.06149   1
   1  16  -5 738.545 17.6439   1
   1  16  -4 167.735 4.26887   1
   1  16  -3 203.721 5.52667   1
   1  16  -2 49.2838 1.50499   1
   1  16  -1 805.243 19.2081   1
   1  16   0 266.182 6.80562   1
   1  16   1 810.283  19.576   1
   1  16   2 44.6011 2.11944   1
   1  16   3 207.148 5.64775   1
   1  16   4 163.146 4.57381   1
   1  16   5  751.17 18.1251   1
   1  16   6 236.516 5.82873   1
   1  16   7  20.983 0.95602   1
   1  16   8 481.795 11.8094   1
   1  16   9 266.349 7.22991   1
   1  16  10 613.532 15.4894   1
   1  16  11 112.725 4.52053   1
   1  16  12 94.4046 3.77807   1
   1  16  13 109.539 3.23754   1
   1  16  14 268.866  8.0069   1
   1  16  15 177.773 5.18214   1
   1  16  16 95.8179  3.7745   1
   1  16  17 98.5107 3.37123   1
   1  16  18  106.10 4.09487   1
   1  16  19 194.755  5.9603   1
   1  16  20 40.1125 2.56122   1
   1  16  21 83.3378  4.1836   1
   1  16  22  22.368 2.66586   1
   1  16  23  56.626 3.69689   1
   1  16  24 82.3398 7.04545   1
   1  16  25 116.696 6.00094   1
   1  17 -24 276.204 10.8943   1
   1  17 -23 2.70975 3.37675   1
   1  17 -22 109.688 4.79503   1
   1  17 -21 92.0961 3.97716   1
   1  17 -20  264.84 8.45966   1
   1  17 -19 40.5007 2.36753   1
   1  17 -18 6.66215  1.7481   1
   1  17 -17 51.6323 2.46908   1
   1  17 -16 112.369 3.53842   1
   1  17 -15 134.249 3.93584   1
   1  17 -14 121.407 5.14179   1
   1  17 -13 71.1644  2.3636   1
   1  17 -12 81.4201 2.75926   1
   1  17 -11 161.262 5.37605   1
   1  17 -10 92.7828 3.62379   1
   1  17  -9 186.253 5.60585   1
   1  17  -8 1.59049 0.92066   1
   1  17  -7 115.261 3.22514   1
   1  17  -6 361.276 9.51041   1
   1  17  -5 154.533 4.69865   1
   1  17  -4 34.3485 1.85966   1
   1  17  -3 136.191 3.95021   1
   1  17  -2 255.116 7.31319   1
   1  17  -1 115.231 3.53246   1
   1  17   0 318.847 7.75296   1
   1  17   1 113.026 3.52248   1
   1  17   2  257.09 6.31932   1
   1  17   3 142.679 3.66784   1
   1  17   4 31.4136 1.35176   1
   1  17   5  159.51  4.1259   1
   1  17   6 361.871 9.78429   1
   1  17   7 129.768 5.26555   1
   1  17   8 2.55622 0.78839   1
   1  17   9  181.11 4.85428   1
   1  17  10 93.7035 3.33572   1
   1  17  11 159.105 4.44649   1
   1  17  12 71.4292 2.27716   1
   1  17  13  80.215 3.87959   1
   1  17  14 126.099 4.61979   1
   1  17  15 126.986 5.08841   1
   1  17  16 118.395 3.67552   1
   1  17  17 54.6989 2.42765   1
   1  17  18  4.2891 2.01082   1
   1  17  19 40.9381 2.21719   1
   1  17  20  268.33 8.35522   1
   1  17  21 84.4198 4.22461   1
   1  17  22 98.7147 4.52453   1
   1  17  23 2.38466 3.02157   1
   1  17  24 274.191 10.8727   1
   1  18 -23 81.2113 4.37773   1
   1  18 -22 59.9511 5.48889   1
   1  18 -21 218.917 8.20224   1
   1  18 -20 248.056 9.59723   1
   1  18 -19 57.3414 3.45362   1
   1  18 -18 41.8382  2.4841   1
   1  18 -17 6.18182  1.4635   1
   1  18 -16 174.142 5.18141   1
   1  18 -15 234.409 6.79491   1
   1  18 -14  142.73 5.80129   1
   1  18 -13 41.8342 1.93866   1
   1  18 -12 215.625 9.06846   1
   1  18 -11 142.484 5.15284   1
   1  18 -10  152.19 6.02888   1
   1  18  -9  39.863 2.07904   1
   1  18  -8 126.008 4.63143   1
   1  18  -7  48.903 1.98509   1
   1  18  -6 113.868  3.2305   1
   1  18  -5 369.602 9.24104   1
   1  18  -4 177.977 4.86497   1
   1  18  -3 209.814 5.42771   1
   1  18  -2 178.253 4.59622   1
   1  18  -1 2.49152   0.736   1
   1  18   0  6.6269 0.70416   1
   1  18   1 1.70607 0.85277   1
   1  18   2 175.227 4.49956   1
   1  18   3 217.889 5.48509   1
   1  18   4 177.589 4.96129   1
   1  18   5 367.461 9.06244   1
   1  18   6 119.777 3.24275   1
   1  18   7 51.5691  2.3731   1
   1  18   8 140.989 4.59962   1
   1  18   9 42.7618 2.23854   1
   1  18  10 153.279 5.60146   1
   1  18  11 144.449 4.32386   1
   1  18  12 204.648 6.70531   1
   1  18  13 41.0011 2.13117   1
   1  18  14 150.843 4.84717   1
   1  18  15 235.381  7.7798   1
   1  18  16 177.028 5.16747   1
   1  18  17 5.23077 1.88369   1
   1  18  18 41.5836 2.48605   1
   1  18  19 54.6421 2.72533   1
   1  18  20 253.862 8.31998   1
   1  18  21 209.866 7.26453   1
   1  18  22  64.318 3.60842   1
   1  18  23  78.624 4.08156   1
   1  19 -22 2.25678 2.94894   1
   1  19 -21 55.8429 3.71049   1
   1  19 -20 74.1359 4.48949   1
   1  19 -19 191.983 6.12877   1
   1  19 -18 121.272  4.0751   1
   1  19 -17  70.085  2.8007   1
   1  19 -16 97.9937 3.88292   1
   1  19 -15-0.48779 3.35194   1
   1  19 -14 31.1345 1.84044   1
   1  19 -13 166.508 5.85666   1
   1  19 -12  36.561 1.93921   1
   1  19 -11 240.416 7.25661   1
   1  19 -10 305.136 10.7462   1
   1  19  -9 64.8872 2.40035   1
   1  19  -8 85.6096 2.68056   1
   1  19  -7 447.078  11.476   1
   1  19  -6 202.935 5.40731   1
   1  19  -5 351.431 8.82575   1
   1  19  -4 15.2738 1.19768   1
   1  19  -3 165.389 4.59826   1
   1  19  -2 32.2274 1.28758   1
   1  19  -1 211.702 5.46816   1
   1  19   0 243.589 6.18431   1
   1  19   1 202.068 5.47989   1
   1  19   2 32.9849 1.81348   1
   1  19   3 162.014 4.77528   1
   1  19   4 12.4193 1.10034   1
   1  19   5 345.461 8.73421   1
   1  19   6 214.488 5.61559   1
   1  19   7 467.703 11.6574   1
   1  19   8 87.7802 2.77351   1
   1  19   9  66.083 2.82849   1
   1  19  10 294.548 8.80647   1
   1  19  11 224.617 6.49524   1
   1  19  12   27.50 2.23003   1
   1  19  13 165.289 6.15953   1
   1  19  14 32.6194 2.15126   1
   1  19  15 2.60319  1.3829   1
   1  19  16 96.9956 3.66666   1
   1  19  17 69.0805 4.62658   1
   1  19  18 121.677 4.80598   1
   1  19  19  189.23 6.35257   1
   1  19  20 77.1424 5.99299   1
   1  19  21 57.9677 3.75141   1
   1  19  22 2.08427 2.87701   1
   1  20 -21  5.7301 4.06394   1
   1  20 -20 94.9656 4.77091   1
   1  20 -19 195.143 9.67625   1
   1  20 -18 102.565 5.07953   1
   1  20 -17 130.147   4.687   1
   1  20 -16 36.1577 2.45197   1
   1  20 -15 41.5903 2.28304   1
   1  20 -14 75.5064 3.18615   1
   1  20 -13 244.501 7.14364   1
   1  20 -12 6.33475 1.65529   1
   1  20 -11 44.3965 1.95277   1
   1  20 -10 111.479 3.47869   1
   1  20  -9 265.001 7.47815   1
   1  20  -8 146.502 5.47204   1
   1  20  -7 76.8296  3.3201   1
   1  20  -6 25.2226 2.26929   1
   1  20  -5  348.66 9.19829   1
   1  20  -4 453.761 12.3765   1
   1  20  -3 75.1176 2.35666   1
   1  20  -2 36.4419 1.67346   1
   1  20  -1 328.992 8.55907   1
   1  20   0 445.026 11.1765   1
   1  20   1 328.545 8.81044   1
   1  20   2 37.2688 1.57555   1
   1  20   3 67.2746 2.58383   1
   1  20   4 468.148  12.537   1
   1  20   5 367.579 9.31806   1
   1  20   6  29.429  2.0105   1
   1  20   7 76.3169 2.67428   1
   1  20   8 157.409 4.71623   1
   1  20   9 254.082 7.52411   1
   1  20  10 103.158 3.56456   1
   1  20  11  48.432  2.8212   1
   1  20  12 3.11931 2.43383   1
   1  20  13 220.367 7.01147   1
   1  20  14  85.254 6.90094   1
   1  20  15 41.6021 2.73195   1
   1  20  16 35.6094  3.7107   1
   1  20  17 133.449 9.03763   1
   1  20  18 111.571 4.70265   1
   1  20  19 192.609  8.5089   1
   1  20  20 97.5231 6.70173   1
   1  20  21 3.91101 3.21792   1
   1  21 -20 37.7635 4.29921   1
   1  21 -19  107.97 5.32035   1
   1  21 -18 50.2504 3.60014   1
   1  21 -17 8.48182 2.45215   1
   1  21 -16 2.22143  2.1943   1
   1  21 -15 179.736 7.02405   1
   1  21 -14 183.792 6.22483   1
   1  21 -13 60.1999 2.72901   1
   1  21 -12 29.0945  2.0817   1
   1  21 -11  60.146 2.74637   1
   1  21 -10 163.345 5.06404   1
   1  21  -9 370.202 10.2786   1
   1  21  -8 70.8743 3.11612   1
   1  21  -7 29.9114 1.96698   1
   1  21  -6 80.9696 2.79258   1
   1  21  -5 279.469 8.02368   1
   1  21  -4 98.6127 3.17675   1
   1  21  -3  243.25 6.67894   1
   1  21  -2  64.104 2.51902   1
   1  21  -1 351.088 10.5664   1
   1  21   0 278.179 7.81158   1
   1  21   1 343.674 9.00656   1
   1  21   2 70.7709 2.61347   1
   1  21   3 246.792 6.64325   1
   1  21   4 107.576 3.23831   1
   1  21   5 312.667 9.44891   1
   1  21   6 93.9399 2.96892   1
   1  21   7  30.445 2.75836   1
   1  21   8 81.6995 3.28561   1
   1  21   9 369.307 10.5529   1
   1  21  10  150.13 5.35228   1
   1  21  11 66.8732 2.83449   1
   1  21  12 28.4364 2.23388   1
   1  21  13 69.8252 3.78765   1
   1  21  14 191.633 9.14547   1
   1  21  15 181.976 6.11086   1
   1  21  16 1.25571 2.30555   1
   1  21  17 2.87985 3.07344   1
   1  21  18 55.6769 3.88587   1
   1  21  19 121.147 5.54035   1
   1  21  20 38.4443 3.42332   1
   1  22 -18 64.5044 3.69843   1
   1  22 -17 27.8061 3.36308   1
   1  22 -16 80.1146 4.09682   1
   1  22 -15 63.4947 3.32352   1
   1  22 -14 112.388 5.04944   1
   1  22 -13 107.273 5.16272   1
   1  22 -12 35.9535 2.71227   1
   1  22 -11 22.7574 3.92954   1
   1  22 -10 194.827 5.97326   1
   1  22  -9 275.098 8.34264   1
   1  22  -8 173.923 5.64665   1
   1  22  -7 92.7242 3.48821   1
   1  22  -6 149.858 6.08646   1
   1  22  -5 165.545 5.53386   1
   1  22  -4 218.018  6.9909   1
   1  22  -3 117.169  4.1015   1
   1  22  -2 129.054 5.65801   1
   1  22  -1 272.521 7.72878   1
   1  22   0 389.404 10.7885   1
   1  22   1  281.51 8.70571   1
   1  22   2 133.919 4.42495   1
   1  22   3  119.54 3.91846   1
   1  22   4  227.00 6.40743   1
   1  22   5 151.681 4.56046   1
   1  22   6 166.177 4.94499   1
   1  22   7  90.694 4.15432   1
   1  22   8 169.958 8.32407   1
   1  22   9 291.998 8.65611   1
   1  22  10 192.342 6.15669   1
   1  22  11  18.448 2.49625   1
   1  22  12 38.4651 2.92948   1
   1  22  13 103.927    6.22   1
   1  22  14 109.941 4.29212   1
   1  22  15 58.2547 3.61537   1
   1  22  16 78.8649 3.62099   1
   1  22  17 26.7973 3.11487   1
   1  22  18 69.1452 4.04816   1
   1  23 -17 37.4689 4.87684   1
   1  23 -16 89.6191 8.08866   1
   1  23 -15 76.9702 6.06441   1
   1  23 -14  18.815 3.12975   1
   1  23 -13 37.3027  4.5766   1
   1  23 -12 179.758 8.67863   1
   1  23 -11  212.67 7.71524   1
   1  23 -10 2.10385 3.51532   1
   1  23  -9 18.6041  2.5453   1
   1  23  -8 14.6965 2.00789   1
   1  23  -7 149.244 5.76037   1
   1  23  -6  441.27  13.174   1
   1  23  -5 173.261 6.40085   1
   1  23  -4 51.0291 2.97286   1
   1  23  -3 37.4586 2.75883   1
   1  23  -2 294.678 8.44398   1
   1  23  -1 87.3934 3.20115   1
   1  23   0 48.3346 2.34751   1
   1  23   1 91.4949  3.4288   1
   1  23   2 308.649 8.95115   1
   1  23   3 36.2117 2.30344   1
   1  23   4 50.2362 2.25188   1
   1  23   5  177.18 5.17773   1
   1  23   6  443.86  11.795   1
   1  23   7  152.41 4.90669   1
   1  23   8 22.1287 2.54697   1
   1  23   9 12.4581 2.46254   1
   1  23  10 5.19536 2.05211   1
   1  23  11 228.563 7.56066   1
   1  23  12 181.984 6.40156   1
   1  23  13 39.6944 3.01911   1
   1  23  14 14.9683 3.72997   1
   1  23  15 79.0406 3.90556   1
   1  23  16 89.4887 4.30997   1
   1  23  17 40.4877 3.85445   1
   1  24 -15 120.969 5.63746   1
   1  24 -14 19.1497 2.99405   1
   1  24 -13 53.9479 3.80251   1
   1  24 -12 113.587 5.38508   1
   1  24 -11 72.8327 3.98933   1
   1  24 -10 28.4827 3.00077   1
   1  24  -9 21.6596 3.07745   1
   1  24  -8 21.5489 4.08638   1
   1  24  -7 58.5142 3.62793   1
   1  24  -6  224.05 7.70678   1
   1  24  -5 211.436 7.18831   1
   1  24  -4 76.3039 3.81257   1
   1  24  -3 322.051 11.8271   1
   1  24  -2 121.401 4.41768   1
   1  24  -1 14.4389 2.53903   1
   1  24   0 1.39646 2.16976   1
   1  24   1 12.1485 1.85422   1
   1  24   2 109.449 4.88514   1
   1  24   3 307.943 8.80109   1
   1  24   4 82.7861 3.19545   1
   1  24   5 206.428 6.75097   1
   1  24   6 235.296 6.99839   1
   1  24   7 60.6758 3.34095   1
   1  24   8 19.8771 4.30675   1
   1  24   9  21.157 2.39393   1
   1  24  10 26.6519 3.14575   1
   1  24  11 66.9577 3.62444   1
   1  24  12 110.415 4.83618   1
   1  24  13 57.3806 3.69862   1
   1  24  14 15.9102 3.38875   1
   1  24  15 117.028 5.74067   1
   1  25 -12 55.9159 5.38754   1
   1  25 -11 82.4699 5.04647   1
   1  25 -10 55.3203 4.01752   1
   1  25  -9 4.57318 2.90324   1
   1  25  -8 19.0852 3.45004   1
   1  25  -7 170.761 6.65168   1
   1  25  -6 37.0792 3.72268   1
   1  25  -5 115.414 6.01045   1
   1  25  -4 8.44469 2.63285   1
   1  25  -3 22.9518 2.76274   1
   1  25  -2 52.7166 3.16034   1
   1  25  -1 60.0204 4.59844   1
   1  25   0 26.6188 3.40124   1
   1  25   1 59.9166 3.22848   1
   1  25   2 45.5811 2.90179   1
   1  25   3 16.6471 2.33391   1
   1  25   4 6.63759 3.09169   1
   1  25   5 107.973 3.95966   1
   1  25   6 32.0788 3.54417   1
   1  25   7 178.977 6.39124   1
   1  25   8 18.6984 2.65922   1
   1  25   9 3.99207 3.08011   1
   1  25  10  57.994  3.6436   1
   1  25  11 74.8343 4.11357   1
   1  25  12 47.2387  3.5898   1
   1  26 -10 27.0428 10.3494   1
   1  26  -9 118.896 9.35527   1
   1  26  -8 37.1425 3.61007   1
   1  26  -7 3.13858 2.69249   1
   1  26  -6 13.5452 4.51812   1
   1  26  -5 33.6191 3.07005   1
   1  26  -4 244.539 8.61119   1
   1  26  -3 35.7833  4.0013   1
   1  26  -2 3.11751 2.38856   1
   1  26  -1 47.0261  3.3073   1
   1  26   0 141.004 5.91646   1
   1  26   1 49.7054 3.58961   1
   1  26   2 7.96196 2.86663   1
   1  26   3 36.3293 2.88485   1
   1  26   4 233.957 7.69405   1
   1  26   5 27.3303 4.27045   1
   1  26   6 12.4003 3.04307   1
   1  26   7-1.38883 5.85963   1
   1  26   8  41.313 3.52161   1
   1  26   9  117.33 5.18953   1
   1  26  10 22.0827 4.01478   1
   1  27  -5 33.2801 3.68062   1
   1  27  -4  86.226 4.97377   1
   1  27  -3 65.7009 4.02226   1
   1  27  -2  83.613  4.6511   1
   1  27  -1 86.1152 4.36953   1
   1  27   0 7.36918 2.90292   1
   1  27   1 85.5521 4.93366   1
   1  27   2 77.6318  5.4806   1
   1  27   3 69.4366 4.88052   1
   1  27   4 90.6829 4.97887   1
   1  27   5 38.8661 3.63193   1
   2   0   0 2046.42 51.2707   1
   2   0   1 1640.67 38.3161   1
   2   0   2 445.131 10.5686   1
   2   0   3 66.4575 1.70528   1
   2   0   4 6.67435 0.75084   1
   2   0   5 3155.81 75.3427   1
   2   0   6 360.287 8.65404   1
   2   0   7-0.38491 4.08494   1
   2   0   8  247.85 6.01869   1
   2   0   9 2270.03  52.535   1
   2   0  10 41.8434 2.35255   1
   2   0  11  808.81 18.9955   1
   2   0  12 28.6005 2.03268   1
   2   0  13 1824.23 42.3266   1
   2   0  14 22.4521 2.14068   1
   2   0  15  80.446 3.40666   1
   2   0  16 523.086 16.3511   1
   2   0  17 299.065 7.65146   1
   2   0  18 381.854 9.32314   1
   2   0  19 476.432 11.7124   1
   2   0  20 6.02884 1.18398   1
   2   0  21 13.7418 0.95906   1
   2   0  22 45.2472  1.6358   1
   2   0  23 438.448 11.1992   1
   2   0  24 72.9926 3.36859   1
   2   0  25 6.01148 1.65042   1
   2   0  26 47.1581 2.49084   1
   2   0  27 112.665 4.07091   1
   2   0  28-1.24816 6.05307   1
   2   0  29 89.3324 4.55704   1
   2   0  30  6.8293 3.75632   1
   2   1 -30 9.48674 2.96567   1
   2   1 -29 114.613 5.51974   1
   2   1 -28 148.648   5.395   1
   2   1 -27 82.3991 4.23962   1
   2   1 -26 72.9375 2.92159   1
   2   1 -25 103.451 3.53013   1
   2   1 -24  117.67  3.4947   1
   2   1 -23 49.4545 2.36606   1
   2   1 -22 159.709 4.50643   1
   2   1 -21 163.271 4.88892   1
   2   1 -20 209.452 7.02386   1
   2   1 -19 314.472 7.84253   1
   2   1 -18 226.171 6.12098   1
   2   1 -17 3.48449 0.65289   1
   2   1 -16  126.42 3.95993   1
   2   1 -15 461.284 11.6063   1
   2   1 -14 1522.90 36.4246   1
   2   1 -13 153.778 4.79156   1
   2   1 -12 84.1474   3.433   1
   2   1 -11  525.77 13.2946   1
   2   1 -10 3312.71 76.2487   1
   2   1  -9 580.421 13.7491   1
   2   1  -8 1565.35 36.3832   1
   2   1  -7 977.823 23.2196   1
   2   1  -6 1927.78 45.7837   1
   2   1  -5 190.529 4.56009   1
   2   1  -4 3153.35 75.7024   1
   2   1  -3 1708.38 40.5308   1
   2   1  -2 713.792 16.5578   1
   2   1  -1 641.824 14.9329   1
   2   1   0 3372.51  79.633   1
   2   1   1 676.835 15.4913   1
   2   1   2 718.828 16.6805   1
   2   1   3 1670.67 39.4383   1
   2   1   4 3257.45 76.3413   1
   2   1   5  188.78 4.92767   1
   2   1   6 1928.06  44.785   1
   2   1   7  957.21  22.552   1
   2   1   8 1518.87 35.1529   1
   2   1   9 567.851 13.7344   1
   2   1  10 3355.61 77.7662   1
   2   1  11 516.549 12.4734   1
   2   1  12 88.5259 2.96286   1
   2   1  13 156.289 5.03285   1
   2   1  14 1489.57 34.9126   1
   2   1  15 480.542 11.7943   1
   2   1  16  121.22 4.53579   1
   2   1  17 6.56602 1.73511   1
   2   1  18 229.252 5.88121   1
   2   1  19 322.333 7.91133   1
   2   1  20 207.588 5.36782   1
   2   1  21 157.555 4.64974   1
   2   1  22 161.514  4.3697   1
   2   1  23 45.6397 2.02467   1
   2   1  24 118.212 3.92831   1
   2   1  25 108.459 5.46057   1
   2   1  26 63.4632 2.77659   1
   2   1  27 79.3226 4.71003   1
   2   1  28 165.659 5.67102   1
   2   1  29 108.195 5.21781   1
   2   1  30 9.96815 3.42285   1
   2   2 -30 281.374 11.2657   1
   2   2 -29 30.7141  3.1126   1
   2   2 -28 40.7533 2.72673   1
   2   2 -27 10.4075 2.26507   1
   2   2 -26 150.949 6.34958   1
   2   2 -25 72.2573 4.17854   1
   2   2 -24 287.249 7.74592   1
   2   2 -23 26.1114 1.42106   1
   2   2 -22 66.5808 2.93936   1
   2   2 -21 4.03419 0.93042   1
   2   2 -20 558.757 13.6454   1
   2   2 -19 99.4234 3.86755   1
   2   2 -18 144.978 4.36637   1
   2   2 -17  264.13 6.75856   1
   2   2 -16  649.93 15.9949   1
   2   2 -15 258.918 7.01761   1
   2   2 -14 228.993 5.99133   1
   2   2 -13 419.917 10.4319   1
   2   2 -12 1018.45  24.351   1
   2   2 -11 571.329 13.7236   1
   2   2 -10 466.181 11.4951   1
   2   2  -9 797.435 18.9841   1
   2   2  -8 343.974 8.80646   1
   2   2  -7 4.82531 0.98004   1
   2   2  -6 1668.36 39.1962   1
   2   2  -5 1312.47  30.716   1
   2   2  -4 463.458 10.7032   1
   2   2  -3 310.711 7.35314   1
   2   2  -2 355.843 8.60007   1
   2   2  -1 1832.68 42.7581   1
   2   2   0 703.353  16.253   1
   2   2   1 1880.74 43.4236   1
   2   2   2 353.423 8.27786   1
   2   2   3 324.808 7.55415   1
   2   2   4 463.026 10.8721   1
   2   2   5 1335.53 30.8421   1
   2   2   6 1640.46 37.9996   1
   2   2   7  5.6632 0.93613   1
   2   2   8 381.087 9.15528   1
   2   2   9 770.013 18.0224   1
   2   2  10 485.581 11.5929   1
   2   2  11 567.642 13.5569   1
   2   2  12 1029.97 24.2484   1
   2   2  13 422.018 10.9454   1
   2   2  14 214.918 6.17072   1
   2   2  15 245.733 6.48225   1
   2   2  16 657.458 16.7801   1
   2   2  17 248.019 6.76205   1
   2   2  18 143.036 3.62202   1
   2   2  19 108.365 3.04106   1
   2   2  20 533.429 12.9928   1
   2   2  21 3.01906 0.99828   1
   2   2  22 73.9596 2.71205   1
   2   2  23 23.4099 1.36136   1
   2   2  24 290.325  7.8296   1
   2   2  25 69.3058 2.82349   1
   2   2  26 140.628 4.57601   1
   2   2  27 10.9879 1.93458   1
   2   2  28 36.4722 2.77072   1
   2   2  29 30.3609 2.97207   1
   2   2  30 281.908  10.055   1
   2   3 -30  8.0733 3.86583   1
   2   3 -29 330.993 12.0616   1
   2   3 -28 36.0335 3.55737   1
   2   3 -27 13.5412 2.98747   1
   2   3 -26 34.4695 2.28994   1
   2   3 -25 423.993 13.0468   1
   2   3 -24 82.6005 3.72772   1
   2   3 -23 56.4521 2.40238   1
   2   3 -22 31.4182 1.70856   1
   2   3 -21 355.787 9.54569   1
   2   3 -20  257.62 6.93207   1
   2   3 -19 671.322   16.80   1
   2   3 -18 31.1583 1.18315   1
   2   3 -17 86.1921 3.27044   1
   2   3 -16  56.075 3.00892   1
   2   3 -15 1167.55 29.0628   1
   2   3 -14 60.2609  2.8135   1
   2   3 -13  16.619 3.22253   1
   2   3 -12 32.3937 2.43254   1
   2   3 -11 1325.35 30.9191   1
   2   3 -10 3.25913 1.59463   1
   2   3  -9 103.031 2.98307   1
   2   3  -8 494.259 11.5852   1
   2   3  -7 938.588 21.6928   1
   2   3  -6 1149.89 26.7511   1
   2   3  -5  105.01 2.66186   1
   2   3  -4 178.103 4.29181   1
   2   3  -3 557.524 13.2608   1
   2   3  -2 103.954 2.52572   1
   2   3  -1 293.256 6.81668   1
   2   3   0 32.1186 0.94776   1
   2   3   1 332.029 7.65864   1
   2   3   2 98.4408 2.47329   1
   2   3   3 596.957 13.9715   1
   2   3   4 182.156 4.38947   1
   2   3   5 117.411 3.15891   1
   2   3   6 1144.67 26.4948   1
   2   3   7 943.806 22.0024   1
   2   3   8 487.078 11.7938   1
   2   3   9 101.367 2.99751   1
   2   3  10 1.18114 1.01955   1
   2   3  11 1305.28 30.3912   1
   2   3  12 29.9942 2.28182   1
   2   3  13 22.0145 2.43074   1
   2   3  14 62.2389 2.94678   1
   2   3  15 1125.45 27.6781   1
   2   3  16 58.2436 1.70068   1
   2   3  17 100.331 3.95244   1
   2   3  18 30.7831 1.52524   1
   2   3  19  675.75 16.3648   1
   2   3  20 262.449 6.85028   1
   2   3  21 365.021 9.72005   1
   2   3  22  29.021 1.57597   1
   2   3  23 55.3831  2.2126   1
   2   3  24 81.9814  3.0895   1
   2   3  25  436.20 11.4889   1
   2   3  26 34.0954  2.1859   1
   2   3  27 15.6451 2.30297   1
   2   3  28 24.2183 3.05398   1
   2   3  29 301.788 10.9529   1
   2   3  30 10.7216 3.04221   1
   2   4 -30 207.899 11.7972   1
   2   4 -29  26.959 4.20228   1
   2   4 -28 52.4808 4.58926   1
   2   4 -27 110.267 4.28478   1
   2   4 -26 83.9985 3.87857   1
   2   4 -25 37.6703 3.07286   1
   2   4 -24 351.916 9.70905   1
   2   4 -23 169.369 4.91436   1
   2   4 -22 112.939 3.57419   1
   2   4 -21 55.4236 2.09896   1
   2   4 -20 525.288 16.1928   1
   2   4 -19 103.716 3.09224   1
   2   4 -18 85.5839 2.47265   1
   2   4 -17 147.082  3.8816   1
   2   4 -16 404.688 12.1646   1
   2   4 -15 183.433 7.10379   1
   2   4 -14 434.598 10.8789   1
   2   4 -13 138.561 4.03102   1
   2   4 -12 1040.24 24.4075   1
   2   4 -11 75.0624 2.86287   1
   2   4 -10 718.087 16.9562   1
   2   4  -9 1565.76 36.3027   1
   2   4  -8 706.044 16.4848   1
   2   4  -7 392.945 9.29289   1
   2   4  -6 1599.25 37.6516   1
   2   4  -5 298.448 7.02823   1
   2   4  -4 1075.12 24.8327   1
   2   4  -3 243.287 5.88811   1
   2   4  -2 528.521 12.3139   1
   2   4  -1 827.709 19.0577   1
   2   4   0 61.7617 1.66746   1
   2   4   1 786.441  18.156   1
   2   4   2 500.986 11.5737   1
   2   4   3 225.497 5.33147   1
   2   4   4 1084.47 25.2437   1
   2   4   5 342.307 8.10264   1
   2   4   6 1595.91 36.9853   1
   2   4   7 406.634 9.80496   1
   2   4   8 706.284  17.382   1
   2   4   9 1540.22 35.8357   1
   2   4  10 727.236 17.1138   1
   2   4  11 81.4742 2.71076   1
   2   4  12 1029.26 24.2576   1
   2   4  13 137.776 4.16731   1
   2   4  14 445.742 11.4551   1
   2   4  15 202.721  6.0795   1
   2   4  16 420.037 10.2678   1
   2   4  17 155.661 4.39105   1
   2   4  18 92.4108 2.50995   1
   2   4  19 103.225 3.01985   1
   2   4  20 486.691  12.298   1
   2   4  21 57.4701  2.4428   1
   2   4  22 116.499 3.40077   1
   2   4  23 160.045 4.88024   1
   2   4  24 374.133  9.8994   1
   2   4  25 32.8463   2.124   1
   2   4  26 87.9818 3.47496   1
   2   4  27 101.684 3.63723   1
   2   4  28 57.6432 5.08587   1
   2   4  29 29.7743 4.22526   1
   2   4  30 203.355 8.50962   1
   2   5 -30 10.3968  4.5966   1
   2   5 -29 87.8472 4.72465   1
   2   5 -28 270.366  9.9585   1
   2   5 -27 53.2603 3.78189   1
   2   5 -26 86.3693 5.83254   1
   2   5 -25 88.4292 4.24813   1
   2   5 -24 98.5999 5.33922   1
   2   5 -23 58.4781 2.92001   1
   2   5 -22 316.509 9.17236   1
   2   5 -21 68.1421 3.55319   1
   2   5 -20  209.99  6.9643   1
   2   5 -19 87.7665  3.6171   1
   2   5 -18 368.178 9.02406   1
   2   5 -17 217.828 5.99256   1
   2   5 -16 302.343 8.84696   1
   2   5 -15 505.008 13.7813   1
   2   5 -14 1136.17  26.936   1
   2   5 -13 9.83708 2.41939   1
   2   5 -12 879.821 21.3003   1
   2   5 -11 410.072 10.0042   1
   2   5 -10 1748.93 40.5007   1
   2   5  -9 252.064 6.32923   1
   2   5  -8 752.104  17.861   1
   2   5  -7 102.678 2.93745   1
   2   5  -6 827.326 19.3922   1
   2   5  -5 525.259 12.5021   1
   2   5  -4 2859.73 66.3836   1
   2   5  -3 341.535 8.09495   1
   2   5  -2 1384.53  31.893   1
   2   5  -1 427.233 9.90271   1
   2   5   0 1073.50 24.8048   1
   2   5   1 409.869  9.5238   1
   2   5   2 1365.49 31.5308   1
   2   5   3 356.367 8.36193   1
   2   5   4 2769.81 64.0158   1
   2   5   5  544.62 12.6694   1
   2   5   6 882.991 20.4282   1
   2   5   7 90.2366  2.5742   1
   2   5   8 775.854 18.3121   1
   2   5   9 244.759 6.04053   1
   2   5  10 1708.30 39.7762   1
   2   5  11 429.876 10.4338   1
   2   5  12 833.451 19.8198   1
   2   5  13 8.12892   2.023   1
   2   5  14 1212.55  28.711   1
   2   5  15 514.368   13.59   1
   2   5  16 309.341 8.04419   1
   2   5  17 223.401 5.74052   1
   2   5  18 339.549 8.42884   1
   2   5  19 86.0638 2.70148   1
   2   5  20 202.375 6.40976   1
   2   5  21  74.582 2.28942   1
   2   5  22 304.957 7.92767   1
   2   5  23 61.8682 2.45125   1
   2   5  24 103.582  3.2114   1
   2   5  25 78.2026 2.80405   1
   2   5  26 92.6631 3.54737   1
   2   5  27  56.161  2.7852   1
   2   5  28 255.389  8.5081   1
   2   5  29 83.6808 4.76771   1
   2   5  30 9.88036  4.6896   1
   2   6 -30 5.92591 5.11339   1
   2   6 -29 82.3476 6.00907   1
   2   6 -28 0.37756 2.76524   1
   2   6 -27 109.129  4.4619   1
   2   6 -26 67.6788 3.38322   1
   2   6 -25 7.21533 3.49465   1
   2   6 -24 114.228 4.60958   1
   2   6 -23  374.60 10.6589   1
   2   6 -22 24.2751 1.56313   1
   2   6 -21 61.4077 2.26177   1
   2   6 -20 14.8626  1.3414   1
   2   6 -19 304.434  7.8922   1
   2   6 -18 297.282 8.35855   1
   2   6 -17 460.875 11.3456   1
   2   6 -16 331.365 9.17328   1
   2   6 -15 308.776 9.74468   1
   2   6 -14 406.801 10.5662   1
   2   6 -13 1493.45 35.2817   1
   2   6 -12 52.0129 2.81374   1
   2   6 -11 456.094 11.0499   1
   2   6 -10 139.121 4.01392   1
   2   6  -9 2126.57 49.2347   1
   2   6  -8  40.079 1.69608   1
   2   6  -7  6.1334 1.09507   1
   2   6  -6 196.204  4.7971   1
   2   6  -5 3285.41 75.7689   1
   2   6  -4 111.037 2.78219   1
   2   6  -3 654.866  15.107   1
   2   6  -2 425.165 10.0352   1
   2   6  -1 2226.22  51.695   1
   2   6   0 2582.53 59.6334   1
   2   6   1 2234.61 51.7096   1
   2   6   2 414.716 9.66679   1
   2   6   3 634.317 14.7702   1
   2   6   4 106.051 2.78146   1
   2   6   5 3331.79  77.952   1
   2   6   6 183.097 4.71086   1
   2   6   7 7.55452 0.96825   1
   2   6   8 38.4473 1.68619   1
   2   6   9 2073.88 47.8001   1
   2   6  10 148.324 4.10632   1
   2   6  11 450.504 11.4364   1
   2   6  12 59.5259 2.58583   1
   2   6  13 1481.00 35.3297   1
   2   6  14 416.254 10.9538   1
   2   6  15 304.283 7.78683   1
   2   6  16 349.455 8.53183   1
   2   6  17 454.364 11.3586   1
   2   6  18 291.446 7.57786   1
   2   6  19 313.791 8.04131   1
   2   6  20 12.7298 1.13205   1
   2   6  21 70.0186 2.24282   1
   2   6  22 25.7049 1.38015   1
   2   6  23 381.608 11.6301   1
   2   6  24 116.069 3.81887   1
   2   6  25 10.5277 1.82541   1
   2   6  26 69.8627 2.96625   1
   2   6  27 104.578  4.0304   1
   2   6  28 5.24217 2.69111   1
   2   6  29 75.2567 4.39248   1
   2   6  30 9.16158 4.94701   1
   2   7 -29 31.5878  3.4873   1
   2   7 -28 148.939 7.90207   1
   2   7 -27 48.6874 3.40482   1
   2   7 -26 10.8258 2.20898   1
   2   7 -25 56.1042 2.91808   1
   2   7 -24 93.3887  3.4644   1
   2   7 -23 9.76639 2.39073   1
   2   7 -22 92.3275 4.65311   1
   2   7 -21 146.678 4.25331   1
   2   7 -20 254.595 6.82428   1
   2   7 -19 110.909 3.18378   1
   2   7 -18 125.583 4.14176   1
   2   7 -17 219.835 7.13165   1
   2   7 -16 104.707 3.96233   1
   2   7 -15 222.055 7.32244   1
   2   7 -14 1255.81 30.6231   1
   2   7 -13 478.718 13.4755   1
   2   7 -12 53.6749 3.15289   1
   2   7 -11  465.45 11.4784   1
   2   7 -10 1551.97  36.336   1
   2   7  -9 591.159 14.3449   1
   2   7  -8 883.481 21.2754   1
   2   7  -7 1586.85 36.8702   1
   2   7  -6 1859.37 43.0932   1
   2   7  -5 232.597 5.80556   1
   2   7  -4 1606.19 36.9929   1
   2   7  -3 1075.43 24.7986   1
   2   7  -2 554.545 12.9856   1
   2   7  -1 884.619 20.5379   1
   2   7   0 847.352 19.5947   1
   2   7   1 926.305 21.4231   1
   2   7   2 553.125 12.7811   1
   2   7   3 1091.82 25.1196   1
   2   7   4 1560.50 35.9659   1
   2   7   5 229.317 5.68161   1
   2   7   6 1844.93 42.4961   1
   2   7   7 1587.87 36.7295   1
   2   7   8 875.651 20.4696   1
   2   7   9 581.232 13.7647   1
   2   7  10 1577.91 36.5795   1
   2   7  11 456.998 11.0933   1
   2   7  12 67.5242  2.9562   1
   2   7  13  482.61 12.1185   1
   2   7  14 1270.82 32.1722   1
   2   7  15 248.557 9.68425   1
   2   7  16 98.2378 2.69276   1
   2   7  17 224.438 6.45846   1
   2   7  18 129.743 4.57326   1
   2   7  19 117.008 3.32892   1
   2   7  20 258.085 6.63665   1
   2   7  21 150.301 4.68626   1
   2   7  22 90.0602 4.00434   1
   2   7  23 8.41288 1.72457   1
   2   7  24 90.8303 4.06061   1
   2   7  25 59.5843 3.07737   1
   2   7  26 9.19046 2.29897   1
   2   7  27 45.8402 4.03662   1
   2   7  28  155.99 5.78838   1
   2   7  29 26.7155 3.42973   1
   2   8 -29 20.8214 4.00634   1
   2   8 -28 21.8102 2.77443   1
   2   8 -27 1.54553 4.51455   1
   2   8 -26 144.383 5.09319   1
   2   8 -25 13.1642 1.98128   1
   2   8 -24 138.261 4.76121   1
   2   8 -23 29.1614 2.24136   1
   2   8 -22 99.3818 3.44703   1
   2   8 -21 11.8915 1.72372   1
   2   8 -20 422.406 12.4591   1
   2   8 -19 26.2951 1.38149   1
   2   8 -18 133.019    3.93   1
   2   8 -17 125.375  5.3523   1
   2   8 -16  866.94 27.5458   1
   2   8 -15 172.552  5.2675   1
   2   8 -14 159.769 5.56738   1
   2   8 -13 517.477 13.0172   1
   2   8 -12 1003.23 25.3221   1
   2   8 -11  133.29 4.42516   1
   2   8 -10 332.314 8.48662   1
   2   8  -9  408.93 10.0257   1
   2   8  -8 939.932 21.9265   1
   2   8  -7 187.201 5.20739   1
   2   8  -6 1650.12 37.9489   1
   2   8  -5 1164.87 27.0434   1
   2   8  -4  765.86 17.7565   1
   2   8  -3 9.19061  1.2222   1
   2   8  -2 2088.76 48.2355   1
   2   8  -1 384.202 8.99309   1
   2   8   0 325.173 7.72267   1
   2   8   1 404.686 9.74592   1
   2   8   2 2118.12 48.9919   1
   2   8   3 7.87625 0.75759   1
   2   8   4 767.313 17.7082   1
   2   8   5 1157.42 26.7808   1
   2   8   6 1606.86 37.2574   1
   2   8   7 189.379  4.8584   1
   2   8   8 941.857 22.0312   1
   2   8   9 406.987 9.81867   1
   2   8  10  325.34  8.5057   1
   2   8  11 139.557 4.23382   1
   2   8  12 1005.76 23.8905   1
   2   8  13 506.458 12.9226   1
   2   8  14 161.198 4.93449   1
   2   8  15  166.03  5.0053   1
   2   8  16 948.213 22.5262   1
   2   8  17 128.722 3.45602   1
   2   8  18 129.919 3.51382   1
   2   8  19 25.5916 1.71319   1
   2   8  20 425.484 11.2176   1
   2   8  21 7.59545  1.3223   1
   2   8  22 100.407 3.20948   1
   2   8  23 22.3941 1.75223   1
   2   8  24 140.426 4.42291   1
   2   8  25 15.2863  1.9176   1
   2   8  26 139.775 4.66905   1
   2   8  27 5.48446 2.89724   1
   2   8  28 22.2324  4.2467   1
   2   8  29 15.6312 2.85021   1
   2   9 -29 107.322 6.88975   1
   2   9 -28 29.6463 3.73003   1
   2   9 -27 15.4445 2.71258   1
   2   9 -26 73.4698 3.36675   1
   2   9 -25 285.273 9.48962   1
   2   9 -24 15.8787 2.78907   1
   2   9 -23 13.5491 2.62023   1
   2   9 -22 57.5515 2.40564   1
   2   9 -21 365.393 9.84134   1
   2   9 -20 90.8535 3.32063   1
   2   9 -19 77.1681 3.20823   1
   2   9 -18 56.9995 2.72863   1
   2   9 -17 273.589 9.56118   1
   2   9 -16 7.07846  0.9719   1
   2   9 -15 665.036 18.9052   1
   2   9 -14 39.5131  2.1792   1
   2   9 -13 228.435 6.70151   1
   2   9 -12 229.302 6.40078   1
   2   9 -11 934.638 22.9677   1
   2   9 -10 9.19647 2.10623   1
   2   9  -9 113.978 3.21681   1
   2   9  -8 83.2312 3.03864   1
   2   9  -7 1233.82 28.7371   1
   2   9  -6 392.035 9.27346   1
   2   9  -5 7.20033 0.64347   1
   2   9  -4 18.6059 0.89558   1
   2   9  -3 1177.24 27.1086   1
   2   9  -2 441.393 10.3411   1
   2   9  -1 477.615 11.2101   1
   2   9   0 4.41881 0.68096   1
   2   9   1 476.983 11.2161   1
   2   9   2 430.954 10.1662   1
   2   9   3 1164.16 27.6441   1
   2   9   4 20.9082 1.09469   1
   2   9   5 5.25323 0.99757   1
   2   9   6 385.978 9.26416   1
   2   9   7 1232.52 28.6859   1
   2   9   8 83.6495 2.66783   1
   2   9   9 109.326 3.56966   1
   2   9  10 12.5302   1.829   1
   2   9  11 914.335 21.7398   1
   2   9  12  230.08 6.21762   1
   2   9  13 242.641 6.46283   1
   2   9  14 38.0853  1.7581   1
   2   9  15  706.11 16.8888   1
   2   9  16 6.54072 0.83261   1
   2   9  17 273.112 6.96392   1
   2   9  18 60.1816 2.03852   1
   2   9  19 72.9902 2.50101   1
   2   9  20 88.9582 2.78696   1
   2   9  21 358.061 9.37613   1
   2   9  22 62.4615 2.63908   1
   2   9  23 13.1065 1.81509   1
   2   9  24 15.9525 1.90206   1
   2   9  25 275.516   8.184   1
   2   9  26 80.7473 3.60662   1
   2   9  27 17.4354 3.08513   1
   2   9  28 24.7781 4.10084   1
   2   9  29 96.4144 6.66767   1
   2  10 -28 32.9935 5.20166   1
   2  10 -27 194.451  11.467   1
   2  10 -26 53.1018 6.82864   1
   2  10 -25 26.5103 2.51703   1
   2  10 -24  209.53 7.16718   1
   2  10 -23  195.96 7.48728   1
   2  10 -22 28.8483 1.84208   1
   2  10 -21 154.402 5.78605   1
   2  10 -20 173.356 6.38482   1
   2  10 -19 189.464 5.68939   1
   2  10 -18  14.663 1.10482   1
   2  10 -17 335.414 8.70724   1
   2  10 -16 484.089 12.2774   1
   2  10 -15 62.8298 2.94634   1
   2  10 -14 455.778 11.3149   1
   2  10 -13 162.009 5.46383   1
   2  10 -12 851.818 23.2855   1
   2  10 -11 16.0292 2.72951   1
   2  10 -10  299.88 7.63462   1
   2  10  -9 317.989 8.33862   1
   2  10  -8 264.408 6.64959   1
   2  10  -7 129.897 3.54874   1
   2  10  -6 489.626 11.6618   1
   2  10  -5 179.031 4.48715   1
   2  10  -4 88.9579 2.53562   1
   2  10  -3 399.112 9.39004   1
   2  10  -2 691.521 15.9986   1
   2  10  -1 851.672 19.8045   1
   2  10   0 168.532 4.25423   1
   2  10   1 820.628 19.1843   1
   2  10   2 677.915 15.9825   1
   2  10   3 392.898 9.39633   1
   2  10   4 85.6263 2.50714   1
   2  10   5 181.508  4.6002   1
   2  10   6 491.333 11.7416   1
   2  10   7 121.676 3.58376   1
   2  10   8 272.318 7.16676   1
   2  10   9 324.138 8.15796   1
   2  10  10 285.391 7.32581   1
   2  10  11  14.275 1.97539   1
   2  10  12 829.265  19.893   1
   2  10  13 164.591  4.1942   1
   2  10  14 457.913 11.1626   1
   2  10  15 68.3113 2.24242   1
   2  10  16 487.847 14.9976   1
   2  10  17 345.185 8.76672   1
   2  10  18 15.1125 1.29433   1
   2  10  19 187.205 5.96434   1
   2  10  20 170.107  4.7326   1
   2  10  21 147.261 5.12502   1
   2  10  22 33.8527 2.85881   1
   2  10  23 207.645 7.82325   1
   2  10  24 222.211  7.3193   1
   2  10  25 28.6308 2.44283   1
   2  10  26 53.1091 5.62627   1
   2  10  27 189.744 8.42095   1
   2  10  28 36.8136 3.71809   1
   2  11 -28 285.953 10.8744   1
   2  11 -27 39.9848 3.65344   1
   2  11 -26 199.938   8.006   1
   2  11 -25 37.6235 3.28942   1
   2  11 -24 133.892 5.11086   1
   2  11 -23 48.2054 2.42567   1
   2  11 -22  329.74 10.6612   1
   2  11 -21 101.341 3.33423   1
   2  11 -20 53.7228 2.17478   1
   2  11 -19 34.5867 1.69441   1
   2  11 -18 556.148 14.3246   1
   2  11 -17 58.9193 2.16078   1
   2  11 -16 129.507 3.60233   1
   2  11 -15 375.153 9.39622   1
   2  11 -14 400.997 10.6462   1
   2  11 -13 20.8714 3.85381   1
   2  11 -12 867.415  24.469   1
   2  11 -11  163.08 5.50665   1
   2  11 -10 547.389 13.0808   1
   2  11  -9 102.907 3.38149   1
   2  11  -8 351.231  8.9807   1
   2  11  -7 270.222 6.84216   1
   2  11  -6 183.496 4.77347   1
   2  11  -5 15.7594 1.17524   1
   2  11  -4  595.63 13.9824   1
   2  11  -3 54.5445 1.89601   1
   2  11  -2 146.083 3.92864   1
   2  11  -1 185.773 4.74321   1
   2  11   0 224.518 5.62952   1
   2  11   1 182.818 5.32731   1
   2  11   2 143.124  3.7372   1
   2  11   3 48.8992 2.03834   1
   2  11   4 555.619 13.2837   1
   2  11   5 17.0798 1.28604   1
   2  11   6 202.594 5.20392   1
   2  11   7 298.827 7.68365   1
   2  11   8 376.588 11.1797   1
   2  11   9 109.488  3.6312   1
   2  11  10 503.415 12.4921   1
   2  11  11 171.118 5.13575   1
   2  11  12 844.993 20.6293   1
   2  11  13 27.3904 1.61391   1
   2  11  14 432.991 10.7401   1
   2  11  15  374.10 11.7015   1
   2  11  16 123.115 3.53521   1
   2  11  17  64.785 2.07092   1
   2  11  18 573.095 14.5381   1
   2  11  19 28.9243 2.02543   1
   2  11  20 51.4431 2.02924   1
   2  11  21 104.089 3.48774   1
   2  11  22 326.837  9.4167   1
   2  11  23 58.4399 2.93551   1
   2  11  24 134.706 4.87872   1
   2  11  25 38.8016  3.6702   1
   2  11  26 215.139 9.96846   1
   2  11  27 48.6222 5.03245   1
   2  11  28 265.284 10.6176   1
   2  12 -27  227.82 8.68833   1
   2  12 -26 27.2346 3.53583   1
   2  12 -25  41.278 3.81508   1
   2  12 -24 19.8912 2.60174   1
   2  12 -23 312.745 9.58203   1
   2  12 -22 7.46561 1.59957   1
   2  12 -21 112.011 3.85159   1
   2  12 -20 13.7034 1.59067   1
   2  12 -19 283.185 7.82097   1
   2  12 -18 209.209 5.91162   1
   2  12 -17 366.394 9.49232   1
   2  12 -16 14.9348  1.2394   1
   2  12 -15 67.3973 3.48037   1
   2  12 -14 121.111 3.31861   1
   2  12 -13 902.464 21.7132   1
   2  12 -12 0.82755  0.7698   1
   2  12 -11 120.693 3.73382   1
   2  12 -10 34.9614 1.56932   1
   2  12  -9 696.998 16.6213   1
   2  12  -8 275.912 7.93507   1
   2  12  -7 154.285 4.42657   1
   2  12  -6 382.531 9.61881   1
   2  12  -5 1382.72 32.1405   1
   2  12  -4 324.179 7.98468   1
   2  12  -3 144.824 3.89534   1
   2  12  -2  345.91 9.71756   1
   2  12  -1 549.597  13.123   1
   2  12   0 628.185 16.1181   1
   2  12   1 516.045 12.4667   1
   2  12   2 345.527 8.98049   1
   2  12   3 131.285 4.80154   1
   2  12   4 329.015 8.73586   1
   2  12   5 1385.12 33.2123   1
   2  12   6 389.001 10.1318   1
   2  12   7 152.308 5.25227   1
   2  12   8 282.387 7.25073   1
   2  12   9  676.13 16.3407   1
   2  12  10 29.7675 1.98566   1
   2  12  11 128.715 3.60319   1
   2  12  12 0.37695 0.83366   1
   2  12  13 895.294 21.4648   1
   2  12  14 122.812 4.55063   1
   2  12  15 71.2011 2.69531   1
   2  12  16  18.401 1.17136   1
   2  12  17 388.252 10.0448   1
   2  12  18 209.079 5.82169   1
   2  12  19 268.791 7.51507   1
   2  12  20  11.773 1.69447   1
   2  12  21 112.016 3.89753   1
   2  12  22 6.80501 3.09356   1
   2  12  23  309.42 9.21336   1
   2  12  24 15.2167 2.76631   1
   2  12  25 41.0694 4.38139   1
   2  12  26 19.0304 3.56173   1
   2  12  27  243.81 14.5328   1
   2  13 -27 30.4084 5.55897   1
   2  13 -26 50.3191 3.62136   1
   2  13 -25 36.3378 4.22335   1
   2  13 -24 53.5892 3.60207   1
   2  13 -23 11.5558   2.318   1
   2  13 -22 69.7542 3.14516   1
   2  13 -21 183.279 6.26246   1
   2  13 -20 4.04585 1.42121   1
   2  13 -19 29.5572 1.71528   1
   2  13 -18 297.615  10.083   1
   2  13 -17 247.676 8.19128   1
   2  13 -16  52.512 1.93269   1
   2  13 -15 78.5714 2.28447   1
   2  13 -14 585.576 14.5273   1
   2  13 -13 125.993 3.64152   1
   2  13 -12 166.676 4.22697   1
   2  13 -11 128.362 3.48163   1
   2  13 -10 467.235 11.3794   1
   2  13  -9 27.1151  3.0131   1
   2  13  -8 396.718 10.1063   1
   2  13  -7 281.354 7.15063   1
   2  13  -6 91.6339 2.89369   1
   2  13  -5 85.0739 2.72478   1
   2  13  -4 468.447 11.3167   1
   2  13  -3 713.499 17.0152   1
   2  13  -2 44.9767 2.54019   1
   2  13  -1 672.155 16.6194   1
   2  13   0 236.557 6.60379   1
   2  13   1  694.13 16.7601   1
   2  13   2 43.9758  1.7619   1
   2  13   3 679.419  18.362   1
   2  13   4 492.529 12.2853   1
   2  13   5 81.0763 2.92645   1
   2  13   6 80.4185 3.10535   1
   2  13   7 268.858 10.0872   1
   2  13   8 381.072 10.6439   1
   2  13   9 35.5252 2.34203   1
   2  13  10 494.954 12.0947   1
   2  13  11 129.873 3.40149   1
   2  13  12 169.772 4.44435   1
   2  13  13 128.821 3.67341   1
   2  13  14 585.698 15.5379   1
   2  13  15  78.582 3.18041   1
   2  13  16 58.5813  3.0212   1
   2  13  17 241.957 7.83569   1
   2  13  18 304.052 8.30552   1
   2  13  19 30.0788 1.95445   1
   2  13  20 0.91019 1.63608   1
   2  13  21 183.677 9.18855   1
   2  13  22 67.4151  3.4264   1
   2  13  23 8.66208 2.20914   1
   2  13  24 55.3963 4.64721   1
   2  13  25 37.1695 3.71921   1
   2  13  26  47.388 3.60303   1
   2  14 -26 74.1683 5.11451   1
   2  14 -25 3.37488 3.41587   1
   2  14 -24 85.6933 4.50793   1
   2  14 -23 64.8893 3.27575   1
   2  14 -22 76.8138 4.01568   1
   2  14 -21 17.7497  1.8685   1
   2  14 -20 195.772 6.97454   1
   2  14 -19 54.8586 2.06966   1
   2  14 -18  60.107 2.81818   1
   2  14 -17 13.5734 1.28621   1
   2  14 -16 519.702 13.5596   1
   2  14 -15 28.6117  2.6858   1
   2  14 -14  3.4256 0.98218   1
   2  14 -13 289.594 7.52384   1
   2  14 -12  435.70  12.223   1
   2  14 -11 76.7084 2.16822   1
   2  14 -10  237.27 6.42572   1
   2  14  -9 298.706 7.71683   1
   2  14  -8 648.322 17.9541   1
   2  14  -7  3.5376 2.61943   1
   2  14  -6 416.675 12.0665   1
   2  14  -5 309.378 7.80557   1
   2  14  -4 96.4631 3.28515   1
   2  14  -3 334.175 8.41471   1
   2  14  -2 1939.56 45.1097   1
   2  14  -1 107.646 2.98504   1
   2  14   0 55.0456 2.53735   1
   2  14   1 101.028 3.51633   1
   2  14   2 1891.74 48.6608   1
   2  14   3 327.116 8.68892   1
   2  14   4 107.838 3.58364   1
   2  14   5 314.279 7.86424   1
   2  14   6 439.794 10.6118   1
   2  14   7  1.8384 1.94273   1
   2  14   8 664.221 16.2273   1
   2  14   9 291.748 8.72144   1
   2  14  10  233.89 6.31397   1
   2  14  11 69.8652 2.53929   1
   2  14  12 421.146 11.6658   1
   2  14  13  293.77 7.56959   1
   2  14  14 3.63732 1.12083   1
   2  14  15 27.0664  1.4366   1
   2  14  16 531.961 13.8515   1
   2  14  17  14.403 1.41091   1
   2  14  18  58.845  2.7402   1
   2  14  19 56.8342 2.65119   1
   2  14  20 212.672 6.26969   1
   2  14  21 14.1716 2.17767   1
   2  14  22 78.9192 4.05029   1
   2  14  23 57.3455 2.86439   1
   2  14  24 90.1973 4.97226   1
   2  14  25 2.37881 2.93471   1
   2  14  26 71.2676 4.36033   1
   2  15 -25 100.732 6.14996   1
   2  15 -24 2.71218 5.18098   1
   2  15 -23 4.60787 3.32762   1
   2  15 -22 37.5244 2.85532   1
   2  15 -21 307.056 11.0993   1
   2  15 -20 51.4149 2.92815   1
   2  15 -19 25.1192 1.86824   1
   2  15 -18 72.6599 2.81586   1
   2  15 -17 394.656 10.9348   1
   2  15 -16 30.0221 2.40032   1
   2  15 -15 293.035 7.95144   1
   2  15 -14 32.6142 1.80608   1
   2  15 -13 403.141 10.3085   1
   2  15 -12 87.9784 2.66725   1
   2  15 -11 858.343 20.7199   1
   2  15 -10   56.34 2.51526   1
   2  15  -9 51.9632 2.15656   1
   2  15  -8 61.6681 1.90989   1
   2  15  -7 1562.86 37.0359   1
   2  15  -6  220.00 5.67775   1
   2  15  -5  20.841 1.02212   1
   2  15  -4 229.752 6.14792   1
   2  15  -3 1510.50 37.8267   1
   2  15  -2 230.391 5.83962   1
   2  15  -1 767.119 18.7801   1
   2  15   0 1.67888 1.56026   1
   2  15   1 776.994 19.2194   1
   2  15   2 230.088 6.39548   1
   2  15   3 1499.75 36.6343   1
   2  15   4 246.206 6.06171   1
   2  15   5 19.3375  1.1869   1
   2  15   6 216.715  5.5693   1
   2  15   7 1604.06 38.5327   1
   2  15   8 64.5592 2.94192   1
   2  15   9 54.6383 2.09405   1
   2  15  10 57.3392 1.94757   1
   2  15  11 829.207 20.3924   1
   2  15  12 85.4962 2.57513   1
   2  15  13  408.23 10.3903   1
   2  15  14 31.8217 1.71918   1
   2  15  15 307.982 9.24944   1
   2  15  16 29.2543 1.97537   1
   2  15  17 403.428  11.406   1
   2  15  18 79.8788 3.05697   1
   2  15  19  32.966 2.07305   1
   2  15  20 54.9509 2.84628   1
   2  15  21 305.648 9.35404   1
   2  15  22 35.7726 2.66284   1
   2  15  23 4.39037  2.9556   1
   2  15  24   3.199 2.88837   1
   2  15  25 116.025 5.78768   1
   2  16 -24 31.1336 4.89544   1
   2  16 -23 106.178 6.30663   1
   2  16 -22  99.075 6.17026   1
   2  16 -21  71.732 3.61725   1
   2  16 -20 122.154 4.17122   1
   2  16 -19 126.812 7.98106   1
   2  16 -18 45.4445 2.24735   1
   2  16 -17 310.774  8.9477   1
   2  16 -16  473.99 12.8566   1
   2  16 -15  85.824 2.84928   1
   2  16 -14 67.0613 2.46842   1
   2  16 -13 70.0365 2.33197   1
   2  16 -12 569.041 14.6007   1
   2  16 -11 72.5749 2.21166   1
   2  16 -10 107.423 3.27119   1
   2  16  -9 154.171 4.70421   1
   2  16  -8  318.98 8.72517   1
   2  16  -7 47.4259 1.77232   1
   2  16  -6 374.587 9.37838   1
   2  16  -5 127.868 3.49083   1
   2  16  -4 232.435 5.85128   1
   2  16  -3 167.361 4.20908   1
   2  16  -2 731.035 17.4894   1
   2  16  -1 178.689 4.78427   1
   2  16   0 35.8783  1.3368   1
   2  16   1 187.328 4.77501   1
   2  16   2 707.085 17.3328   1
   2  16   3 168.346 4.30158   1
   2  16   4 231.265 5.79432   1
   2  16   5 126.863 3.35376   1
   2  16   6 396.737 9.95323   1
   2  16   7 43.5418 1.62536   1
   2  16   8  318.03 8.43769   1
   2  16   9 156.359 4.29851   1
   2  16  10 106.657 3.41513   1
   2  16  11 67.9788 2.22796   1
   2  16  12  564.55  14.911   1
   2  16  13 71.6889 2.75006   1
   2  16  14 61.3304 2.33518   1
   2  16  15 90.5528 2.93142   1
   2  16  16 518.834 14.2481   1
   2  16  17 323.384 9.36099   1
   2  16  18 45.2883 2.39883   1
   2  16  19 123.241  4.3215   1
   2  16  20 107.653  5.5432   1
   2  16  21 69.3687 3.05499   1
   2  16  22 92.9324 5.17863   1
   2  16  23 102.138 4.95501   1
   2  16  24 37.8184 4.00988   1
   2  17 -23 9.49203 3.44755   1
   2  17 -22 215.052 14.0773   1
   2  17 -21  28.826 3.04778   1
   2  17 -20 4.63999 2.14853   1
   2  17 -19 3.40922 1.87128   1
   2  17 -18 440.369 12.7566   1
   2  17 -17 104.425 4.67236   1
   2  17 -16 95.6905 3.21171   1
   2  17 -15 93.5242 3.41914   1
   2  17 -14 362.628 9.88277   1
   2  17 -13 194.394 5.46808   1
   2  17 -12 317.965 8.41291   1
   2  17 -11 90.5811 3.16757   1
   2  17 -10  229.29  7.0835   1
   2  17  -9 47.1135 1.79094   1
   2  17  -8  369.36 9.59449   1
   2  17  -7 95.7154 2.82863   1
   2  17  -6 72.7905 2.18954   1
   2  17  -5 22.4618 1.12219   1
   2  17  -4 621.002 15.2972   1
   2  17  -3 394.879 9.73646   1
   2  17  -2 217.722 6.33213   1
   2  17  -1 9.21107 1.01459   1
   2  17   0 592.693  14.512   1
   2  17   1 7.70486 1.26863   1
   2  17   2 224.544 6.28045   1
   2  17   3 384.285 9.68541   1
   2  17   4 610.623 15.1085   1
   2  17   5 20.2417 1.07234   1
   2  17   6 79.3198 3.46817   1
   2  17   7 96.7766 3.90057   1
   2  17   8 385.836 9.95413   1
   2  17   9 49.2513 1.99739   1
   2  17  10 202.587 5.89805   1
   2  17  11 87.8095  2.8969   1
   2  17  12 303.154 8.59274   1
   2  17  13 197.467 5.68136   1
   2  17  14 389.836 10.5065   1
   2  17  15 101.005 3.55937   1
   2  17  16  104.39 3.72876   1
   2  17  17 111.351  4.0306   1
   2  17  18 456.455 13.1294   1
   2  17  19 2.33861 2.01822   1
   2  17  20 6.02482 2.16351   1
   2  17  21 26.7243  2.5996   1
   2  17  22 195.516 7.78209   1
   2  17  23  5.4408 3.75507   1
   2  18 -22-2.43284 6.19716   1
   2  18 -21 47.4718 5.51087   1
   2  18 -20 30.8898 2.81988   1
   2  18 -19 157.072 5.28508   1
   2  18 -18  36.603 2.39803   1
   2  18 -17 215.492 6.67015   1
   2  18 -16 21.5204 1.81253   1
   2  18 -15 82.2019 3.37836   1
   2  18 -14 13.9762 1.53663   1
   2  18 -13 347.519 10.1462   1
   2  18 -12 4.48606 1.47218   1
   2  18 -11 22.0598 2.32008   1
   2  18 -10 15.1193  1.3082   1
   2  18  -9 265.452 7.12029   1
   2  18  -8 22.4689 1.40947   1
   2  18  -7 48.6999 1.90977   1
   2  18  -6  23.877 1.51449   1
   2  18  -5 243.074 6.43153   1
   2  18  -4 53.6531 2.43867   1
   2  18  -3 164.948 4.60509   1
   2  18  -2  216.59 5.57778   1
   2  18  -1 386.334 9.72619   1
   2  18   0 34.9738 1.47815   1
   2  18   1 370.607 9.36271   1
   2  18   2 206.669 5.41067   1
   2  18   3 157.473 4.69554   1
   2  18   4   50.80 2.34231   1
   2  18   5 252.155 6.55996   1
   2  18   6 20.5508 1.59734   1
   2  18   7 45.8268 2.49272   1
   2  18   8 22.6831 1.40701   1
   2  18   9 273.459  7.3775   1
   2  18  10 15.8071 1.29077   1
   2  18  11 23.2092 1.61991   1
   2  18  12 2.98525 1.93285   1
   2  18  13 338.245 9.81029   1
   2  18  14 14.1404 1.81529   1
   2  18  15 80.2779 3.06831   1
   2  18  16 25.1565 1.95515   1
   2  18  17 225.582 7.01505   1
   2  18  18 33.7684 3.16703   1
   2  18  19 160.438 7.65229   1
   2  18  20  25.732 2.74685   1
   2  18  21 48.7923 5.54383   1
   2  18  22 4.35673 3.43644   1
   2  18  23  224.41 15.1297   1
   2  19 -21 123.157 10.0957   1
   2  19 -20 5.01764 2.70458   1
   2  19 -19 16.9202  2.8858   1
   2  19 -18 106.522 4.15234   1
   2  19 -17 148.503 5.69524   1
   2  19 -16  69.876 3.20897   1
   2  19 -15 61.0179 2.82789   1
   2  19 -14  77.979  3.8009   1
   2  19 -13 36.7575 2.17397   1
   2  19 -12 199.139 7.25843   1
   2  19 -11 167.178 6.45248   1
   2  19 -10 68.5093 2.48824   1
   2  19  -9 33.9957 1.80015   1
   2  19  -8 219.374 6.93665   1
   2  19  -7  166.25  4.8865   1
   2  19  -6 3.21974 1.35522   1
   2  19  -5 39.7737 1.99551   1
   2  19  -4  68.726 2.40153   1
   2  19  -3 276.355 7.50821   1
   2  19  -2  7.0843 1.29167   1
   2  19  -1 372.419 10.0564   1
   2  19   0 30.7409 2.51911   1
   2  19   1  366.87 9.61166   1
   2  19   2 7.04153 0.98292   1
   2  19   3 285.396  7.3847   1
   2  19   4 62.5205 2.53652   1
   2  19   5 38.2172  1.5225   1
   2  19   6 3.77566 1.02071   1
   2  19   7 169.285 4.70462   1
   2  19   8 207.956 5.66451   1
   2  19   9 32.9197 2.24225   1
   2  19  10  79.829 4.22608   1
   2  19  11 156.514 5.02402   1
   2  19  12 194.556 5.72885   1
   2  19  13 29.2813 2.05572   1
   2  19  14 80.9591 3.72876   1
   2  19  15  58.931  3.3395   1
   2  19  16 74.8468 4.92565   1
   2  19  17 152.189  7.9278   1
   2  19  18 110.174 11.1615   1
   2  19  19 15.4559 3.04417   1
   2  19  20 6.49068 3.25564   1
   2  19  21 122.239 8.72657   1
   2  20 -20 175.779 7.60414   1
   2  20 -19 26.8333 3.65248   1
   2  20 -18 66.5496  10.455   1
   2  20 -17 72.1704 3.89139   1
   2  20 -16 202.324 7.29212   1
   2  20 -15 47.9772 3.81981   1
   2  20 -14-1.00199 4.57486   1
   2  20 -13 110.163 4.35628   1
   2  20 -12  148.10 7.75617   1
   2  20 -11   8.513   1.779   1
   2  20 -10 174.803 5.16162   1
   2  20  -9 19.6031 1.77123   1
   2  20  -8 220.994 7.69033   1
   2  20  -7  50.141 2.45171   1
   2  20  -6 269.064 7.91915   1
   2  20  -5 3.41374 1.58711   1
   2  20  -4 123.832 3.94073   1
   2  20  -3 12.8947 1.51107   1
   2  20  -2 799.843 22.7463   1
   2  20  -1 32.4593 1.57215   1
   2  20   0 4.24755 1.02287   1
   2  20   1 32.8918 1.67783   1
   2  20   2 815.591 20.0374   1
   2  20   3 15.0021 1.21646   1
   2  20   4 118.076 3.43657   1
   2  20   5 3.58884 1.31999   1
   2  20   6 266.868 6.93805   1
   2  20   7 46.8456  2.3738   1
   2  20   8 224.624 6.72335   1
   2  20   9 16.6543 1.73726   1
   2  20  10 160.087 5.14027   1
   2  20  11 8.09284 2.22477   1
   2  20  12 148.766   5.042   1
   2  20  13 111.723 5.09976   1
   2  20  14-0.87399 4.23157   1
   2  20  15 52.4057 3.48458   1
   2  20  16 192.227 7.72493   1
   2  20  17 85.0326 4.84527   1
   2  20  18 67.0565 4.74221   1
   2  20  19  19.327 3.13986   1
   2  20  20 188.688 9.25008   1
   2  21 -19 40.8826  3.7454   1
   2  21 -18 33.7166 3.83676   1
   2  21 -17 267.584 17.8837   1
   2  21 -16 32.3817 3.16624   1
   2  21 -15 82.6984 3.87579   1
   2  21 -14 63.0006 3.56329   1
   2  21 -13 187.197 6.32772   1
   2  21 -12 278.941  9.5432   1
   2  21 -11 293.294 9.29347   1
   2  21 -10 69.6154 2.90828   1
   2  21  -9 16.0717 1.94488   1
   2  21  -8 30.0819 2.49415   1
   2  21  -7  449.03 12.9185   1
   2  21  -6 126.127 4.14099   1
   2  21  -5 81.2564 3.42396   1
   2  21  -4 89.1832 3.28841   1
   2  21  -3 417.471 11.4212   1
   2  21  -2 17.9077 2.02663   1
   2  21  -1  426.38 11.8265   1
   2  21   0 282.309 9.49702   1
   2  21   1 422.382 11.4092   1
   2  21   2 17.1511 1.34609   1
   2  21   3 411.235 11.1074   1
   2  21   4 94.7394 3.47987   1
   2  21   5 78.5877 2.83145   1
   2  21   6 117.173 3.69717   1
   2  21   7 466.476 12.9205   1
   2  21   8 29.4742 1.83065   1
   2  21   9 12.0597   1.755   1
   2  21  10 79.0036 3.06866   1
   2  21  11 288.449 9.44081   1
   2  21  12 288.039 8.66282   1
   2  21  13 191.401 6.38119   1
   2  21  14 59.4564 3.63307   1
   2  21  15 96.1524 4.60375   1
   2  21  16 39.5671 3.19671   1
   2  21  17 254.653 9.23138   1
   2  21  18  35.703 4.73702   1
   2  21  19   41.84  3.4354   1
   2  22 -17 71.0888  4.7558   1
   2  22 -16 115.479 4.98253   1
   2  22 -15 52.4607 4.49714   1
   2  22 -14 24.8787 2.99142   1
   2  22 -13 27.5913  2.5924   1
   2  22 -12 197.942 9.01974   1
   2  22 -11 12.7488 2.40961   1
   2  22 -10 132.905 7.07668   1
   2  22  -9 89.2141 4.92008   1
   2  22  -8  123.45 5.78012   1
   2  22  -7 31.4921   2.504   1
   2  22  -6 320.738 9.74688   1
   2  22  -5 83.2264 3.61751   1
   2  22  -4 128.962 4.72569   1
   2  22  -3 94.7952 4.55911   1
   2  22  -2 406.279 11.6663   1
   2  22  -1 253.233 12.7215   1
   2  22   0 174.839  5.4412   1
   2  22   1 255.589 7.89534   1
   2  22   2 396.545 11.1588   1
   2  22   3 95.0662 3.32585   1
   2  22   4 132.722 4.49766   1
   2  22   5 97.1225 3.78496   1
   2  22   6 322.127 10.7918   1
   2  22   7 25.3792 2.22508   1
   2  22   8 117.931 4.56796   1
   2  22   9 82.9698  3.8923   1
   2  22  10 130.009  4.7331   1
   2  22  11 15.0106 2.51922   1
   2  22  12 210.402  7.3011   1
   2  22  13 27.3898 3.66874   1
   2  22  14  19.345 3.80777   1
   2  22  15 61.6616 4.95529   1
   2  22  16 131.715 5.89979   1
   2  22  17 71.4175 5.28851   1
   2  23 -16 16.0057 4.29213   1
   2  23 -15 3.90605 2.92896   1
   2  23 -14 143.977 7.87541   1
   2  23 -13 132.191 5.90499   1
   2  23 -12 37.8657 4.00674   1
   2  23 -11 21.9955 3.41691   1
   2  23 -10 90.2806 4.69604   1
   2  23  -9 55.5631 3.83265   1
   2  23  -8 222.629 7.87889   1
   2  23  -7 129.785 5.17428   1
   2  23  -6 52.3256  5.9104   1
   2  23  -5 85.0889 5.43187   1
   2  23  -4 178.014 6.31986   1
   2  23  -3  133.86 4.92127   1
   2  23  -2 66.6438 3.16833   1
   2  23  -1 29.5977  2.2331   1
   2  23   0 560.672 15.2407   1
   2  23   1 32.7806 2.37113   1
   2  23   2 69.9158 4.01909   1
   2  23   3 127.082 4.32141   1
   2  23   4 194.827 6.39302   1
   2  23   5  75.439  3.1472   1
   2  23   6 60.3789 3.91392   1
   2  23   7 111.067 6.36415   1
   2  23   8 228.103 7.18716   1
   2  23   9 53.7085 3.62767   1
   2  23  10 83.0567 7.18737   1
   2  23  11 19.9827 4.73894   1
   2  23  12 34.8375 3.31527   1
   2  23  13 133.034 5.28892   1
   2  23  14 166.383 6.67166   1
   2  23  15 2.57755 3.00137   1
   2  23  16 27.1339 5.73749   1
   2  24 -14 37.3951 3.76906   1
   2  24 -13  132.74 7.44418   1
   2  24 -12 16.6783 5.27346   1
   2  24 -11 1.50381 3.40097   1
   2  24 -10 33.6609 3.97896   1
   2  24  -9 205.233 9.52045   1
   2  24  -8 7.09363 3.08079   1
   2  24  -7 32.3775 3.44049   1
   2  24  -6 12.6825 3.88397   1
   2  24  -5  112.85 4.22931   1
   2  24  -4  13.385 3.03316   1
   2  24  -3 156.266 5.81511   1
   2  24  -2 3.58523 2.34044   1
   2  24  -1 165.561 5.38852   1
   2  24   0 2.35392 2.86697   1
   2  24   1 161.453 5.80782   1
   2  24   2 6.21329 2.27209   1
   2  24   3 157.789 4.99925   1
   2  24   4  14.296 1.95763   1
   2  24   5 97.1416 3.66775   1
   2  24   6 17.7087 2.39937   1
   2  24   7 36.6306  2.6502   1
   2  24   8 12.1858 2.91154   1
   2  24   9 206.691 8.55248   1
   2  24  10 28.5441 3.59239   1
   2  24  11-1.98712 7.19285   1
   2  24  12 13.2954 2.93954   1
   2  24  13 151.075 10.7593   1
   2  24  14 31.7064 3.75224   1
   2  25 -11 42.1822 6.26371   1
   2  25 -10 40.1201 5.36652   1
   2  25  -9 15.9507 4.76407   1
   2  25  -8 47.6277 3.49645   1
   2  25  -7 19.2403 3.43868   1
   2  25  -6-0.46092 8.12023   1
   2  25  -5 37.3467 3.30573   1
   2  25  -4 61.9023 4.53586   1
   2  25  -3 75.8089 3.79964   1
   2  25  -2-3.44546 6.75033   1
   2  25  -1 37.2242 2.89381   1
   2  25   0 49.8097 3.74088   1
   2  25   1 39.3141  2.5567   1
   2  25   2-0.53612 5.34097   1
   2  25   3 75.0244  3.8588   1
   2  25   4 58.8006 3.20102   1
   2  25   5 38.1138   3.058   1
   2  25   6 3.02985 2.75607   1
   2  25   7 19.5034 3.04349   1
   2  25   8 42.3365 4.69652   1
   2  25   9 13.9174 3.31011   1
   2  25  10   51.30 6.52166   1
   2  25  11 45.8546 3.67051   1
   2  26  -8 45.8306 4.17851   1
   2  26  -7  9.8123 3.22254   1
   2  26  -6 110.957 6.17936   1
   2  26  -5 11.5815 3.51306   1
   2  26  -4 6.12907 3.12014   1
   2  26  -3 14.8992 3.56828   1
   2  26  -2  270.01  9.9658   1
   2  26  -1 35.3027 3.97518   1
   2  26   0 31.5653 3.73933   1
   2  26   1 36.3927 2.95873   1
   2  26   2 270.803 12.4174   1
   2  26   3 12.0015 3.63458   1
   2  26   4 3.27581  2.7035   1
   2  26   5 6.42578 3.37344   1
   2  26   6 125.237 4.95075   1
   2  26   7 8.75041 3.40416   1
   2  26   8 43.3348 3.72339   1
   2  27  -2 9.33856 3.69461   1
   2  27  -1 78.4659 4.47782   1
   2  27   0 138.929 5.83531   1
   2  27   1 78.5725 4.19475   1
   2  27   2 8.79136  3.1284   1
   3   0   1 545.242 12.6157   1
   3   0   2 5078.75 116.523   1
   3   0   3 305.222 7.27473   1
   3   0   4 40.2935 1.34741   1
   3   0   5  68.706 2.40734   1
   3   0   6 1969.81  45.645   1
   3   0   7 63.9767 2.10872   1
   3   0   8 655.015 15.3901   1
   3   0   9 269.589 6.66752   1
   3   0  10  37.741 1.98397   1
   3   0  11 6.23923 1.87278   1
   3   0  12 1397.19 32.7477   1
   3   0  13 135.305 4.28741   1
   3   0  14 70.8635 4.03033   1
   3   0  15 278.158 7.13104   1
   3   0  16 1091.56 25.7851   1
   3   0  17 54.5878 2.59535   1
   3   0  18 145.195 4.12346   1
   3   0  19 0.41906 1.02569   1
   3   0  20 299.142 7.94682   1
   3   0  21 329.833 8.74742   1
   3   0  22 123.283 4.47524   1
   3   0  23 26.4472 2.05063   1
   3   0  24 88.5361 2.92889   1
   3   0  25 41.7384  2.3996   1
   3   0  26 132.421 4.46597   1
   3   0  27-1.03651 5.24688   1
   3   0  28 11.0976 2.82205   1
   3   0  29  55.337 4.14006   1
   3   0  30 86.4256 5.13379   1
   3   1 -30 24.8775 5.35689   1
   3   1 -29 24.4463 3.68786   1
   3   1 -28 42.6741 4.24406   1
   3   1 -27 7.31673 2.09694   1
   3   1 -26 66.4705 3.44014   1
   3   1 -25 240.411 6.80172   1
   3   1 -24 54.2633 2.23924   1
   3   1 -23 10.3199 1.48283   1
   3   1 -22 290.303 10.6177   1
   3   1 -21 584.314 14.5028   1
   3   1 -20 40.0474 1.60766   1
   3   1 -19 28.3095 1.50207   1
   3   1 -18 260.186 6.73041   1
   3   1 -17 486.809 12.0628   1
   3   1 -16 127.056 3.45892   1
   3   1 -15 217.433 6.00871   1
   3   1 -14 179.607 5.29302   1
   3   1 -13  444.34 10.9115   1
   3   1 -12 306.685 8.38189   1
   3   1 -11 352.354 9.12492   1
   3   1 -10 93.9054  3.3048   1
   3   1  -9 57.4821 2.37101   1
   3   1  -8 312.423 7.85304   1
   3   1  -7 1592.60 36.9138   1
   3   1  -6  474.87 11.5824   1
   3   1  -5 927.712 21.4616   1
   3   1  -4 1172.19 27.4086   1
   3   1  -3 3858.92 88.7763   1
   3   1  -2 1431.14  32.932   1
   3   1  -1 1219.14 28.1393   1
   3   1   0 368.121 8.58813   1
   3   1   1 1271.83 29.2756   1
   3   1   2 1442.53 33.1579   1
   3   1   3 3841.40 88.3353   1
   3   1   4 1158.59 26.6653   1
   3   1   5 921.983 21.3356   1
   3   1   6 498.851 12.3507   1
   3   1   7 1646.96 38.4935   1
   3   1   8 313.002 7.59723   1
   3   1   9 54.9629  2.1816   1
   3   1  10 88.2224 2.92716   1
   3   1  11  354.35 8.72621   1
   3   1  12 305.901  7.8683   1
   3   1  13  461.77 11.4648   1
   3   1  14 169.148 4.87981   1
   3   1  15 233.071 6.28586   1
   3   1  16 125.885 3.24184   1
   3   1  17 478.595 12.1678   1
   3   1  18 252.846 6.31436   1
   3   1  19 32.1403 1.27192   1
   3   1  20 37.1163 1.65574   1
   3   1  21  594.27 16.4148   1
   3   1  22 279.953 7.34732   1
   3   1  23 8.00201 1.36799   1
   3   1  24 58.2641 2.75698   1
   3   1  25 251.703 7.82348   1
   3   1  26 68.4338 2.79304   1
   3   1  27 5.54772 2.57296   1
   3   1  28 45.2934 3.25265   1
   3   1  29 20.0214 3.02627   1
   3   1  30 28.7668 4.27179   1
   3   2 -29 50.1149 3.90563   1
   3   2 -28 25.2982 3.59053   1
   3   2 -27 155.225 8.11901   1
   3   2 -26 42.4758 2.76056   1
   3   2 -25 107.218 3.74215   1
   3   2 -24 48.5972 2.40454   1
   3   2 -23 645.673 16.6677   1
   3   2 -22 217.404 6.25403   1
   3   2 -21 346.424 9.03968   1
   3   2 -20 141.474 3.92182   1
   3   2 -19 477.687 11.8161   1
   3   2 -18 207.707 6.09323   1
   3   2 -17 101.049   2.792   1
   3   2 -16 67.5866 2.04988   1
   3   2 -15 136.297 4.53793   1
   3   2 -14 158.619 4.92498   1
   3   2 -13 615.827 15.4876   1
   3   2 -12 872.255 21.1763   1
   3   2 -11   36.37 2.27582   1
   3   2 -10 213.794 5.43993   1
   3   2  -9 248.849 6.25759   1
   3   2  -8  86.847 2.67627   1
   3   2  -7  573.34 13.5059   1
   3   2  -6 1021.53 23.7606   1
   3   2  -5 1427.68  33.086   1
   3   2  -4 1269.69 29.2348   1
   3   2  -3 1426.77 32.7709   1
   3   2  -2 897.416 20.7575   1
   3   2  -1 468.811 10.8228   1
   3   2   0 78.6705 2.34664   1
   3   2   1 430.787  10.089   1
   3   2   2 929.809  21.389   1
   3   2   3 1392.97 31.9618   1
   3   2   4 1291.70 29.8085   1
   3   2   5 1449.68 33.7148   1
   3   2   6 1005.04  23.437   1
   3   2   7 584.874 13.7097   1
   3   2   8 75.5788 2.28939   1
   3   2   9 252.467 6.40947   1
   3   2  10  232.24 6.05068   1
   3   2  11 33.0623 2.30287   1
   3   2  12 879.333 20.9007   1
   3   2  13 608.839 16.1267   1
   3   2  14  152.88 5.09982   1
   3   2  15 146.104 4.37893   1
   3   2  16 74.1756 3.64873   1
   3   2  17 113.315 3.05169   1
   3   2  18 216.534 5.41641   1
   3   2  19  449.88 11.1705   1
   3   2  20 147.535 4.31585   1
   3   2  21 328.381 9.02943   1
   3   2  22 211.974 5.90202   1
   3   2  23  681.26 17.5694   1
   3   2  24 55.1146 2.36137   1
   3   2  25 107.198 5.12454   1
   3   2  26  37.061 2.13987   1
   3   2  27 157.354 7.03368   1
   3   2  28 28.5877 3.16744   1
   3   2  29 54.3788 4.36706   1
   3   3 -29 49.4336 3.99136   1
   3   3 -28  168.08 9.47945   1
   3   3 -27 14.4191 2.12173   1
   3   3 -26 200.022 7.34408   1
   3   3 -25 69.5507 2.81233   1
   3   3 -24 47.1618 2.85157   1
   3   3 -23 276.044 7.77652   1
   3   3 -22 926.672 23.5779   1
   3   3 -21 11.7631 1.31391   1
   3   3 -20 85.9393 2.78721   1
   3   3 -19 183.391   4.961   1
   3   3 -18 487.544 14.9852   1
   3   3 -17 47.0036 1.74297   1
   3   3 -16 171.867 4.85941   1
   3   3 -15 164.756 4.83145   1
   3   3 -14 648.519 17.3503   1
   3   3 -13 724.953 17.7642   1
   3   3 -12 127.384 3.86426   1
   3   3 -11 228.866 6.24721   1
   3   3 -10 106.581 3.30182   1
   3   3  -9  309.29 7.55492   1
   3   3  -8 379.892 9.05555   1
   3   3  -7 566.367 13.5183   1
   3   3  -6 48.1357 1.94095   1
   3   3  -5 1034.07 24.0265   1
   3   3  -4 1804.20 41.9893   1
   3   3  -3 245.987 5.96153   1
   3   3  -2 29.0197 1.18429   1
   3   3  -1 295.853 7.11079   1
   3   3   0 2258.96 52.1151   1
   3   3   1 290.623 6.92995   1
   3   3   2 27.5116 1.10264   1
   3   3   3 259.022 6.08484   1
   3   3   4 1886.73  43.298   1
   3   3   5 1045.77 24.1813   1
   3   3   6 50.4815 1.71352   1
   3   3   7 576.074 13.5499   1
   3   3   8  404.86 9.75563   1
   3   3   9 314.994 7.75431   1
   3   3  10 96.9088 3.44959   1
   3   3  11 234.418 6.05122   1
   3   3  12 125.038  3.9836   1
   3   3  13 710.381 17.1872   1
   3   3  14 650.208  15.879   1
   3   3  15 170.596 5.55092   1
   3   3  16 171.468 4.34519   1
   3   3  17 53.1414 2.01195   1
   3   3  18 486.359 11.9003   1
   3   3  19  175.19 5.02138   1
   3   3  20 83.5298 3.02141   1
   3   3  21 16.2486 1.18572   1
   3   3  22 921.721 22.7096   1
   3   3  23 283.801 7.67854   1
   3   3  24 51.5375 3.27052   1
   3   3  25 69.0362 2.75859   1
   3   3  26 205.851 6.27459   1
   3   3  27 6.35122  1.9848   1
   3   3  28 179.764 6.79632   1
   3   3  29 50.0439 3.43881   1
   3   4 -29 41.4431 4.80945   1
   3   4 -28 42.1593 4.72613   1
   3   4 -27  154.52 7.35581   1
   3   4 -26 59.4302 2.74447   1
   3   4 -25 68.3541  3.1946   1
   3   4 -24 139.437 5.63353   1
   3   4 -23 585.189 15.9316   1
   3   4 -22 234.358 6.53425   1
   3   4 -21 161.014 4.95445   1
   3   4 -20 133.283 3.99879   1
   3   4 -19 263.823 6.96828   1
   3   4 -18 66.1851 2.08195   1
   3   4 -17 222.081 6.07346   1
   3   4 -16 152.017 4.79749   1
   3   4 -15 207.508 6.02168   1
   3   4 -14 400.944 10.0384   1
   3   4 -13 480.382 14.0715   1
   3   4 -12 86.8794 3.47911   1
   3   4 -11 50.4693 2.50957   1
   3   4 -10   67.19 2.46448   1
   3   4  -9 5.84346 1.41543   1
   3   4  -8 41.9109 1.76894   1
   3   4  -7 379.444 9.63688   1
   3   4  -6 688.847 16.1181   1
   3   4  -5 474.624 11.2177   1
   3   4  -4 1652.26 38.2469   1
   3   4  -3 655.002 15.1261   1
   3   4  -2 239.859 5.77939   1
   3   4  -1 627.812 14.5075   1
   3   4   0  558.48 12.9248   1
   3   4   1 626.508 14.6579   1
   3   4   2 243.163 6.13345   1
   3   4   3 663.965 15.3985   1
   3   4   4 1682.23 38.6995   1
   3   4   5 451.909 10.6505   1
   3   4   6 716.654 16.7237   1
   3   4   7 366.529   8.804   1
   3   4   8 44.4754 2.21133   1
   3   4   9 3.87645 1.69419   1
   3   4  10 68.3329 3.61096   1
   3   4  11 46.9446 2.90465   1
   3   4  12 92.6935  3.8914   1
   3   4  13 511.341 12.8759   1
   3   4  14 394.774 10.5816   1
   3   4  15 196.249 6.05311   1
   3   4  16 154.354 4.34659   1
   3   4  17 223.247 5.67574   1
   3   4  18  68.219 2.11471   1
   3   4  19 279.111 7.02424   1
   3   4  20 123.697 4.13164   1
   3   4  21 157.933 4.35367   1
   3   4  22 236.521 7.13111   1
   3   4  23 601.733 15.2759   1
   3   4  24 141.044 4.11074   1
   3   4  25 63.2886 2.74844   1
   3   4  26 54.6808 2.54113   1
   3   4  27 153.275 6.06725   1
   3   4  28 36.5062 4.17785   1
   3   4  29 39.5524 4.22232   1
   3   5 -29 65.8103 6.12901   1
   3   5 -28  101.69 5.81091   1
   3   5 -27 49.0329 4.04409   1
   3   5 -26 79.6309  3.7608   1
   3   5 -25 119.672 5.25045   1
   3   5 -24 47.9939 2.38638   1
   3   5 -23 134.674 4.61603   1
   3   5 -22 383.777 10.7641   1
   3   5 -21 407.868 11.1672   1
   3   5 -20  120.29 3.61397   1
   3   5 -19   97.14 3.59873   1
   3   5 -18 101.216  3.0825   1
   3   5 -17 248.917 6.79243   1
   3   5 -16 217.261  6.3439   1
   3   5 -15 486.883 14.9757   1
   3   5 -14  287.90 7.63869   1
   3   5 -13 232.408 6.37033   1
   3   5 -12 193.124 5.48472   1
   3   5 -11 418.331  10.996   1
   3   5 -10 75.4448 2.71839   1
   3   5  -9 56.3572 1.99412   1
   3   5  -8 342.529 8.25066   1
   3   5  -7 685.385 16.6031   1
   3   5  -6 480.886 11.2576   1
   3   5  -5  300.90 7.20585   1
   3   5  -4 469.944 11.0599   1
   3   5  -3 1958.20  44.962   1
   3   5  -2 344.891 8.14424   1
   3   5  -1  298.46 7.07834   1
   3   5   0 490.596 11.4124   1
   3   5   1 344.744 8.04386   1
   3   5   2 337.744 7.96509   1
   3   5   3 1929.15 44.5734   1
   3   5   4 470.774 11.0365   1
   3   5   5 312.439 7.49295   1
   3   5   6 467.989 11.1098   1
   3   5   7 697.768 16.4459   1
   3   5   8  330.28 8.09104   1
   3   5   9 51.5356  2.2693   1
   3   5  10 69.3609 2.78228   1
   3   5  11 452.269 11.7631   1
   3   5  12 207.082 6.01223   1
   3   5  13 217.522 6.05024   1
   3   5  14 296.177 7.45204   1
   3   5  15 493.998 12.0906   1
   3   5  16 204.373 5.23878   1
   3   5  17 224.102 5.80118   1
   3   5  18 110.416 3.14318   1
   3   5  19 99.7599 2.86396   1
   3   5  20 127.166  3.8669   1
   3   5  21 407.468 10.3456   1
   3   5  22 377.606  9.7991   1
   3   5  23 131.438 4.95911   1
   3   5  24 45.7757  3.0232   1
   3   5  25 131.232 4.46526   1
   3   5  26 75.3261 3.23591   1
   3   5  27  44.062 3.55501   1
   3   5  28 98.9601 6.73172   1
   3   5  29 66.2996 4.68537   1
   3   6 -29 16.3904 3.91224   1
   3   6 -28 25.2964  4.2148   1
   3   6 -27 22.9899 6.56229   1
   3   6 -26 99.9787 6.83958   1
   3   6 -25 162.376 6.05724   1
   3   6 -24 182.373 6.55747   1
   3   6 -23  33.446 1.91502   1
   3   6 -22 301.642 9.92403   1
   3   6 -21  147.91 4.52764   1
   3   6 -20 427.836 11.2954   1
   3   6 -19 68.3881  2.1716   1
   3   6 -18 182.487 4.76817   1
   3   6 -17 127.144 3.44278   1
   3   6 -16 546.125 14.4628   1
   3   6 -15 218.559 6.21413   1
   3   6 -14 46.7143 2.60184   1
   3   6 -13 34.1014 2.70933   1
   3   6 -12 342.787 8.81415   1
   3   6 -11  291.25  7.3813   1
   3   6 -10 280.103 7.20613   1
   3   6  -9 154.858 4.34043   1
   3   6  -8 448.231 10.6835   1
   3   6  -7 562.996 13.3891   1
   3   6  -6 1287.46 29.9163   1
   3   6  -5 94.5704 2.77783   1
   3   6  -4 544.134 13.3119   1
   3   6  -3 360.038 8.48716   1
   3   6  -2 3069.06 70.3102   1
   3   6  -1 380.884 9.19304   1
   3   6   0 13.7624 1.04909   1
   3   6   1 378.721 8.97729   1
   3   6   2 3089.84 71.9764   1
   3   6   3 375.106 8.90201   1
   3   6   4 551.241 12.8763   1
   3   6   5  86.616 2.71834   1
   3   6   6 1314.80 30.6387   1
   3   6   7 553.052 13.1812   1
   3   6   8 458.043 11.0619   1
   3   6   9 160.994  4.6344   1
   3   6  10 277.635 7.12185   1
   3   6  11 276.634 7.24382   1
   3   6  12 335.909 8.78376   1
   3   6  13  41.578 1.94498   1
   3   6  14 51.9449 2.60663   1
   3   6  15 226.051 5.63483   1
   3   6  16 559.223  13.566   1
   3   6  17 124.228 3.94835   1
   3   6  18 178.015 4.67021   1
   3   6  19 71.1295 2.92987   1
   3   6  20  432.01  11.371   1
   3   6  21 149.918 4.47321   1
   3   6  22 318.696 8.87102   1
   3   6  23 32.0816 2.47037   1
   3   6  24 172.177 5.02537   1
   3   6  25 151.537  4.7827   1
   3   6  26 96.8111 3.62268   1
   3   6  27 17.2821 3.46772   1
   3   6  28 16.5856 3.54711   1
   3   6  29 13.8362 3.73142   1
   3   7 -29 27.5548 9.96141   1
   3   7 -28 18.3529 4.81222   1
   3   7 -27 15.1636 4.19698   1
   3   7 -26 18.9636 3.31537   1
   3   7 -25 86.7892 4.10406   1
   3   7 -24 159.363 5.85376   1
   3   7 -23  9.6185 2.06436   1
   3   7 -22 39.7558 2.37879   1
   3   7 -21 432.754 12.8103   1
   3   7 -20 47.1719 2.40472   1
   3   7 -19 2.47167 1.10989   1
   3   7 -18 236.323 7.28097   1
   3   7 -17 401.675 10.8521   1
   3   7 -16 37.1371 1.30932   1
   3   7 -15 392.257 13.6011   1
   3   7 -14 182.277  5.4294   1
   3   7 -13 554.322 14.5323   1
   3   7 -12  388.84 9.68968   1
   3   7 -11  764.17 18.3639   1
   3   7 -10 957.563 22.7753   1
   3   7  -9 544.711 13.1489   1
   3   7  -8 209.456 5.40585   1
   3   7  -7 691.447 16.3585   1
   3   7  -6 1123.54 26.0516   1
   3   7  -5 832.486 19.3167   1
   3   7  -4 379.295 9.04478   1
   3   7  -3 2883.27 66.4151   1
   3   7  -2 361.868  8.7015   1
   3   7  -1 804.022  18.663   1
   3   7   0  967.80 22.9322   1
   3   7   1 805.345 18.7398   1
   3   7   2 362.353 8.69658   1
   3   7   3 2884.11 66.7343   1
   3   7   4 386.793 9.26546   1
   3   7   5 815.138 18.9448   1
   3   7   6 1138.62 26.7988   1
   3   7   7 730.086 17.2602   1
   3   7   8 223.039 5.83425   1
   3   7   9 569.472 13.7299   1
   3   7  10  913.18 21.9419   1
   3   7  11 750.158 18.7529   1
   3   7  12 386.464 9.79298   1
   3   7  13 573.629 14.0177   1
   3   7  14 175.902 4.45573   1
   3   7  15 421.925 10.2413   1
   3   7  16 30.4943 1.29902   1
   3   7  17 415.819 10.2928   1
   3   7  18 225.261 7.79521   1
   3   7  19-0.11476 3.27866   1
   3   7  20 43.0499 2.03694   1
   3   7  21 452.056 12.0751   1
   3   7  22 43.2598 1.94449   1
   3   7  23 8.07094 1.75571   1
   3   7  24 157.173  4.7985   1
   3   7  25 81.1997 4.36529   1
   3   7  26 16.3006 2.81884   1
   3   7  27 21.6894 2.76339   1
   3   7  28 15.6762  3.8628   1
   3   8 -28 22.1648 4.30253   1
   3   8 -27 65.7646 7.46605   1
   3   8 -26   10.20 6.00748   1
   3   8 -25 7.18379 4.50817   1
   3   8 -24  103.74 4.13969   1
   3   8 -23 291.227 9.46107   1
   3   8 -22 449.913  13.823   1
   3   8 -21 149.553 4.88145   1
   3   8 -20 12.4305   2.103   1
   3   8 -19 408.476 10.6998   1
   3   8 -18 303.043 7.84843   1
   3   8 -17 181.306 4.81519   1
   3   8 -16 132.837 3.65303   1
   3   8 -15 424.194 10.4874   1
   3   8 -14  356.45 9.25159   1
   3   8 -13 572.097 14.5352   1
   3   8 -12  718.63 17.4849   1
   3   8 -11 394.213 10.0823   1
   3   8 -10 87.5561 2.98172   1
   3   8  -9 392.436 9.57447   1
   3   8  -8 81.5736 2.81071   1
   3   8  -7 74.1761 2.38794   1
   3   8  -6 854.357 19.9283   1
   3   8  -5 1440.32  33.354   1
   3   8  -4 322.663 7.94586   1
   3   8  -3 708.785 16.5426   1
   3   8  -2 985.451 22.8133   1
   3   8  -1 1368.54 31.7982   1
   3   8   0 275.201  6.5763   1
   3   8   1 1359.59 31.5437   1
   3   8   2 960.293 22.3609   1
   3   8   3 718.646 16.8179   1
   3   8   4 308.142 7.53952   1
   3   8   5 1478.15 34.3141   1
   3   8   6 835.028 19.5942   1
   3   8   7  70.729 2.74832   1
   3   8   8 68.1004 2.64777   1
   3   8   9 399.034 10.0846   1
   3   8  10 99.1398 3.68624   1
   3   8  11 376.458 11.2374   1
   3   8  12 724.171 19.1925   1
   3   8  13 570.847 15.4417   1
   3   8  14 382.747 9.41939   1
   3   8  15 433.104 10.6261   1
   3   8  16 121.345  4.4738   1
   3   8  17 189.369 5.52888   1
   3   8  18 311.757 7.86543   1
   3   8  19 402.162  10.255   1
   3   8  20 14.1312 1.32453   1
   3   8  21  148.63 4.44536   1
   3   8  22  452.78 11.9257   1
   3   8  23 314.525 9.18663   1
   3   8  24 94.2598 3.21528   1
   3   8  25 3.28481  2.2117   1
   3   8  26 10.7748 2.76091   1
   3   8  27 70.5063 4.06841   1
   3   8  28 19.8874 3.62068   1
   3   9 -28 100.576 7.85019   1
   3   9 -27 4.94485 3.85868   1
   3   9 -26 125.053 13.7282   1
   3   9 -25 29.1481 3.32008   1
   3   9 -24 48.3459 3.19155   1
   3   9 -23 178.694 6.23643   1
   3   9 -22 498.331 14.9922   1
   3   9 -21 9.23908 1.48074   1
   3   9 -20 136.229 4.50847   1
   3   9 -19 172.862 5.18891   1
   3   9 -18 418.272 11.7759   1
   3   9 -17 2.84335  1.2069   1
   3   9 -16 17.7277 1.21091   1
   3   9 -15  48.501 1.70082   1
   3   9 -14 628.308 15.5786   1
   3   9 -13 298.165 7.99105   1
   3   9 -12  57.949 2.77893   1
   3   9 -11 189.895  5.1477   1
   3   9 -10 394.218   9.877   1
   3   9  -9 123.494 4.83527   1
   3   9  -8 1047.56 24.8535   1
   3   9  -7 87.3113 2.72615   1
   3   9  -6 240.777 6.05708   1
   3   9  -5 928.468 21.5325   1
   3   9  -4 1555.52  35.988   1
   3   9  -3 141.808 3.80349   1
   3   9  -2 321.879 7.84515   1
   3   9  -1 81.8276 2.64778   1
   3   9   0 849.082 20.3563   1
   3   9   1 80.0188 2.22543   1
   3   9   2 316.033 8.00508   1
   3   9   3 146.715 3.87502   1
   3   9   4 1526.46 35.4115   1
   3   9   5 942.108 22.0798   1
   3   9   6 253.302 6.65114   1
   3   9   7 82.1855 2.56674   1
   3   9   8 1056.48 24.9122   1
   3   9   9 140.492 4.44903   1
   3   9  10  390.79 10.0024   1
   3   9  11 187.144 7.18594   1
   3   9  12 51.3355 3.05898   1
   3   9  13 297.153 7.99976   1
   3   9  14 658.365 15.8276   1
   3   9  15 50.9827 1.91077   1
   3   9  16 20.5198 1.16147   1
   3   9  17 5.15535 0.98864   1
   3   9  18 418.018 10.6556   1
   3   9  19 186.365 6.22132   1
   3   9  20 147.459 4.22719   1
   3   9  21 9.61683 1.39631   1
   3   9  22 472.519 12.5922   1
   3   9  23 173.689 6.83056   1
   3   9  24 49.1992 3.04245   1
   3   9  25 26.4817 2.83253   1
   3   9  26 118.574 4.78239   1
   3   9  27 0.20384 3.21253   1
   3   9  28 84.0436  4.4366   1
   3  10 -27 123.609 7.71705   1
   3  10 -26 55.1715 4.47998   1
   3  10 -25 40.8109 3.60226   1
   3  10 -24  80.785 5.13924   1
   3  10 -23 182.505  7.7162   1
   3  10 -22 214.829 8.57524   1
   3  10 -21 104.156  5.4207   1
   3  10 -20 205.241 7.01653   1
   3  10 -19 238.822 6.75519   1
   3  10 -18  24.732 1.49066   1
   3  10 -17   82.74 2.72379   1
   3  10 -16 75.1979 3.18118   1
   3  10 -15 301.374 7.89161   1
   3  10 -14 442.042 11.2513   1
   3  10 -13 148.604 5.07828   1
   3  10 -12 304.316 7.57014   1
   3  10 -11 275.825 7.42866   1
   3  10 -10 256.839 8.16265   1
   3  10  -9  65.243 2.75284   1
   3  10  -8 206.653 7.07787   1
   3  10  -7 434.724 10.8406   1
   3  10  -6 119.316  3.6127   1
   3  10  -5 435.354 10.3801   1
   3  10  -4 1148.51 26.6364   1
   3  10  -3 480.116 11.7906   1
   3  10  -2   74.13 2.98208   1
   3  10  -1 381.006 9.34788   1
   3  10   0 14.1821 1.48842   1
   3  10   1 414.469 10.0965   1
   3  10   2 64.5826 2.31588   1
   3  10   3 501.219 12.0438   1
   3  10   4 1153.72 27.1153   1
   3  10   5 420.376 10.4337   1
   3  10   6 123.414 3.60231   1
   3  10   7 419.783 10.4977   1
   3  10   8 211.899 5.63182   1
   3  10   9 64.5619 2.80324   1
   3  10  10 253.905 7.57627   1
   3  10  11 270.857 8.54325   1
   3  10  12 305.984 7.62612   1
   3  10  13 131.186 3.49366   1
   3  10  14 455.234 11.6509   1
   3  10  15 309.814 9.13399   1
   3  10  16 70.4305 2.30165   1
   3  10  17 88.4374  2.7552   1
   3  10  18 29.4346 1.47723   1
   3  10  19  249.68 6.71185   1
   3  10  20 199.538 5.60049   1
   3  10  21 96.7938  3.2843   1
   3  10  22 208.803 5.98746   1
   3  10  23 172.382 6.97946   1
   3  10  24 76.0444 3.19064   1
   3  10  25 37.8471 3.39534   1
   3  10  26 48.6443 3.12678   1
   3  10  27 117.468 7.19642   1
   3  11 -27 8.26375 2.82541   1
   3  11 -26 106.785  4.7644   1
   3  11 -25 229.556 10.8049   1
   3  11 -24 41.4213 3.01847   1
   3  11 -23 72.6432 3.61428   1
   3  11 -22  204.25 6.90472   1
   3  11 -21 223.629 6.78144   1
   3  11 -20  78.564 2.95809   1
   3  11 -19 274.707 7.83976   1
   3  11 -18 46.7795 2.50942   1
   3  11 -17 95.3997   3.084   1
   3  11 -16 135.951 4.01734   1
   3  11 -15 536.026 14.4603   1
   3  11 -14 84.1515 2.89771   1
   3  11 -13 11.8249 0.98651   1
   3  11 -12 24.3936 1.41117   1
   3  11 -11 451.455 11.6714   1
   3  11 -10  91.905 3.40031   1
   3  11  -9 45.8401 1.76377   1
   3  11  -8 97.4403 3.56111   1
   3  11  -7 238.702 6.44789   1
   3  11  -6 135.752 4.15588   1
   3  11  -5 113.957 3.17375   1
   3  11  -4 304.658  7.4807   1
   3  11  -3 222.976 5.70491   1
   3  11  -2 173.543 4.72345   1
   3  11  -1 644.904 16.4777   1
   3  11   0 32.5594 1.48681   1
   3  11   1  653.34 15.7381   1
   3  11   2  187.35 4.97718   1
   3  11   3 258.634 6.66953   1
   3  11   4 310.144 7.99251   1
   3  11   5 125.677  4.3602   1
   3  11   6 120.541 4.36988   1
   3  11   7 253.078 6.95983   1
   3  11   8 101.454 3.02562   1
   3  11   9 51.1862 1.97422   1
   3  11  10 81.4966 2.41341   1
   3  11  11 460.171 11.2065   1
   3  11  12 26.5586 1.58429   1
   3  11  13 9.07694 1.13704   1
   3  11  14 76.3403 2.36537   1
   3  11  15 526.141 13.6931   1
   3  11  16 136.502  3.9526   1
   3  11  17 102.349 3.53972   1
   3  11  18 53.1125  2.3108   1
   3  11  19 287.699 7.65723   1
   3  11  20 77.8181 2.67205   1
   3  11  21 230.232 7.48269   1
   3  11  22 198.637 6.95326   1
   3  11  23 75.5627 3.15617   1
   3  11  24 32.7575 2.58549   1
   3  11  25 217.789  8.1102   1
   3  11  26 103.813 5.03406   1
   3  11  27 11.3109 4.19071   1
   3  12 -26 42.8971 4.05212   1
   3  12 -25 94.6791  4.9668   1
   3  12 -24 237.213 10.1447   1
   3  12 -23 36.8287 2.84049   1
   3  12 -22 44.5738  3.3878   1
   3  12 -21 31.9988 1.94699   1
   3  12 -20 409.012 11.8536   1
   3  12 -19 43.1308 2.10887   1
   3  12 -18 33.6539 1.85263   1
   3  12 -17 124.191 4.18631   1
   3  12 -16  243.79 6.63445   1
   3  12 -15 148.104 5.32591   1
   3  12 -14 121.693 3.66477   1
   3  12 -13 86.3051 2.47282   1
   3  12 -12  344.71 8.99528   1
   3  12 -11 227.169 6.40743   1
   3  12 -10 179.868 4.64767   1
   3  12  -9 590.903 14.4428   1
   3  12  -8 113.239 3.68901   1
   3  12  -7 531.223 14.0672   1
   3  12  -6 327.494 8.49965   1
   3  12  -5 142.433 3.98227   1
   3  12  -4 50.0334  2.4777   1
   3  12  -3 183.989 5.30058   1
   3  12  -2 580.126 14.6428   1
   3  12  -1 439.664 11.7048   1
   3  12   0 103.851 3.49865   1
   3  12   1 441.783 11.2027   1
   3  12   2  540.93 13.3752   1
   3  12   3 176.661 5.43789   1
   3  12   4 55.8386 3.03442   1
   3  12   5 144.082 5.00063   1
   3  12   6 345.849  11.455   1
   3  12   7  535.67 14.4868   1
   3  12   8 111.482 2.92256   1
   3  12   9 590.399 14.2794   1
   3  12  10 186.464 5.56632   1
   3  12  11 226.912 5.78962   1
   3  12  12 329.397 9.48368   1
   3  12  13 85.6402 2.59717   1
   3  12  14 127.352 5.23173   1
   3  12  15 145.221 4.09129   1
   3  12  16 255.342 7.41772   1
   3  12  17 123.019 4.00238   1
   3  12  18 30.9888 2.25882   1
   3  12  19 43.3224 2.27171   1
   3  12  20 370.824 10.4645   1
   3  12  21 33.9193 2.26891   1
   3  12  22 47.1311 2.55631   1
   3  12  23 38.8608 2.77504   1
   3  12  24 235.688 10.5799   1
   3  12  25 93.3575 4.46079   1
   3  12  26 45.4066 4.08684   1
   3  13 -26-0.19077 6.46658   1
   3  13 -25 181.918 7.18124   1
   3  13 -24 150.499 6.32144   1
   3  13 -23 38.8136 4.03155   1
   3  13 -22 45.5077 2.65427   1
   3  13 -21  346.77 9.86372   1
   3  13 -20 11.7313 1.66835   1
   3  13 -19 28.4995 1.66988   1
   3  13 -18 199.753 5.66545   1
   3  13 -17 120.489 3.60975   1
   3  13 -16 15.3136 1.42032   1
   3  13 -15 407.955 10.7926   1
   3  13 -14 133.937 4.33254   1
   3  13 -13 98.6897 2.80197   1
   3  13 -12  173.04 4.91763   1
   3  13 -11 138.936 5.38346   1
   3  13 -10 479.566 12.1007   1
   3  13  -9 379.942 10.0591   1
   3  13  -8  164.29 4.79529   1
   3  13  -7 697.278 17.3325   1
   3  13  -6 587.001 15.3952   1
   3  13  -5 214.499 6.09294   1
   3  13  -4 226.368  6.0588   1
   3  13  -3 460.232 11.2524   1
   3  13  -2 131.827 3.30664   1
   3  13  -1 557.481 14.1433   1
   3  13   0  314.10  8.3945   1
   3  13   1 549.452  13.729   1
   3  13   2 112.267 3.61117   1
   3  13   3 447.661 11.9401   1
   3  13   4 232.797 6.55663   1
   3  13   5 215.388 5.99352   1
   3  13   6 617.067 15.2903   1
   3  13   7 767.573 18.8131   1
   3  13   8 170.408 4.62799   1
   3  13   9 373.633 10.3301   1
   3  13  10 466.784 11.6876   1
   3  13  11  121.52  3.5445   1
   3  13  12 167.999  4.9934   1
   3  13  13 100.079 4.56973   1
   3  13  14 140.334 5.57216   1
   3  13  15 430.879 11.4057   1
   3  13  16 17.2542 1.52647   1
   3  13  17 127.143 3.79607   1
   3  13  18 197.639 5.77921   1
   3  13  19 29.3155 2.05264   1
   3  13  20 18.7084 2.10125   1
   3  13  21 345.908 9.79143   1
   3  13  22  43.837 2.69716   1
   3  13  23 38.2801 3.95847   1
   3  13  24 160.204 10.3913   1
   3  13  25 191.974 14.9083   1
   3  13  26 5.52464 3.23135   1
   3  14 -25  30.272 7.67151   1
   3  14 -24 104.166  6.8654   1
   3  14 -23 108.573  10.194   1
   3  14 -22 123.394 8.68808   1
   3  14 -21 148.384 5.45068   1
   3  14 -20 91.4623  5.0853   1
   3  14 -19  198.39  6.2883   1
   3  14 -18 125.269  4.0423   1
   3  14 -17 157.272 4.97901   1
   3  14 -16 46.9379 2.01949   1
   3  14 -15 268.366  7.5551   1
   3  14 -14 194.326 5.70138   1
   3  14 -13 287.582 8.52937   1
   3  14 -12 199.732 6.09367   1
   3  14 -11 110.806 3.19393   1
   3  14 -10 98.7505 3.40784   1
   3  14  -9 807.596 19.8263   1
   3  14  -8 161.417 4.23882   1
   3  14  -7 109.812 2.92895   1
   3  14  -6 644.211  17.468   1
   3  14  -5 1122.55 27.8458   1
   3  14  -4 355.712 9.09185   1
   3  14  -3 284.015 7.48605   1
   3  14  -2 157.587 4.59959   1
   3  14  -1 700.112 17.3496   1
   3  14   0   45.98 2.65749   1
   3  14   1 682.663 18.6263   1
   3  14   2 150.662 4.00168   1
   3  14   3 263.186  7.7237   1
   3  14   4 376.905 9.58117   1
   3  14   5 1161.57 28.4788   1
   3  14   6 649.135 16.1383   1
   3  14   7 112.656 3.15857   1
   3  14   8 152.038 4.21818   1
   3  14   9 807.203 20.5868   1
   3  14  10 109.595 3.64481   1
   3  14  11 105.956 3.19909   1
   3  14  12 193.844 5.25112   1
   3  14  13 280.177 7.40674   1
   3  14  14 191.785 5.41912   1
   3  14  15 272.139 7.58504   1
   3  14  16 44.9815 2.07478   1
   3  14  17 159.991 4.73785   1
   3  14  18 138.617 4.36837   1
   3  14  19 186.899 5.84556   1
   3  14  20 88.7322 4.39932   1
   3  14  21 137.632 5.24701   1
   3  14  22 111.301 4.32882   1
   3  14  23 113.169 5.96753   1
   3  14  24 103.259 7.29838   1
   3  14  25 22.8536 3.78607   1
   3  15 -24 84.4603 5.95999   1
   3  15 -23 37.8218  5.2612   1
   3  15 -22 86.6953  4.6787   1
   3  15 -21 24.4096 2.23579   1
   3  15 -20 78.5906 3.19382   1
   3  15 -19 87.2354 4.67063   1
   3  15 -18 283.071 8.42853   1
   3  15 -17 25.0947 1.91804   1
   3  15 -16 34.7271 2.85371   1
   3  15 -15 49.8297 4.64972   1
   3  15 -14 610.027 16.2553   1
   3  15 -13 289.393 9.23555   1
   3  15 -12 17.5014 1.27165   1
   3  15 -11 422.695 13.0501   1
   3  15 -10 800.274 20.4102   1
   3  15  -9  8.5322 0.94828   1
   3  15  -8 212.627 5.61893   1
   3  15  -7 116.363 4.46737   1
   3  15  -6 199.038 5.46584   1
   3  15  -5 540.172 13.1076   1
   3  15  -4 1469.95 37.2616   1
   3  15  -3 126.881 4.87813   1
   3  15  -2 253.206 6.47535   1
   3  15  -1 62.2261 1.94589   1
   3  15   0 1005.51 25.5943   1
   3  15   1 54.4624 1.78454   1
   3  15   2  240.40 6.22728   1
   3  15   3 129.035 3.63117   1
   3  15   4 1480.15 35.6715   1
   3  15   5 520.073 16.5466   1
   3  15   6 201.551   5.442   1
   3  15   7 121.364  4.3258   1
   3  15   8 211.541 6.09602   1
   3  15   9 6.67284 1.73477   1
   3  15  10  815.16 20.9673   1
   3  15  11 418.491 11.1115   1
   3  15  12 16.6647 2.72507   1
   3  15  13 307.003 8.53567   1
   3  15  14 617.623 16.3461   1
   3  15  15 44.2375 2.08373   1
   3  15  16 37.5586 2.05651   1
   3  15  17 26.1634 1.83885   1
   3  15  18 293.855 9.33172   1
   3  15  19 96.3605 4.31821   1
   3  15  20 84.9696 3.40055   1
   3  15  21 18.7822 2.36974   1
   3  15  22 84.5083 5.38834   1
   3  15  23  35.431 3.47567   1
   3  15  24 82.0196 4.69664   1
   3  16 -23 100.868  9.8632   1
   3  16 -22 72.8003 4.39786   1
   3  16 -21 4.52411 3.44055   1
   3  16 -20 115.503 4.41873   1
   3  16 -19 184.867 6.23017   1
   3  16 -18 43.8969  2.5879   1
   3  16 -17 27.7493  2.8161   1
   3  16 -16 128.075 5.57352   1
   3  16 -15 375.858 12.1258   1
   3  16 -14 138.058 4.47825   1
   3  16 -13 186.352 5.39384   1
   3  16 -12 99.3291 3.89511   1
   3  16 -11 216.574 6.09927   1
   3  16 -10 81.5263 3.77094   1
   3  16  -9 317.755 9.42953   1
   3  16  -8  110.05 7.86397   1
   3  16  -7  52.466 2.52714   1
   3  16  -6 24.6652 1.19828   1
   3  16  -5 507.674 12.6179   1
   3  16  -4 86.2825 2.78824   1
   3  16  -3 225.508 6.53181   1
   3  16  -2 79.0452 2.40217   1
   3  16  -1 426.504 11.9158   1
   3  16   0  34.984 1.44653   1
   3  16   1 436.953 13.1998   1
   3  16   2 77.3558  3.1269   1
   3  16   3 197.055 8.95323   1
   3  16   4  85.526 2.77047   1
   3  16   5 511.626 13.4614   1
   3  16   6 26.2177 1.51708   1
   3  16   7 55.4163 2.05218   1
   3  16   8 111.955 4.94042   1
   3  16   9 311.927 8.60087   1
   3  16  10  89.647 4.04419   1
   3  16  11 228.128 6.48528   1
   3  16  12 100.005 3.41334   1
   3  16  13  179.43 5.51579   1
   3  16  14 150.737  4.7022   1
   3  16  15  363.96 11.1342   1
   3  16  16 131.522 4.16008   1
   3  16  17 30.9841 2.30113   1
   3  16  18 42.2128 2.35285   1
   3  16  19 185.003 6.09379   1
   3  16  20 119.235 4.37029   1
   3  16  21 7.39514 2.74607   1
   3  16  22 76.2443 5.64293   1
   3  16  23 109.323 5.27154   1
   3  17 -23  51.989 3.93543   1
   3  17 -22 46.0266 4.42745   1
   3  17 -21 116.898 7.40871   1
   3  17 -20 112.062  4.8525   1
   3  17 -19 191.512 6.55758   1
   3  17 -18 12.1137 2.08253   1
   3  17 -17 96.0524 4.34629   1
   3  17 -16 49.5981 2.62551   1
   3  17 -15 295.313 11.6505   1
   3  17 -14  63.466 3.17767   1
   3  17 -13 1.76854 1.62613   1
   3  17 -12 43.2313 2.24597   1
   3  17 -11 526.245 14.6773   1
   3  17 -10 62.8664 2.49748   1
   3  17  -9 16.2401 1.42021   1
   3  17  -8 96.3827 3.09764   1
   3  17  -7 564.051 14.7646   1
   3  17  -6 30.6697 1.71945   1
   3  17  -5 22.5821 1.67987   1
   3  17  -4 263.276 6.89801   1
   3  17  -3 59.0669 2.34254   1
   3  17  -2 22.2802 1.26947   1
   3  17  -1 117.488 3.31846   1
   3  17   0 87.3825 2.76991   1
   3  17   1 111.728 3.28115   1
   3  17   2  25.879 1.34701   1
   3  17   3  66.129 2.19647   1
   3  17   4 253.029 7.23583   1
   3  17   5 19.1035 1.79607   1
   3  17   6 30.1086 1.54013   1
   3  17   7 560.974 14.7372   1
   3  17   8 100.606 3.72299   1
   3  17   9 13.1249 2.46356   1
   3  17  10 60.5001 5.69548   1
   3  17  11 548.039 15.5681   1
   3  17  12 42.6687 3.45878   1
   3  17  13 5.61705 2.18385   1
   3  17  14 65.8008 2.98002   1
   3  17  15 302.831 9.22807   1
   3  17  16  51.902 2.46534   1
   3  17  17 103.863 3.75739   1
   3  17  18 9.86928 1.91202   1
   3  17  19 193.427 8.85398   1
   3  17  20 114.743 4.78153   1
   3  17  21 127.457  6.8102   1
   3  17  22 41.6674  3.4738   1
   3  17  23 54.0387 6.32329   1
   3  18 -22 4.88172 2.96997   1
   3  18 -21  9.8954 2.74866   1
   3  18 -20 183.914 7.02227   1
   3  18 -19  98.808 5.78682   1
   3  18 -18 22.0963 2.88637   1
   3  18 -17 73.2664 3.91645   1
   3  18 -16 313.841 10.4197   1
   3  18 -15  11.339  2.3744   1
   3  18 -14 30.0096 2.46242   1
   3  18 -13 19.3904 1.77345   1
   3  18 -12 223.057 9.19483   1
   3  18 -11 142.099 6.40183   1
   3  18 -10 200.404 6.52015   1
   3  18  -9 209.254 8.32973   1
   3  18  -8 80.3059 3.49351   1
   3  18  -7 244.305 10.2499   1
   3  18  -6 132.215 4.98365   1
   3  18  -5 10.1298 1.46834   1
   3  18  -4 6.88904 1.15603   1
   3  18  -3 27.9143 2.27405   1
   3  18  -2 227.429  6.0593   1
   3  18  -1 95.3935 2.93765   1
   3  18   0 41.0856 1.68094   1
   3  18   1 93.0596 2.84049   1
   3  18   2 213.472 5.62279   1
   3  18   3 25.8836 2.10646   1
   3  18   4 8.53673 1.16023   1
   3  18   5 6.04897 1.14264   1
   3  18   6 139.495 4.17275   1
   3  18   7 219.385 6.40667   1
   3  18   8  83.589  4.8438   1
   3  18   9 209.917 6.65458   1
   3  18  10 201.876 7.82385   1
   3  18  11 145.585  5.1898   1
   3  18  12 199.259 6.72321   1
   3  18  13 21.0335 2.62724   1
   3  18  14 27.1383 2.47668   1
   3  18  15  7.8446 2.65882   1
   3  18  16 315.746 10.8946   1
   3  18  17 76.8813 3.49631   1
   3  18  18 20.5108 3.60182   1
   3  18  19 99.8271 5.38257   1
   3  18  20 201.499 8.43216   1
   3  18  21 14.8347 3.60719   1
   3  18  22 1.37427 3.63995   1
   3  19 -20  48.474  4.1065   1
   3  19 -19   60.52 3.91892   1
   3  19 -18 127.612  6.1205   1
   3  19 -17 76.5852 4.73904   1
   3  19 -16 27.4197 2.77415   1
   3  19 -15 288.438 10.1903   1
   3  19 -14 217.433 10.9743   1
   3  19 -13 10.2779 1.93322   1
   3  19 -12 108.348 6.62865   1
   3  19 -11 176.931 6.09153   1
   3  19 -10  254.65 8.04835   1
   3  19  -9 375.158  16.049   1
   3  19  -8 109.821 3.72856   1
   3  19  -7 199.564  5.8142   1
   3  19  -6 268.969 8.28654   1
   3  19  -5 74.9378 2.64329   1
   3  19  -4 33.5964 1.83967   1
   3  19  -3 96.1355 2.98305   1
   3  19  -2  16.795  1.4433   1
   3  19  -1 12.5955 1.76708   1
   3  19   0 183.097 6.00758   1
   3  19   1 16.3213   1.403   1
   3  19   2 16.2713 1.23734   1
   3  19   3 90.3468 3.71148   1
   3  19   4 36.1626 2.98997   1
   3  19   5  67.122 3.10197   1
   3  19   6 259.672 7.74064   1
   3  19   7 227.293 9.62367   1
   3  19   8 119.211 4.14907   1
   3  19   9 369.105 10.8644   1
   3  19  10  247.91 11.2193   1
   3  19  11  151.09 5.61122   1
   3  19  12 106.666 5.42678   1
   3  19  13 16.9881  2.0597   1
   3  19  14  215.59 7.05876   1
   3  19  15 287.457 9.62892   1
   3  19  16 34.5196  2.7463   1
   3  19  17 67.2897 5.93692   1
   3  19  18 133.098 9.90758   1
   3  19  19 56.2224 4.43122   1
   3  19  20  51.171 6.44203   1
   3  20 -19 106.742 8.17207   1
   3  20 -18  41.968 3.60827   1
   3  20 -17  38.721 4.02724   1
   3  20 -16  20.722 3.19411   1
   3  20 -15 82.2601 4.42937   1
   3  20 -14 112.165 4.70397   1
   3  20 -13 233.536 7.43606   1
   3  20 -12 6.43818 2.27359   1
   3  20 -11 29.0037 4.29038   1
   3  20 -10 95.1399 5.80392   1
   3  20  -9 521.594  15.533   1
   3  20  -8 145.861 5.56231   1
   3  20  -7 20.5181 2.28074   1
   3  20  -6 138.121 5.92411   1
   3  20  -5 465.389 13.0054   1
   3  20  -4 48.4383 2.48619   1
   3  20  -3  268.53 7.43453   1
   3  20  -2 5.24036 1.38104   1
   3  20  -1 212.803 6.66096   1
   3  20   0 111.712 3.42943   1
   3  20   1 192.686 7.57048   1
   3  20   2 5.11557 1.28072   1
   3  20   3 249.588 6.86093   1
   3  20   4 43.5409 1.90563   1
   3  20   5 470.737 12.5909   1
   3  20   6 141.959 5.12237   1
   3  20   7 22.3085 1.91108   1
   3  20   8 132.043    6.31   1
   3  20   9 517.826 15.4793   1
   3  20  10 100.103 5.29601   1
   3  20  11 31.4804  2.4878   1
   3  20  12 8.07487 1.92666   1
   3  20  13 216.378 8.56134   1
   3  20  14 111.415 5.05457   1
   3  20  15 81.6862 5.41666   1
   3  20  16 14.1182 2.92164   1
   3  20  17 41.0443 4.76609   1
   3  20  18 44.8566 3.83907   1
   3  20  19 100.402 5.40781   1
   3  21 -18  133.54 12.0851   1
   3  21 -17 25.5917  5.1481   1
   3  21 -16 7.58113 2.82512   1
   3  21 -15 7.82684 3.43412   1
   3  21 -14 258.872 18.4396   1
   3  21 -13 89.0749  4.2763   1
   3  21 -12 39.4814  3.0793   1
   3  21 -11  128.08 7.28209   1
   3  21 -10 390.083 12.5536   1
   3  21  -9 124.871 5.17699   1
   3  21  -8 203.014 12.4938   1
   3  21  -7 44.7417 2.45625   1
   3  21  -6  320.31 9.11822   1
   3  21  -5 159.866 4.95626   1
   3  21  -4 217.396 8.48094   1
   3  21  -3 1.31004 2.68071   1
   3  21  -2 6.98881 1.90102   1
   3  21  -1 34.3187 3.04888   1
   3  21   0 457.005 12.5255   1
   3  21   1 33.0742 2.69482   1
   3  21   2 6.11664  1.5671   1
   3  21   3 2.25854 1.49754   1
   3  21   4 209.451 5.94828   1
   3  21   5 163.442 4.93824   1
   3  21   6 320.965 8.99347   1
   3  21   7 43.9961 2.23066   1
   3  21   8 206.039 6.49292   1
   3  21   9 119.382 6.24856   1
   3  21  10 394.154 11.7043   1
   3  21  11 122.071 4.50889   1
   3  21  12 38.8595 3.37517   1
   3  21  13 81.4724 4.08528   1
   3  21  14 256.014 9.15006   1
   3  21  15 7.45468 4.26019   1
   3  21  16 5.27823 2.98298   1
   3  21  17 16.0008  3.9652   1
   3  21  18 143.871  6.3996   1
   3  22 -16 57.3066 5.85237   1
   3  22 -15 78.8801 5.88505   1
   3  22 -14 80.7122  6.5657   1
   3  22 -13 109.668 8.42661   1
   3  22 -12  145.75 10.7522   1
   3  22 -11 141.763 10.8723   1
   3  22 -10 109.559 8.81107   1
   3  22  -9 169.545 8.56802   1
   3  22  -8  194.56 6.78638   1
   3  22  -7 46.1286 2.67471   1
   3  22  -6 41.6807  2.4032   1
   3  22  -5 270.675 7.93356   1
   3  22  -4 102.668 3.72134   1
   3  22  -3 60.5146 3.72248   1
   3  22  -2 36.5973 2.30622   1
   3  22  -1 151.022 5.33678   1
   3  22   0 83.6512 3.68712   1
   3  22   1 156.161  4.6241   1
   3  22   2 40.8585 3.19454   1
   3  22   3 63.5142 3.34644   1
   3  22   4 103.594 3.54705   1
   3  22   5 269.324 11.3823   1
   3  22   6 40.7898 3.14883   1
   3  22   7 47.6306 2.33078   1
   3  22   8 197.829 6.50551   1
   3  22   9 158.857 5.57968   1
   3  22  10 104.031  4.9455   1
   3  22  11 137.848 5.23556   1
   3  22  12 152.115 6.41508   1
   3  22  13 119.394 7.56126   1
   3  22  14 86.6623  5.5377   1
   3  22  15 62.3604 3.86782   1
   3  22  16 58.7646 4.37298   1
   3  23 -14  41.903 6.25209   1
   3  23 -13 1.57122 3.42492   1
   3  23 -12 38.8753  4.0637   1
   3  23 -11 234.138 11.5148   1
   3  23 -10 119.671 6.56042   1
   3  23  -9  23.034 3.42414   1
   3  23  -8 102.593 4.86602   1
   3  23  -7  228.77 8.16026   1
   3  23  -6 30.3595 2.67385   1
   3  23  -5   0.079 2.27036   1
   3  23  -4 99.4885 3.85518   1
   3  23  -3 153.561 5.25421   1
   3  23  -2 47.1245 3.32964   1
   3  23  -1 92.9313 5.60781   1
   3  23   0 252.255 8.90458   1
   3  23   1 91.4449 4.29536   1
   3  23   2 51.1099 3.37607   1
   3  23   3 153.953 5.47086   1
   3  23   4 104.161 3.89151   1
   3  23   5 0.06222 2.31306   1
   3  23   6 28.4197 2.36867   1
   3  23   7 220.737 8.01069   1
   3  23   8 100.776 5.29314   1
   3  23   9  24.532 4.33225   1
   3  23  10 128.023 6.20588   1
   3  23  11 241.807   8.464   1
   3  23  12 34.4912 3.70494   1
   3  23  13-3.07991  7.4002   1
   3  23  14 50.5408  4.1795   1
   3  24 -12 80.8037 6.38808   1
   3  24 -11  144.27 7.88257   1
   3  24 -10 162.798 14.4467   1
   3  24  -9 33.0539 3.88667   1
   3  24  -8 218.048 8.62197   1
   3  24  -7 154.481 8.58897   1
   3  24  -6 33.3682  3.3799   1
   3  24  -5 11.2257 2.95351   1
   3  24  -4  31.715 3.21489   1
   3  24  -3 2.07708 2.80727   1
   3  24  -2 102.164 3.96401   1
   3  24  -1  46.703  2.6808   1
   3  24   0 3.88176 2.32183   1
   3  24   1 43.5309 3.54728   1
   3  24   2 94.6903 4.25296   1
   3  24   3 0.71132 2.22059   1
   3  24   4 33.4809 3.23888   1
   3  24   5 9.58352 2.53283   1
   3  24   6 39.4713 3.66365   1
   3  24   7 139.193 5.41186   1
   3  24   8 218.443 8.03788   1
   3  24   9 37.4224 3.00783   1
   3  24  10 152.494 5.91587   1
   3  24  11 144.121  7.2851   1
   3  24  12 67.2627 5.85523   1
   3  25  -9 134.801 11.4769   1
   3  25  -8 59.3954 5.50014   1
   3  25  -7 118.232 6.09636   1
   3  25  -6 80.6241 6.73366   1
   3  25  -5 7.52725 3.34558   1
   3  25  -4 5.43167 4.64951   1
   3  25  -3 43.9192 3.79503   1
   3  25  -2 0.50162 2.35184   1
   3  25  -1 10.2137 2.72357   1
   3  25   0 68.2816 4.95849   1
   3  25   1 11.0301 2.41074   1
   3  25   2-2.19979 7.17009   1
   3  25   3 44.8029 3.41851   1
   3  25   4 5.27929 2.76456   1
   3  25   5 5.56331 3.48771   1
   3  25   6 91.8217 6.07366   1
   3  25   7  130.73 5.87355   1
   3  25   8 58.1085 4.59515   1
   3  25   9 115.534 5.87598   1
   3  26  -5 45.5675  4.5997   1
   3  26  -4 17.9893 2.70859   1
   3  26  -3 70.0034 4.75662   1
   3  26  -2-2.79831 8.39795   1
   3  26  -1 38.2903 3.80188   1
   3  26   0 63.9505 4.00886   1
   3  26   1  39.079 3.06865   1
   3  26   2 3.70698 3.32801   1
   3  26   3 75.3921 4.42312   1
   3  26   4 17.3253 3.76645   1
   3  26   5 42.6939 4.31103   1
   4   0   0 83.7037 4.30092   1
   4   0   1 331.194 7.90569   1
   4   0   2 1510.71 34.7134   1
   4   0   3 5.68963   1.262   1
   4   0   4 4245.54 96.6573   1
   4   0   5 1573.26 36.2707   1
   4   0   6 405.809 9.72144   1
   4   0   7 0.19774 1.61913   1
   4   0   8 211.867 5.54081   1
   4   0   9  61.691 2.65077   1
   4   0  10 1594.55 37.5041   1
   4   0  11 1553.73 38.8879   1
   4   0  12 184.988 5.11633   1
   4   0  13 1297.72 30.7439   1
   4   0  14 1876.72 48.9285   1
   4   0  15 56.1749 2.67828   1
   4   0  16 14.4702 1.74116   1
   4   0  17 0.86786 0.87443   1
   4   0  18 107.747   3.074   1
   4   0  19  20.701  1.3504   1
   4   0  20 379.137 10.3914   1
   4   0  21  44.308 1.88669   1
   4   0  22  403.44 11.1025   1
   4   0  23 2.58582 2.22524   1
   4   0  24  23.719 2.98752   1
   4   0  25 6.08071 1.69954   1
   4   0  26 2.42068 2.15352   1
   4   0  27 13.2631 3.14681   1
   4   0  28 84.8668 4.77998   1
   4   0  29 128.247 6.67274   1
   4   1 -29 31.4422 3.45396   1
   4   1 -28 6.34026   3.586   1
   4   1 -27 59.6922 5.37489   1
   4   1 -26  19.003 2.58808   1
   4   1 -25 -1.4283 4.57364   1
   4   1 -24 96.3586 4.81335   1
   4   1 -23 216.403 7.29924   1
   4   1 -22 26.6833 1.70424   1
   4   1 -21 46.9291 1.92235   1
   4   1 -20 79.6463 3.13574   1
   4   1 -19 260.632 6.85284   1
   4   1 -18 26.3529  1.2323   1
   4   1 -17 29.2282 1.70199   1
   4   1 -16 107.803  2.8832   1
   4   1 -15 715.142 17.0989   1
   4   1 -14  315.19  8.3873   1
   4   1 -13 664.719 16.4305   1
   4   1 -12 783.632 19.4474   1
   4   1 -11  199.59 6.14064   1
   4   1 -10 540.381 13.1149   1
   4   1  -9 558.363 13.4186   1
   4   1  -8 97.4106 3.08459   1
   4   1  -7 40.9314 1.98925   1
   4   1  -6 1072.02 24.9118   1
   4   1  -5 1909.63   43.76   1
   4   1  -4 430.788 10.1017   1
   4   1  -3 475.331 11.1045   1
   4   1  -2 601.017 14.0616   1
   4   1  -1 1084.42 25.1166   1
   4   1   0 23.6483 1.35117   1
   4   1   1 1069.61  24.793   1
   4   1   2 624.426 14.5483   1
   4   1   3 482.322 11.4043   1
   4   1   4 436.234   10.22   1
   4   1   5 1933.09 44.4506   1
   4   1   6 1086.20 25.3896   1
   4   1   7 38.5648 2.00997   1
   4   1   8  94.048 3.11111   1
   4   1   9 560.038 13.4433   1
   4   1  10 567.587 13.8472   1
   4   1  11 196.741 5.50652   1
   4   1  12 754.996 19.5767   1
   4   1  13  642.76 16.7684   1
   4   1  14  300.33 8.22386   1
   4   1  15 724.232 18.5413   1
   4   1  16  106.57 2.93115   1
   4   1  17 31.4008 1.24178   1
   4   1  18 28.5063 1.58195   1
   4   1  19 259.728 7.19431   1
   4   1  20 82.5439 2.81918   1
   4   1  21 41.6255 1.79264   1
   4   1  22 27.2734 1.84239   1
   4   1  23 216.006 6.13698   1
   4   1  24 102.925 3.78302   1
   4   1  25-1.89891 5.94781   1
   4   1  26 14.4618 2.62157   1
   4   1  27 46.8251 3.55561   1
   4   1  28 6.28131 2.85154   1
   4   1  29 31.8821 4.30159   1
   4   2 -28 10.0017 3.11978   1
   4   2 -27 12.8184 2.66839   1
   4   2 -26 16.8428 2.49233   1
   4   2 -25 193.516 6.43174   1
   4   2 -24 129.934 5.40127   1
   4   2 -23 61.0299 2.68419   1
   4   2 -22 9.66552 2.24815   1
   4   2 -21 241.022 6.43503   1
   4   2 -20 3.64652 1.16777   1
   4   2 -19 82.7329 2.84236   1
   4   2 -18 155.971 5.29944   1
   4   2 -17 138.846 4.00597   1
   4   2 -16 67.7451 3.00306   1
   4   2 -15  800.18  19.743   1
   4   2 -14 415.309 10.4638   1
   4   2 -13 237.036  7.0384   1
   4   2 -12 189.282 5.42858   1
   4   2 -11 685.128 16.5265   1
   4   2 -10 547.022 13.9026   1
   4   2  -9 90.5741 3.15049   1
   4   2  -8  234.04 6.08506   1
   4   2  -7 828.905 19.5257   1
   4   2  -6 555.439 13.0932   1
   4   2  -5 235.797 5.76706   1
   4   2  -4 561.773 13.0854   1
   4   2  -3  503.40 11.8176   1
   4   2  -2  71.277 2.13368   1
   4   2  -1 286.187 6.96956   1
   4   2   0  495.46 11.6003   1
   4   2   1 291.031 7.19733   1
   4   2   2 68.4164 2.14495   1
   4   2   3 528.584 12.3094   1
   4   2   4  537.80 12.4988   1
   4   2   5 235.608 5.76953   1
   4   2   6 556.466 12.9957   1
   4   2   7 855.186 19.9888   1
   4   2   8 227.876 6.54672   1
   4   2   9 85.3001  3.2087   1
   4   2  10 550.851 13.4699   1
   4   2  11 718.882 17.2602   1
   4   2  12 196.464 5.66912   1
   4   2  13 231.209  8.3523   1
   4   2  14 416.335 10.0647   1
   4   2  15 782.698 20.4015   1
   4   2  16 65.4564 2.28955   1
   4   2  17 138.658 3.90303   1
   4   2  18 159.575 4.36034   1
   4   2  19 83.5359  2.7181   1
   4   2  20 1.79741 1.01132   1
   4   2  21 248.832 6.70937   1
   4   2  22  10.516 1.46167   1
   4   2  23 59.0878 2.59755   1
   4   2  24 111.754 4.49904   1
   4   2  25 203.481 6.02545   1
   4   2  26 20.0464 2.63377   1
   4   2  27 10.9377 2.60039   1
   4   2  28 15.3779 3.01056   1
   4   3 -28 38.8912 5.00906   1
   4   3 -27 11.1854 3.67699   1
   4   3 -26 86.1103 3.89872   1
   4   3 -25 11.9389 2.23112   1
   4   3 -24 275.687 7.83155   1
   4   3 -23 35.8866 2.09557   1
   4   3 -22  60.182 2.67085   1
   4   3 -21 37.2316 2.96486   1
   4   3 -20  342.01 8.95864   1
   4   3 -19 26.4275 1.32213   1
   4   3 -18 18.3981 1.10986   1
   4   3 -17 26.8476 1.27594   1
   4   3 -16 725.197  17.998   1
   4   3 -15 736.777 19.2456   1
   4   3 -14 185.657 5.71318   1
   4   3 -13  42.321 2.69781   1
   4   3 -12 449.494 11.6302   1
   4   3 -11 188.415 5.69365   1
   4   3 -10 321.801 8.04395   1
   4   3  -9  0.7172 2.67003   1
   4   3  -8  282.70 7.09353   1
   4   3  -7 224.674 5.84121   1
   4   3  -6 767.406  17.945   1
   4   3  -5 7.76174 1.56593   1
   4   3  -4 480.192 11.2604   1
   4   3  -3 131.262 3.49625   1
   4   3  -2 918.107  21.253   1
   4   3  -1 30.5232 1.35035   1
   4   3   0 3.76006 1.09434   1
   4   3   1  33.173   1.708   1
   4   3   2 937.528 21.6588   1
   4   3   3 134.877 3.54836   1
   4   3   4 482.611 11.2902   1
   4   3   5 6.48943 1.21239   1
   4   3   6 779.841 18.1234   1
   4   3   7 237.178 6.28173   1
   4   3   8 267.362 6.78513   1
   4   3   9 1.89861 2.14813   1
   4   3  10  318.08  9.1216   1
   4   3  11 184.757 5.59223   1
   4   3  12 460.792 12.2201   1
   4   3  13 42.1447 2.35949   1
   4   3  14 186.626 5.33735   1
   4   3  15  749.43 17.9116   1
   4   3  16 726.292 17.6384   1
   4   3  17 26.8167  1.2562   1
   4   3  18 16.4457 1.14356   1
   4   3  19 31.2615 1.43371   1
   4   3  20 343.724 8.89701   1
   4   3  21 35.6623 1.69204   1
   4   3  22 63.8152 2.99312   1
   4   3  23 35.2517 1.85284   1
   4   3  24 271.649  8.1031   1
   4   3  25 11.1661 2.03808   1
   4   3  26 90.6613 4.12919   1
   4   3  27 11.7647 3.00586   1
   4   3  28 39.9692 3.70247   1
   4   4 -28 18.2338 3.50817   1
   4   4 -27 25.2003 4.12467   1
   4   4 -26 88.2353  4.1701   1
   4   4 -25 161.821 5.34089   1
   4   4 -24 125.711 4.35865   1
   4   4 -23  122.60 4.02266   1
   4   4 -22 62.1927 2.68408   1
   4   4 -21 373.005  10.156   1
   4   4 -20  27.269 1.57342   1
   4   4 -19 165.514 4.56842   1
   4   4 -18 324.932  9.5226   1
   4   4 -17 40.7135 1.89023   1
   4   4 -16 24.8915 1.18431   1
   4   4 -15 741.833 19.9455   1
   4   4 -14 612.101 15.8683   1
   4   4 -13 14.5322 2.06919   1
   4   4 -12 327.546 9.50142   1
   4   4 -11 304.691 8.01393   1
   4   4 -10 81.1427 2.75956   1
   4   4  -9 97.2782 3.41603   1
   4   4  -8  278.04 7.50657   1
   4   4  -7 271.248 7.11772   1
   4   4  -6 130.688 3.65211   1
   4   4  -5 46.4516 1.90287   1
   4   4  -4 335.744 8.09916   1
   4   4  -3  459.20 10.8155   1
   4   4  -2  455.75 11.1909   1
   4   4  -1 26.6291 1.15366   1
   4   4   0 870.436 20.1659   1
   4   4   1 20.9057 1.19969   1
   4   4   2 445.852 10.5405   1
   4   4   3 463.996 11.0437   1
   4   4   4 342.901 8.14315   1
   4   4   5 48.8518 1.93073   1
   4   4   6  146.49 3.79054   1
   4   4   7 260.635 6.64927   1
   4   4   8 260.552 6.68149   1
   4   4   9 107.026 3.52959   1
   4   4  10 85.9895  3.3992   1
   4   4  11 328.293 8.32867   1
   4   4  12 314.141 8.17497   1
   4   4  13 17.1316 1.52964   1
   4   4  14 588.665  14.226   1
   4   4  15  738.84 18.0986   1
   4   4  16 30.5823 1.38104   1
   4   4  17 45.1989 1.61092   1
   4   4  18 302.713 8.41336   1
   4   4  19  168.72 4.72469   1
   4   4  20 25.6243 1.92324   1
   4   4  21 374.707 9.89342   1
   4   4  22  56.504 2.31622   1
   4   4  23 128.329 4.02538   1
   4   4  24 126.695 4.13515   1
   4   4  25 164.272 5.10316   1
   4   4  26 85.1243 3.85181   1
   4   4  27 17.2071 2.54363   1
   4   4  28 24.3255 3.04034   1
   4   5 -28 27.4281 4.05993   1
   4   5 -27 75.6529 4.96814   1
   4   5 -26 1.42855 2.69889   1
   4   5 -25 1.94696 2.11952   1
   4   5 -24 162.472 8.56036   1
   4   5 -23 238.586 7.49705   1
   4   5 -22 33.6427 2.06123   1
   4   5 -21 86.1662 4.32913   1
   4   5 -20 188.589 5.49832   1
   4   5 -19 153.684 4.90344   1
   4   5 -18 16.6571 1.65973   1
   4   5 -17 321.764 8.88941   1
   4   5 -16 77.5716 2.35842   1
   4   5 -15 449.639 13.7309   1
   4   5 -14 489.363 12.9422   1
   4   5 -13 924.564 24.9225   1
   4   5 -12  432.82 10.8489   1
   4   5 -11 340.148 11.0004   1
   4   5 -10 215.586 6.92993   1
   4   5  -9  452.06 11.4828   1
   4   5  -8 35.3934 2.13865   1
   4   5  -7 52.0143 2.48231   1
   4   5  -6 555.845 13.2115   1
   4   5  -5 1068.78 24.8397   1
   4   5  -4 182.789 4.72692   1
   4   5  -3 295.373 7.73411   1
   4   5  -2 127.394  3.4013   1
   4   5  -1 875.541 20.3467   1
   4   5   0 47.8054 1.96092   1
   4   5   1 895.107 20.8749   1
   4   5   2 115.018 3.08752   1
   4   5   3 296.655 7.27615   1
   4   5   4  185.24 4.83733   1
   4   5   5 1071.19 24.8151   1
   4   5   6 569.399  13.388   1
   4   5   7  56.877 2.50521   1
   4   5   8 39.2887 2.19752   1
   4   5   9 444.785 11.8637   1
   4   5  10 213.216 6.63572   1
   4   5  11  333.40 8.76202   1
   4   5  12 432.322 10.8463   1
   4   5  13 944.557 22.3497   1
   4   5  14 512.304 12.3166   1
   4   5  15 428.138   10.57   1
   4   5  16 86.0505 2.73601   1
   4   5  17 294.543 7.64534   1
   4   5  18 23.2504 1.33826   1
   4   5  19 155.569 4.64694   1
   4   5  20 188.233 6.10823   1
   4   5  21 87.6804 2.81147   1
   4   5  22 31.1743 1.97437   1
   4   5  23  231.62 6.59108   1
   4   5  24 168.004 6.51466   1
   4   5  25 2.61815 2.25829   1
   4   5  26 3.74227 2.74536   1
   4   5  27 82.3547 4.15753   1
   4   5  28 33.0976 3.03639   1
   4   6 -28 108.411 5.79978   1
   4   6 -27 2.64884 3.64761   1
   4   6 -26 25.7404 3.74237   1
   4   6 -25 3.79293 2.62544   1
   4   6 -24 96.2708 3.94999   1
   4   6 -23 105.203 5.50942   1
   4   6 -22 483.718 13.1021   1
   4   6 -21 52.4508 2.92301   1
   4   6 -20 260.075 7.09636   1
   4   6 -19 27.6376 1.60312   1
   4   6 -18 185.419 5.31404   1
   4   6 -17 130.988 3.80282   1
   4   6 -16 163.646 4.44634   1
   4   6 -15 7.18559 1.20994   1
   4   6 -14 1150.45  29.584   1
   4   6 -13 337.143 9.25056   1
   4   6 -12 120.906 4.02693   1
   4   6 -11 218.232 6.03677   1
   4   6 -10 295.994 7.73136   1
   4   6  -9 151.704 5.29346   1
   4   6  -8 112.058 3.67073   1
   4   6  -7  96.572  4.5521   1
   4   6  -6 124.282 3.68528   1
   4   6  -5 847.962 19.8757   1
   4   6  -4 1963.41 45.2555   1
   4   6  -3 369.221 8.89404   1
   4   6  -2 751.601 17.5454   1
   4   6  -1 115.284 3.21836   1
   4   6   0 563.723 13.3227   1
   4   6   1 110.713  3.2564   1
   4   6   2  769.13 18.0026   1
   4   6   3 380.951 9.10931   1
   4   6   4 1974.77 45.5455   1
   4   6   5 857.495 19.9895   1
   4   6   6 116.945 3.68253   1
   4   6   7 98.8029 3.26172   1
   4   6   8 107.937  3.4674   1
   4   6   9  152.87 4.75467   1
   4   6  10 294.901 7.62023   1
   4   6  11 213.299 6.10455   1
   4   6  12  135.62   4.832   1
   4   6  13 340.565 8.53231   1
   4   6  14 1175.89 28.3313   1
   4   6  15 9.41124 0.96469   1
   4   6  16 156.863 4.16573   1
   4   6  17 142.363  3.9377   1
   4   6  18 174.348 4.74957   1
   4   6  19 27.0378 1.78533   1
   4   6  20 259.625 7.18997   1
   4   6  21 54.4677 2.20812   1
   4   6  22 496.119  12.839   1
   4   6  23 103.487 3.47974   1
   4   6  24 97.1536 3.42549   1
   4   6  25 2.34645 1.88025   1
   4   6  26 19.5353  2.5885   1
   4   6  27 1.35624 2.92775   1
   4   6  28 116.468 6.25554   1
   4   7 -27 32.6652 4.81304   1
   4   7 -26  12.602  3.8835   1
   4   7 -25  21.979 2.98957   1
   4   7 -24 42.8046 3.04581   1
   4   7 -23  144.28 5.69472   1
   4   7 -22 33.6465 2.39077   1
   4   7 -21 66.7494 4.52965   1
   4   7 -20   87.81 3.93051   1
   4   7 -19 114.221 3.41665   1
   4   7 -18 49.1737  2.1337   1
   4   7 -17 151.013 4.31857   1
   4   7 -16 292.257 7.74519   1
   4   7 -15 138.983 4.69457   1
   4   7 -14 536.963 13.2514   1
   4   7 -13  814.28 19.9858   1
   4   7 -12 322.464 8.05937   1
   4   7 -11 372.243 9.44207   1
   4   7 -10 545.725  13.581   1
   4   7  -9 640.854 16.7331   1
   4   7  -8 157.301 4.93425   1
   4   7  -7 133.651 4.13454   1
   4   7  -6 692.117 17.1071   1
   4   7  -5 1526.21  35.541   1
   4   7  -4 608.368 14.4299   1
   4   7  -3 462.725 11.2242   1
   4   7  -2 685.446 16.1854   1
   4   7  -1 313.462  7.6908   1
   4   7   0 1.92668 1.13729   1
   4   7   1 301.766 7.42885   1
   4   7   2 709.893 16.6907   1
   4   7   3 442.442 10.8073   1
   4   7   4 615.556 14.6126   1
   4   7   5 1562.62 36.1325   1
   4   7   6 668.671 16.0333   1
   4   7   7 140.988 4.35298   1
   4   7   8 142.351 4.23278   1
   4   7   9 639.861 16.0765   1
   4   7  10 553.236 14.7063   1
   4   7  11 372.264 9.81533   1
   4   7  12 326.175 9.66292   1
   4   7  13 837.993 19.9897   1
   4   7  14 540.473 13.1914   1
   4   7  15 131.145 4.24575   1
   4   7  16 261.254 6.64434   1
   4   7  17 133.882 3.86602   1
   4   7  18  52.003 2.04804   1
   4   7  19 108.799  3.7255   1
   4   7  20 89.6991 2.89998   1
   4   7  21 63.3366 2.29529   1
   4   7  22 26.1272 1.79678   1
   4   7  23 140.557 4.36886   1
   4   7  24 37.2918 2.32653   1
   4   7  25 26.2794 2.88859   1
   4   7  26 15.6432 4.21051   1
   4   7  27 30.7757 2.98024   1
   4   8 -27 10.7245 4.59549   1
   4   8 -26 20.6666 4.35445   1
   4   8 -25 165.612 10.5244   1
   4   8 -24  65.209 5.28352   1
   4   8 -23 0.22038 2.28739   1
   4   8 -22  23.305 2.28349   1
   4   8 -21  309.65 13.7736   1
   4   8 -20 19.0701 1.79429   1
   4   8 -19 73.5302 3.32387   1
   4   8 -18 96.9573 3.57256   1
   4   8 -17 253.628 7.84508   1
   4   8 -16 312.532 9.04876   1
   4   8 -15 339.816  8.7529   1
   4   8 -14 102.311 2.93227   1
   4   8 -13 80.6551  2.3942   1
   4   8 -12 390.327 9.70366   1
   4   8 -11 704.151 17.1259   1
   4   8 -10 408.026 10.2888   1
   4   8  -9 427.803  11.066   1
   4   8  -8 433.625 11.7546   1
   4   8  -7 490.406   12.81   1
   4   8  -6  388.24 9.44553   1
   4   8  -5 259.815 6.66449   1
   4   8  -4 289.984  7.3788   1
   4   8  -3 990.748 23.6381   1
   4   8  -2 416.424 11.3408   1
   4   8  -1 164.473 4.48916   1
   4   8   0 334.812 8.29205   1
   4   8   1 166.858 4.61019   1
   4   8   2 429.522 11.1943   1
   4   8   3 997.788 23.4247   1
   4   8   4 285.154  7.1316   1
   4   8   5 255.186 6.48824   1
   4   8   6 383.089 9.72859   1
   4   8   7 502.869 12.7451   1
   4   8   8 438.751 10.9257   1
   4   8   9 421.962 10.4317   1
   4   8  10 384.677  9.6496   1
   4   8  11 733.617 19.2804   1
   4   8  12 389.299  9.6303   1
   4   8  13 80.0911 2.36929   1
   4   8  14 98.5029 2.76488   1
   4   8  15 353.908 8.87105   1
   4   8  16 300.208 7.72822   1
   4   8  17 254.256 6.54369   1
   4   8  18 89.2798 2.79409   1
   4   8  19 68.2349 2.34152   1
   4   8  20 21.1869 1.55845   1
   4   8  21 324.297 8.59127   1
   4   8  22 17.6811 1.87622   1
   4   8  23-0.08266 5.61823   1
   4   8  24 54.4723 3.19326   1
   4   8  25 189.783   6.792   1
   4   8  26 22.4485 3.10125   1
   4   8  27  7.2568 3.22415   1
   4   9 -27 62.9911 4.84795   1
   4   9 -26 75.6138  4.8172   1
   4   9 -25   58.04 4.22528   1
   4   9 -24 148.609 6.10895   1
   4   9 -23 6.74778 2.77137   1
   4   9 -22 68.0322 3.19859   1
   4   9 -21 88.1924 3.50398   1
   4   9 -20 243.667 9.16615   1
   4   9 -19 20.1453 1.72269   1
   4   9 -18 84.7719 3.13077   1
   4   9 -17 5.08929 1.21744   1
   4   9 -16 543.856 14.2522   1
   4   9 -15 112.494 3.34866   1
   4   9 -14 53.9653 2.27828   1
   4   9 -13 3.80516 0.90194   1
   4   9 -12  620.46 15.7312   1
   4   9 -11 756.693 20.9489   1
   4   9 -10  541.20 16.6521   1
   4   9  -9 8.41227  2.3194   1
   4   9  -8 582.611 15.1263   1
   4   9  -7 480.428 11.7914   1
   4   9  -6 541.604 13.1895   1
   4   9  -5 142.268  3.9807   1
   4   9  -4 132.794 4.15089   1
   4   9  -3 299.175 8.00017   1
   4   9  -2 1551.40 36.6318   1
   4   9  -1 5.33612 1.40217   1
   4   9   0 567.164 13.7366   1
   4   9   1 3.05613 1.29692   1
   4   9   2 1594.62  37.502   1
   4   9   3 293.065  8.0178   1
   4   9   4 122.328 3.87438   1
   4   9   5  139.87 3.91554   1
   4   9   6 541.749 13.0541   1
   4   9   7 472.885 11.6282   1
   4   9   8 601.937 14.3354   1
   4   9   9 7.70599 1.04043   1
   4   9  10 567.055 14.1861   1
   4   9  11 746.629 18.2818   1
   4   9  12 619.963 15.0021   1
   4   9  13 4.53399 0.89685   1
   4   9  14 54.1692  2.2774   1
   4   9  15 115.948 3.34261   1
   4   9  16 544.494 13.4017   1
   4   9  17 9.24205 1.23982   1
   4   9  18 83.9336 2.83782   1
   4   9  19  21.121 2.21844   1
   4   9  20 237.927 6.60919   1
   4   9  21 88.8583 3.08281   1
   4   9  22 67.9333 3.01787   1
   4   9  23 4.02836 1.80405   1
   4   9  24 160.747  5.5759   1
   4   9  25  52.485  3.4239   1
   4   9  26   80.63 4.39776   1
   4   9  27 59.4894 4.96038   1
   4  10 -26 58.2709 4.16742   1
   4  10 -25 96.3059 5.29963   1
   4  10 -24 51.6179 4.29718   1
   4  10 -23 59.7467  3.6393   1
   4  10 -22  94.342 5.23917   1
   4  10 -21 263.778 9.39998   1
   4  10 -20 32.8782 2.99304   1
   4  10 -19 49.8433 2.74156   1
   4  10 -18 293.623 9.42206   1
   4  10 -17 10.5937 1.60108   1
   4  10 -16-0.78553 3.01688   1
   4  10 -15 300.847 9.06037   1
   4  10 -14 245.806 7.06356   1
   4  10 -13 273.088  7.2916   1
   4  10 -12 521.855 13.6892   1
   4  10 -11 607.528 15.5267   1
   4  10 -10 1.21702 1.59626   1
   4  10  -9 102.868 4.52694   1
   4  10  -8 234.162 6.80052   1
   4  10  -7 398.837 9.96418   1
   4  10  -6 151.843 4.25618   1
   4  10  -5 251.219 6.39014   1
   4  10  -4 84.1201 3.12749   1
   4  10  -3 393.923 9.73534   1
   4  10  -2 272.115 6.93502   1
   4  10  -1 57.7999   2.368   1
   4  10   0 249.299 7.22654   1
   4  10   1   54.46 2.89142   1
   4  10   2 255.316 6.53702   1
   4  10   3 377.115 10.1066   1
   4  10   4 99.4731 3.28806   1
   4  10   5 259.025 7.44988   1
   4  10   6 156.499 4.54303   1
   4  10   7 397.121 10.6539   1
   4  10   8 225.327 5.90193   1
   4  10   9 103.953 3.00335   1
   4  10  10 3.72231 0.71224   1
   4  10  11 620.868 14.9965   1
   4  10  12  523.89 13.2937   1
   4  10  13 272.842 6.93625   1
   4  10  14  237.78 6.21277   1
   4  10  15 304.069 8.89675   1
   4  10  16 0.12219 1.07611   1
   4  10  17 13.2174 1.62792   1
   4  10  18 278.815  7.5088   1
   4  10  19 39.6274 2.48077   1
   4  10  20 27.8193 1.75515   1
   4  10  21 262.986 8.01441   1
   4  10  22 97.0227 3.48217   1
   4  10  23 57.7044 2.69944   1
   4  10  24 44.4297 2.90946   1
   4  10  25 102.236 5.54691   1
   4  10  26  50.373 5.29276   1
   4  11 -26 18.6527 3.75336   1
   4  11 -25-1.51172 4.57069   1
   4  11 -24 50.0104 6.03766   1
   4  11 -23 319.807 13.6614   1
   4  11 -22 69.1142 4.08093   1
   4  11 -21 72.5938  3.2366   1
   4  11 -20 72.9395 3.92692   1
   4  11 -19 179.197 9.41456   1
   4  11 -18 61.8078 3.80797   1
   4  11 -17 338.383 11.7218   1
   4  11 -16 63.5639 2.58818   1
   4  11 -15 320.317 8.97467   1
   4  11 -14 253.748 8.34775   1
   4  11 -13  349.23 11.8317   1
   4  11 -12 259.393 6.90307   1
   4  11 -11 36.0295 1.87798   1
   4  11 -10 10.1723 1.27646   1
   4  11  -9 385.552 11.3431   1
   4  11  -8 187.898 5.06166   1
   4  11  -7 103.867 3.62965   1
   4  11  -6  169.82 5.08239   1
   4  11  -5 883.605 21.5966   1
   4  11  -4 111.337 3.30223   1
   4  11  -3 173.447 4.87539   1
   4  11  -2 11.8005 1.97419   1
   4  11  -1  488.78 13.0806   1
   4  11   0 232.296 6.40631   1
   4  11   1 490.691 12.4437   1
   4  11   2 14.3127 0.97761   1
   4  11   3 172.602 4.66424   1
   4  11   4 108.599 3.39807   1
   4  11   5 913.864 22.5921   1
   4  11   6 178.346 4.98379   1
   4  11   7 108.892 3.79678   1
   4  11   8 193.635 5.11783   1
   4  11   9 404.396 10.2691   1
   4  11  10 8.59438 0.86552   1
   4  11  11 28.7101 1.63728   1
   4  11  12 257.293 6.96905   1
   4  11  13 368.048 9.36606   1
   4  11  14  265.00 7.97658   1
   4  11  15 328.576 8.40972   1
   4  11  16 69.3871 2.75633   1
   4  11  17 321.638  8.7437   1
   4  11  18 66.1496 2.49387   1
   4  11  19 178.579 6.24094   1
   4  11  20 64.8819 3.17966   1
   4  11  21 70.4703 3.23683   1
   4  11  22 67.3724  3.0833   1
   4  11  23 295.227 9.07315   1
   4  11  24 63.5187 3.20817   1
   4  11  25 1.48627 3.56142   1
   4  11  26 26.9352 3.60249   1
   4  12 -25 12.6732 3.41878   1
   4  12 -24 32.7903 4.12013   1
   4  12 -23  65.728 4.63062   1
   4  12 -22 392.869 12.4842   1
   4  12 -21 20.5577 2.33818   1
   4  12 -20 40.5951 3.71944   1
   4  12 -19 17.5067 1.89336   1
   4  12 -18 224.616 6.75922   1
   4  12 -17 112.803 3.90554   1
   4  12 -16 67.1663 3.89344   1
   4  12 -15 41.2037 2.00414   1
   4  12 -14 891.242 28.7039   1
   4  12 -13  175.61 5.77263   1
   4  12 -12 69.8574 2.48903   1
   4  12 -11 121.159 5.52375   1
   4  12 -10 323.454 8.24146   1
   4  12  -9 14.2841 1.02881   1
   4  12  -8 257.906 8.23567   1
   4  12  -7 147.396  5.0462   1
   4  12  -6 61.0406 1.88269   1
   4  12  -5 69.5139  2.3442   1
   4  12  -4 987.172 24.3221   1
   4  12  -3 44.5789 1.58004   1
   4  12  -2 486.945 12.2554   1
   4  12  -1 98.0412 3.01257   1
   4  12   0 27.2482 1.19139   1
   4  12   1 83.5244 3.14004   1
   4  12   2 489.998 12.0089   1
   4  12   3 49.0639 3.41816   1
   4  12   4 1019.69 24.2061   1
   4  12   5 65.0982  2.1123   1
   4  12   6  57.754 1.71426   1
   4  12   7 143.543    3.76   1
   4  12   8 255.618 7.24928   1
   4  12   9 19.8596 1.20856   1
   4  12  10  327.32 10.3052   1
   4  12  11  119.19 3.32817   1
   4  12  12 76.2382 2.79378   1
   4  12  13 182.902 5.29416   1
   4  12  14 858.133 21.1257   1
   4  12  15 45.1866 1.81251   1
   4  12  16 63.8367 3.27302   1
   4  12  17 121.167 4.42322   1
   4  12  18 197.438 6.14698   1
   4  12  19 16.8528 1.89605   1
   4  12  20 41.4051 2.15025   1
   4  12  21 18.4995 1.88924   1
   4  12  22 388.161 11.6641   1
   4  12  23 73.7181 5.78489   1
   4  12  24 31.5757 2.91348   1
   4  12  25 5.10067 3.45185   1
   4  13 -24 26.8353 9.48981   1
   4  13 -23 207.061 9.42964   1
   4  13 -22 55.3172 4.23871   1
   4  13 -21 52.5351 3.48976   1
   4  13 -20 62.3495 4.34383   1
   4  13 -19 109.447 4.34693   1
   4  13 -18 72.1839 3.49134   1
   4  13 -17 133.363  4.4957   1
   4  13 -16 183.814  5.6133   1
   4  13 -15 60.8338 2.38139   1
   4  13 -14  92.151 3.65087   1
   4  13 -13 333.744 11.2683   1
   4  13 -12 380.009 11.0316   1
   4  13 -11 113.334 3.52562   1
   4  13 -10 115.487 3.24617   1
   4  13  -9 196.442 5.20075   1
   4  13  -8 260.876 6.88923   1
   4  13  -7 85.2056 2.46122   1
   4  13  -6 350.473 8.55573   1
   4  13  -5 598.552 14.5744   1
   4  13  -4 199.624   4.997   1
   4  13  -3 258.578 6.44294   1
   4  13  -2 951.637 22.9102   1
   4  13  -1 365.233 9.11073   1
   4  13   0 4.45898 1.04669   1
   4  13   1 397.412 10.7339   1
   4  13   2 945.166 22.9083   1
   4  13   3 258.491 6.62947   1
   4  13   4 200.882 5.16058   1
   4  13   5 612.892 15.4405   1
   4  13   6 360.096 9.11182   1
   4  13   7 91.0401 2.58245   1
   4  13   8 258.432 6.75222   1
   4  13   9 195.458 6.40657   1
   4  13  10 118.898 3.68026   1
   4  13  11 112.453 3.26046   1
   4  13  12 388.504 9.97659   1
   4  13  13 334.344 8.79555   1
   4  13  14 90.3901 4.28497   1
   4  13  15 51.5718 2.09553   1
   4  13  16 167.408  4.9825   1
   4  13  17 132.472 4.15562   1
   4  13  18  77.161 2.87511   1
   4  13  19 114.402 5.97912   1
   4  13  20 60.3206 3.12412   1
   4  13  21 42.4087 2.46153   1
   4  13  22 54.7117 3.85774   1
   4  13  23 199.815 7.27222   1
   4  13  24 30.4142 4.68134   1
   4  13  25 5.04076 5.03519   1
   4  14 -24 19.0159 10.7168   1
   4  14 -23 8.95996 4.35387   1
   4  14 -22 72.7201 4.00382   1
   4  14 -21 216.113 13.2422   1
   4  14 -20 10.4139 2.18992   1
   4  14 -19  25.548 2.21879   1
   4  14 -18 106.846 5.62316   1
   4  14 -17 219.118 10.5716   1
   4  14 -16 29.7062 2.30922   1
   4  14 -15 122.481  4.0653   1
   4  14 -14 107.186 4.51535   1
   4  14 -13 258.579 8.42759   1
   4  14 -12 59.3673 2.76798   1
   4  14 -11 449.047 11.9255   1
   4  14 -10 131.856  4.3722   1
   4  14  -9 135.782 3.83824   1
   4  14  -8 198.552 5.25775   1
   4  14  -7 691.153 17.1705   1
   4  14  -6 175.453 5.52716   1
   4  14  -5 187.945 5.22757   1
   4  14  -4 60.1457 2.11675   1
   4  14  -3 735.693  17.989   1
   4  14  -2 318.047 8.15414   1
   4  14  -1  396.85 9.93143   1
   4  14   0  179.20 5.34982   1
   4  14   1 386.094 9.87056   1
   4  14   2 311.248 8.10372   1
   4  14   3 746.203 20.5966   1
   4  14   4 57.4469 2.61002   1
   4  14   5 194.537 5.82924   1
   4  14   6 169.436 4.59168   1
   4  14   7 699.305  18.077   1
   4  14   8 189.469 5.87951   1
   4  14   9 138.432 4.09111   1
   4  14  10 135.739 4.05505   1
   4  14  11 477.988 12.5385   1
   4  14  12  60.248 2.32586   1
   4  14  13 249.151 6.88835   1
   4  14  14 98.8869 3.41526   1
   4  14  15 119.805 3.85457   1
   4  14  16 38.0172 2.37316   1
   4  14  17 227.164 6.51901   1
   4  14  18 101.287 5.18613   1
   4  14  19 24.9403 2.34598   1
   4  14  20 14.5981 2.26046   1
   4  14  21 214.696 6.94974   1
   4  14  22 69.9676 3.81204   1
   4  14  23 7.35076 3.58631   1
   4  14  24 14.9304 4.17677   1
   4  15 -23 3.08856 4.31158   1
   4  15 -22  46.637  4.0413   1
   4  15 -21 71.3319 3.97625   1
   4  15 -20 167.471 6.75029   1
   4  15 -19 13.0536 2.23502   1
   4  15 -18 75.3187 5.14552   1
   4  15 -17 75.8323 5.09735   1
   4  15 -16  330.09 14.7024   1
   4  15 -15 46.4943 2.91979   1
   4  15 -14 100.359 3.56272   1
   4  15 -13 43.9681 2.23054   1
   4  15 -12 224.129 6.31096   1
   4  15 -11 161.177 5.13018   1
   4  15 -10 242.402 8.52369   1
   4  15  -9 49.3423 3.25032   1
   4  15  -8 510.201  13.469   1
   4  15  -7 174.469 4.85678   1
   4  15  -6 362.257 9.27735   1
   4  15  -5 36.8019 1.72397   1
   4  15  -4 54.6482 1.82909   1
   4  15  -3 183.432 7.11343   1
   4  15  -2 672.996  19.384   1
   4  15  -1 161.658 4.89697   1
   4  15   0 163.163 4.62156   1
   4  15   1 169.629 5.86168   1
   4  15   2 657.695 17.9292   1
   4  15   3 179.087 4.97184   1
   4  15   4 57.1079 2.57053   1
   4  15   5 37.3353 1.80624   1
   4  15   6 377.241 15.2481   1
   4  15   7 179.908  5.0608   1
   4  15   8 506.133 13.6651   1
   4  15   9  50.456 3.33671   1
   4  15  10  260.31 13.0209   1
   4  15  11 161.154 5.61769   1
   4  15  12 225.371 6.74015   1
   4  15  13  38.694 2.07577   1
   4  15  14  101.48  4.5165   1
   4  15  15 46.8407 2.23154   1
   4  15  16 315.628 9.02601   1
   4  15  17 71.0444 3.00696   1
   4  15  18 81.0905 4.02962   1
   4  15  19  12.168 2.25853   1
   4  15  20  159.28  5.4754   1
   4  15  21 70.2855 4.08978   1
   4  15  22 44.7726 5.15203   1
   4  15  23-0.48381 7.00745   1
   4  16 -22 53.4459 3.84682   1
   4  16 -21 113.101 7.36916   1
   4  16 -20 40.6541 3.24892   1
   4  16 -19 37.9615 3.32071   1
   4  16 -18 302.917 10.0422   1
   4  16 -17 109.511 4.17048   1
   4  16 -16 33.8095 2.08773   1
   4  16 -15 190.889 7.44637   1
   4  16 -14 12.1705 1.76541   1
   4  16 -13  202.85 6.53929   1
   4  16 -12  277.48 9.64719   1
   4  16 -11 269.303 9.31147   1
   4  16 -10-0.10085 3.86448   1
   4  16  -9  46.094 2.39157   1
   4  16  -8 230.548 9.06809   1
   4  16  -7 386.216 10.3323   1
   4  16  -6 191.498 5.46737   1
   4  16  -5 107.348 3.80558   1
   4  16  -4 131.212 3.71107   1
   4  16  -3 705.527 17.4761   1
   4  16  -2 191.272 5.13313   1
   4  16  -1 217.458 7.33857   1
   4  16   0 544.827 14.4957   1
   4  16   1  194.61 5.68081   1
   4  16   2 182.258 5.39297   1
   4  16   3  718.11 18.5908   1
   4  16   4 147.724 4.20433   1
   4  16   5 115.975 3.57104   1
   4  16   6 188.432 5.30442   1
   4  16   7  382.03 10.1449   1
   4  16   8 250.192 7.30694   1
   4  16   9 47.6885 5.51242   1
   4  16  10 0.81608 2.11904   1
   4  16  11 273.682 11.2168   1
   4  16  12 275.276 8.84816   1
   4  16  13  195.54 7.32997   1
   4  16  14 4.89845 1.86746   1
   4  16  15 185.396 7.75803   1
   4  16  16 39.8791  2.3589   1
   4  16  17 112.003 4.23333   1
   4  16  18  291.74 9.71857   1
   4  16  19 37.1214 3.21984   1
   4  16  20 34.7044 2.76467   1
   4  16  21 115.498 7.56053   1
   4  16  22  65.088 6.07638   1
   4  17 -21 63.7122 3.87505   1
   4  17 -20 26.2442 3.27326   1
   4  17 -19 71.1331 4.40844   1
   4  17 -18 53.6065 4.52527   1
   4  17 -17 189.551 6.92433   1
   4  17 -16 1.01417 1.95698   1
   4  17 -15 58.5489 5.12887   1
   4  17 -14 45.3953 2.86234   1
   4  17 -13 251.934 9.31446   1
   4  17 -12 210.245 7.23156   1
   4  17 -11 67.4246 4.15387   1
   4  17 -10 30.4526 3.09351   1
   4  17  -9 192.516 6.08123   1
   4  17  -8 143.795  4.7631   1
   4  17  -7 62.0801 2.87418   1
   4  17  -6 188.978 6.07368   1
   4  17  -5 206.807 6.16392   1
   4  17  -4 121.186 3.52521   1
   4  17  -3 271.767 8.48656   1
   4  17  -2 0.16187 1.14699   1
   4  17  -1 283.879 8.02087   1
   4  17   0 23.2821 2.06162   1
   4  17   1 312.749 8.64178   1
   4  17   2 2.04643 1.41536   1
   4  17   3 275.008 7.31121   1
   4  17   4 119.906 3.79377   1
   4  17   5 202.169 6.23996   1
   4  17   6 185.244 5.32305   1
   4  17   7 63.4944 2.47653   1
   4  17   8 152.756 6.34441   1
   4  17   9  207.52 7.96411   1
   4  17  10 27.2138 2.46322   1
   4  17  11 66.1607 6.45644   1
   4  17  12 208.192 8.66878   1
   4  17  13 247.313 9.49678   1
   4  17  14 55.0878  4.1108   1
   4  17  15 53.5288 3.28257   1
   4  17  16 3.68442  3.1176   1
   4  17  17 194.685 6.66003   1
   4  17  18  56.331 3.69703   1
   4  17  19 78.8514 6.73162   1
   4  17  20 28.3549 4.45381   1
   4  17  21  73.021 4.70847   1
   4  18 -20 47.0827 4.20119   1
   4  18 -19 14.9615 4.42398   1
   4  18 -18 110.317 5.05335   1
   4  18 -17 29.6503 4.19105   1
   4  18 -16 40.2753 3.53146   1
   4  18 -15 4.00112 2.22893   1
   4  18 -14 261.667  11.075   1
   4  18 -13 29.6776 2.73137   1
   4  18 -12   86.90 4.17811   1
   4  18 -11 6.29462 2.73487   1
   4  18 -10  57.292 3.30364   1
   4  18  -9 23.9091 2.98199   1
   4  18  -8 192.897 7.77129   1
   4  18  -7 63.7649 2.96197   1
   4  18  -6 3.76095 2.57117   1
   4  18  -5 3.63416 1.58276   1
   4  18  -4 438.599 11.3721   1
   4  18  -3  45.801  2.0217   1
   4  18  -2 109.991  3.3663   1
   4  18  -1 40.0894 1.96906   1
   4  18   0 65.6022 2.49209   1
   4  18   1 37.5985 2.59405   1
   4  18   2 115.487 3.80679   1
   4  18   3 41.4297 2.30815   1
   4  18   4 423.499 11.3311   1
   4  18   5  1.8505  2.3884   1
   4  18   6 5.71867 1.46778   1
   4  18   7 63.2472  3.8811   1
   4  18   8 195.575 9.41381   1
   4  18   9 16.4104 1.80273   1
   4  18  10  67.765 3.07809   1
   4  18  11   7.755 2.28976   1
   4  18  12 78.1551 4.68505   1
   4  18  13  29.429 2.73193   1
   4  18  14 243.285 7.84808   1
   4  18  15 3.04579 2.81596   1
   4  18  16 44.8721 3.08788   1
   4  18  17 33.1584 3.16219   1
   4  18  18 94.7036 6.05497   1
   4  18  19 14.9473 3.15374   1
   4  18  20 50.8687 4.18508   1
   4  19 -19  86.195 5.55207   1
   4  19 -18 4.88538 2.89938   1
   4  19 -17 157.717 9.27578   1
   4  19 -16 98.2315 6.92581   1
   4  19 -15 16.8045 3.71405   1
   4  19 -14 29.4479 3.33791   1
   4  19 -13  185.77 7.30378   1
   4  19 -12 88.7451 4.49617   1
   4  19 -11 1.17385 2.80014   1
   4  19 -10 54.9044 3.35382   1
   4  19  -9 161.494 6.17953   1
   4  19  -8 122.234 6.56368   1
   4  19  -7 31.1035 2.08281   1
   4  19  -6  112.47 4.61707   1
   4  19  -5 146.303 6.76389   1
   4  19  -4 8.78121 1.56199   1
   4  19  -3 22.5982  1.5793   1
   4  19  -2 184.247 5.55376   1
   4  19  -1 267.002 7.50067   1
   4  19   0 11.6463 1.91114   1
   4  19   1 288.519 7.89705   1
   4  19   2 168.793   5.122   1
   4  19   3 29.8344 1.94437   1
   4  19   4 8.79364 1.83802   1
   4  19   5 153.293 4.53679   1
   4  19   6 123.228 4.38326   1
   4  19   7 32.3605 2.13294   1
   4  19   8 123.451 4.40956   1
   4  19   9 168.326 5.60525   1
   4  19  10 53.3336 2.90256   1
   4  19  11 3.21088  1.8576   1
   4  19  12 86.6776 4.57222   1
   4  19  13 187.357 11.4951   1
   4  19  14 31.2992 2.76408   1
   4  19  15 13.7483 2.88488   1
   4  19  16 84.4536 4.36293   1
   4  19  17 140.724 6.62359   1
   4  19  18 6.12684  3.7035   1
   4  19  19 91.8357 10.4987   1
   4  20 -18 49.8157 11.7584   1
   4  20 -17 134.964 11.8601   1
   4  20 -16  7.9377 5.32557   1
   4  20 -15 85.0745 8.91425   1
   4  20 -14 18.6415 4.25966   1
   4  20 -13 75.0752 9.31761   1
   4  20 -12-0.53004 4.80475   1
   4  20 -11 270.665 11.3723   1
   4  20 -10 17.6338 2.39958   1
   4  20  -9 12.8373 2.79648   1
   4  20  -8  44.909 2.97534   1
   4  20  -7  290.19 10.1728   1
   4  20  -6 77.4617 4.21333   1
   4  20  -5 75.8273 4.10081   1
   4  20  -4 7.63847 1.85442   1
   4  20  -3 249.277 8.09171   1
   4  20  -2 110.785 3.79914   1
   4  20  -1 274.633 7.61832   1
   4  20   0 82.4538 3.21986   1
   4  20   1  260.89 7.36077   1
   4  20   2 116.125 4.05767   1
   4  20   3  270.99 8.90329   1
   4  20   4 7.30674 1.61617   1
   4  20   5 71.1452  2.9867   1
   4  20   6  76.667 4.06438   1
   4  20   7  304.83  9.0292   1
   4  20   8 45.5691 2.56892   1
   4  20   9 13.3603 2.09235   1
   4  20  10   14.87 2.31424   1
   4  20  11 262.968 8.49736   1
   4  20  12-1.00005 5.57114   1
   4  20  13 69.4748 4.11894   1
   4  20  14 15.3108 2.88702   1
   4  20  15 81.9952  4.1812   1
   4  20  16 14.1735 3.76084   1
   4  20  17 151.749 6.52821   1
   4  20  18 44.7547 4.75498   1
   4  21 -16  267.78 14.7542   1
   4  21 -15 12.9823 6.33362   1
   4  21 -14  11.901 3.75545   1
   4  21 -13 6.18039 3.53775   1
   4  21 -12 155.958 7.60633   1
   4  21 -11 25.3907 3.06463   1
   4  21 -10 106.743 4.50244   1
   4  21  -9 28.3428 3.40117   1
   4  21  -8 319.737 10.6408   1
   4  21  -7 84.6067 4.56882   1
   4  21  -6  176.88   5.893   1
   4  21  -5  24.372 2.36054   1
   4  21  -4 30.0389 2.27021   1
   4  21  -3  115.19 4.43327   1
   4  21  -2  454.33 12.3707   1
   4  21  -1 108.208 4.13224   1
   4  21   0 83.0894 3.13046   1
   4  21   1 106.306 5.00174   1
   4  21   2 482.365 14.1906   1
   4  21   3  116.46 3.90684   1
   4  21   4 32.8286 2.26183   1
   4  21   5 30.5723 3.40923   1
   4  21   6 178.715 5.82885   1
   4  21   7 86.2247 4.29744   1
   4  21   8 299.911  9.1893   1
   4  21   9 30.6001 2.74663   1
   4  21  10 96.4614 4.43912   1
   4  21  11 31.7735 3.27589   1
   4  21  12 155.059 5.97691   1
   4  21  13 7.94543 3.59111   1
   4  21  14 10.9162 3.25676   1
   4  21  15 28.8356 3.25493   1
   4  21  16 267.145 10.5158   1
   4  22 -14 39.5549 5.38293   1
   4  22 -13 116.668 7.66408   1
   4  22 -12 91.0795 12.0255   1
   4  22 -11 98.5815  8.6322   1
   4  22 -10 61.3293 4.88833   1
   4  22  -9 78.5218 7.02761   1
   4  22  -8 140.956 5.60159   1
   4  22  -7 212.528 12.7516   1
   4  22  -6 220.056 7.52887   1
   4  22  -5 21.2855 2.52503   1
   4  22  -4 81.7803  3.4858   1
   4  22  -3 425.882 13.7684   1
   4  22  -2 120.106 4.39201   1
   4  22  -1 101.487 3.77986   1
   4  22   0  312.51 9.61867   1
   4  22   1  102.84 3.82084   1
   4  22   2 115.851 4.23521   1
   4  22   3 434.429 15.3283   1
   4  22   4 84.6008 3.57534   1
   4  22   5 28.3604 2.20054   1
   4  22   6 219.515 7.40832   1
   4  22   7 205.387  8.4918   1
   4  22   8  146.94 5.15323   1
   4  22   9 74.0019 4.06599   1
   4  22  10 70.2723 3.98108   1
   4  22  11 114.527 4.62334   1
   4  22  12 89.9327  5.6763   1
   4  22  13 106.954 7.15671   1
   4  22  14 43.7518 6.16928   1
   4  23 -12 56.2597 6.48963   1
   4  23 -11 17.1399 4.85172   1
   4  23 -10 1.70514  4.1927   1
   4  23  -9 164.482 8.13297   1
   4  23  -8  15.081 3.48114   1
   4  23  -7 18.1809  3.5398   1
   4  23  -6 60.6119 3.67624   1
   4  23  -5 152.091 8.59893   1
   4  23  -4 181.106  11.256   1
   4  23  -3 161.362 7.79664   1
   4  23  -2 47.2588 3.57265   1
   4  23  -1  148.71 7.73079   1
   4  23   0 252.966 9.45661   1
   4  23   1 158.369 6.63774   1
   4  23   2 46.8294 2.58316   1
   4  23   3 166.041 7.58646   1
   4  23   4 166.459 6.78386   1
   4  23   5 157.526 5.24929   1
   4  23   6 66.9959 3.83138   1
   4  23   7 21.4962 2.58387   1
   4  23   8 16.9514 4.19474   1
   4  23   9 160.812 7.53607   1
   4  23  10 0.93805 2.81886   1
   4  23  11  15.275 3.03015   1
   4  23  12 60.0432 5.15701   1
   4  24  -9  10.467 3.27323   1
   4  24  -8 42.4818 5.85875   1
   4  24  -7 11.3134 3.88905   1
   4  24  -6 12.3721 3.64072   1
   4  24  -5 23.3107 3.96305   1
   4  24  -4 255.205 9.31352   1
   4  24  -3  41.013 6.73452   1
   4  24  -2 34.8786 3.10922   1
   4  24  -1 47.5489 3.59868   1
   4  24   0 91.6761  4.2663   1
   4  24   1 43.0762 3.94482   1
   4  24   2 33.2367 3.59134   1
   4  24   3 37.1691 3.70318   1
   4  24   4 260.663 12.4406   1
   4  24   5 23.1312  3.0566   1
   4  24   6 10.3284  3.7776   1
   4  24   7 15.2706 3.53986   1
   4  24   8 44.2145  3.9587   1
   4  24   9 4.81018  2.9758   1
   4  25  -6 64.8497  5.4851   1
   4  25  -5 22.5564 3.63682   1
   4  25  -4 33.8821  4.1574   1
   4  25  -3 46.9732 4.04176   1
   4  25  -2 89.9638 4.53369   1
   4  25  -1 67.1461 5.73761   1
   4  25   0 45.3901 3.44424   1
   4  25   1 61.5995 4.32307   1
   4  25   2 99.3731 5.42371   1
   4  25   3 43.8175 3.66391   1
   4  25   4 27.9929 3.34355   1
   4  25   5 23.7708 3.46148   1
   4  25   6 55.7435 5.00298   1
   5   0   1 539.125 12.8309   1
   5   0   2 23.2076 1.83414   1
   5   0   3 1253.51 29.0234   1
   5   0   4 19.4496 1.49023   1
   5   0   5 17.4553 1.91981   1
   5   0   6 21.1831 1.72916   1
   5   0   7 2248.42  51.931   1
   5   0   8 743.216 18.8338   1
   5   0   9 121.696 4.34089   1
   5   0  10 411.157 13.9698   1
   5   0  11 1051.65 26.9632   1
   5   0  12 23.5838 0.98945   1
   5   0  13 318.687 8.14778   1
   5   0  14 84.7905 3.51699   1
   5   0  15 134.965  4.4023   1
   5   0  16 56.3675 1.95124   1
   5   0  17  768.74 19.0388   1
   5   0  18 106.751  3.7563   1
   5   0  19 15.6384 1.57703   1
   5   0  20 14.4601 1.57559   1
   5   0  21 118.374 3.90842   1
   5   0  22 13.1131 1.84912   1
   5   0  23 28.0279 2.70977   1
   5   0  24-1.38042 5.24343   1
   5   0  25 235.245  11.309   1
   5   0  26 37.8298  3.8127   1
   5   0  27 25.5392  4.0176   1
   5   1 -27  71.916 7.35449   1
   5   1 -26 57.3053 4.89005   1
   5   1 -25 22.9493 2.70553   1
   5   1 -24 97.3209 3.89749   1
   5   1 -23 117.498 4.22999   1
   5   1 -22 86.7558 5.17946   1
   5   1 -21 61.0206 2.64426   1
   5   1 -20 126.458 4.50693   1
   5   1 -19  163.56 5.38274   1
   5   1 -18 72.7113 2.42156   1
   5   1 -17 58.9829 2.16345   1
   5   1 -16 504.179 12.5663   1
   5   1 -15 86.1958 2.94967   1
   5   1 -14  14.993 1.03332   1
   5   1 -13  201.01 6.16744   1
   5   1 -12 901.165 21.5509   1
   5   1 -11  227.78 6.29297   1
   5   1 -10  85.258 3.86548   1
   5   1  -9 511.876 14.4166   1
   5   1  -8 647.168 16.2202   1
   5   1  -7 43.2662  2.6558   1
   5   1  -6 1275.03 30.1312   1
   5   1  -5  191.13  5.4017   1
   5   1  -4 478.634 11.5879   1
   5   1  -3 183.679 5.04276   1
   5   1  -2 1454.02 33.9372   1
   5   1  -1  77.745 2.48864   1
   5   1   0 190.102 4.92621   1
   5   1   1 74.3345 2.59351   1
   5   1   2 1460.56 33.6945   1
   5   1   3 192.723 5.10949   1
   5   1   4 489.695 11.5684   1
   5   1   5 204.261  6.3706   1
   5   1   6 1266.12 29.5333   1
   5   1   7 33.9947 2.24485   1
   5   1   8 620.803 15.8382   1
   5   1   9 508.558 12.7339   1
   5   1  10 84.5902 3.36061   1
   5   1  11 224.454 6.97036   1
   5   1  12 896.314 26.5265   1
   5   1  13 205.211 5.97019   1
   5   1  14 15.2015 1.19518   1
   5   1  15 80.8945 2.39835   1
   5   1  16 495.299 13.9482   1
   5   1  17  62.187 2.39084   1
   5   1  18 74.8073 2.41301   1
   5   1  19 165.925 4.63725   1
   5   1  20  128.73 4.02755   1
   5   1  21 69.9505 3.38012   1
   5   1  22 94.2673 3.36985   1
   5   1  23 107.468 3.96587   1
   5   1  24 86.5801 4.43978   1
   5   1  25 22.0896 2.93298   1
   5   1  26 51.9131 5.12386   1
   5   1  27 72.5845 4.48835   1
   5   2 -27  35.087 3.72434   1
   5   2 -26 77.6894 4.84881   1
   5   2 -25 17.0607 3.26591   1
   5   2 -24 61.5781 3.37109   1
   5   2 -23 1.11772 2.27429   1
   5   2 -22 414.322 11.2434   1
   5   2 -21 192.523  5.6249   1
   5   2 -20 23.9804 1.67732   1
   5   2 -19 8.97206 1.77946   1
   5   2 -18 160.897 5.33935   1
   5   2 -17 135.067 4.22055   1
   5   2 -16 124.167 3.66836   1
   5   2 -15 157.661 4.21937   1
   5   2 -14 726.129 17.8024   1
   5   2 -13 207.101 5.40193   1
   5   2 -12  166.35 5.18354   1
   5   2 -11 219.711  7.9194   1
   5   2 -10 559.365 14.0043   1
   5   2  -9 459.167 12.0742   1
   5   2  -8 765.083 18.5722   1
   5   2  -7 121.555 4.42025   1
   5   2  -6 68.6225 2.70597   1
   5   2  -5 168.494 4.55301   1
   5   2  -4  810.18 19.0328   1
   5   2  -3 1009.75 24.2255   1
   5   2  -2 27.5442  2.1664   1
   5   2  -1  3.7472  1.2213   1
   5   2   0 197.499 5.35998   1
   5   2   1 2.12889 1.45469   1
   5   2   2 23.5516 1.51955   1
   5   2   3 1036.05 24.1013   1
   5   2   4 797.373 18.7137   1
   5   2   5 160.907 4.45167   1
   5   2   6  61.912 2.66375   1
   5   2   7 138.173 4.15022   1
   5   2   8 707.334 16.8474   1
   5   2   9 471.611  11.688   1
   5   2  10 583.989 14.2628   1
   5   2  11 211.141 5.77875   1
   5   2  12 164.639 4.80236   1
   5   2  13 205.279 5.42114   1
   5   2  14 710.293 17.5392   1
   5   2  15  149.35 4.19353   1
   5   2  16 123.966 5.32957   1
   5   2  17 128.277 3.67169   1
   5   2  18 165.181 4.58244   1
   5   2  19  10.066 2.03224   1
   5   2  20 27.8335 1.63915   1
   5   2  21 175.201 5.50783   1
   5   2  22 406.832 11.2696   1
   5   2  23 0.02713 2.14999   1
   5   2  24 60.8499 3.90197   1
   5   2  25 17.3597 2.55508   1
   5   2  26 72.4247 4.40453   1
   5   2  27 33.9562 3.67402   1
   5   3 -27 158.419 6.68204   1
   5   3 -26 6.34475 3.21501   1
   5   3 -25 25.0772 3.25243   1
   5   3 -24 84.4649 6.21347   1
   5   3 -23 401.558 12.2703   1
   5   3 -22  26.319 2.18926   1
   5   3 -21 156.025 4.64681   1
   5   3 -20 69.9471 3.27277   1
   5   3 -19 200.126 5.54096   1
   5   3 -18 146.778 4.15422   1
   5   3 -17 186.693  5.4409   1
   5   3 -16 50.8116 2.55514   1
   5   3 -15 15.6362 1.20354   1
   5   3 -14 3.33647 1.01778   1
   5   3 -13 1244.23 32.4186   1
   5   3 -12 131.073 4.41412   1
   5   3 -11 46.8312 1.74347   1
   5   3 -10 361.688 11.9306   1
   5   3  -9 301.155 7.73378   1
   5   3  -8 146.966 4.12819   1
   5   3  -7 59.1715 2.89891   1
   5   3  -6 958.156  23.174   1
   5   3  -5 1297.48  30.363   1
   5   3  -4 90.7455 3.00908   1
   5   3  -3  217.08 5.80314   1
   5   3  -2 118.103 3.83314   1
   5   3  -1 377.083 9.38165   1
   5   3   0 474.556 11.2964   1
   5   3   1  381.74 9.22712   1
   5   3   2 117.061 3.32883   1
   5   3   3 211.378 5.36055   1
   5   3   4 94.7163 2.84281   1
   5   3   5 1292.86  30.317   1
   5   3   6 970.062 22.6825   1
   5   3   7 59.5873 2.50536   1
   5   3   8 143.855 4.35003   1
   5   3   9 305.408 8.14462   1
   5   3  10 356.578 9.08755   1
   5   3  11 45.4091 1.85918   1
   5   3  12 134.512 3.53796   1
   5   3  13 1269.73 30.1408   1
   5   3  14 4.77739 1.06799   1
   5   3  15 18.0828 1.53996   1
   5   3  16 54.9501 2.35422   1
   5   3  17 183.485 5.60713   1
   5   3  18 151.016 5.67656   1
   5   3  19 204.507 5.56083   1
   5   3  20 69.5087 2.48656   1
   5   3  21 156.118 5.28273   1
   5   3  22 23.8155 1.98884   1
   5   3  23 400.545 11.3365   1
   5   3  24 89.3603 5.08568   1
   5   3  25 20.6877 2.97683   1
   5   3  26 0.90001 2.70592   1
   5   3  27 155.199 7.21699   1
   5   4 -27 52.4345 8.08681   1
   5   4 -26 96.9018 5.65566   1
   5   4 -25 163.949 7.22277   1
   5   4 -24 51.1309 2.89916   1
   5   4 -23 36.4344 2.64416   1
   5   4 -22 523.485 13.9072   1
   5   4 -21  139.23 4.26308   1
   5   4 -20 53.3572 2.70633   1
   5   4 -19 2.82949 1.30697   1
   5   4 -18  212.47 6.15909   1
   5   4 -17 95.8497 2.93402   1
   5   4 -16 233.217 6.33868   1
   5   4 -15  225.60 5.99601   1
   5   4 -14 304.874 7.75094   1
   5   4 -13 140.265 4.20109   1
   5   4 -12 251.507  7.0444   1
   5   4 -11 108.309 3.35116   1
   5   4 -10 79.7783 2.20411   1
   5   4  -9 445.503 11.1098   1
   5   4  -8 304.846  8.2448   1
   5   4  -7 516.609  12.559   1
   5   4  -6 115.933 3.72815   1
   5   4  -5 106.583 3.70836   1
   5   4  -4 204.534  5.9911   1
   5   4  -3 241.367  6.2802   1
   5   4  -2 73.6368 2.55342   1
   5   4  -1 22.4812 1.00229   1
   5   4   0 61.7305  2.3001   1
   5   4   1 17.8373 1.74628   1
   5   4   2 72.5711 2.32371   1
   5   4   3 243.284 6.10368   1
   5   4   4 186.561 5.89812   1
   5   4   5  107.59 3.57246   1
   5   4   6 107.104 3.33978   1
   5   4   7 490.925 12.6226   1
   5   4   8 294.195 8.35251   1
   5   4   9 464.802 11.7778   1
   5   4  10 60.8434 2.26255   1
   5   4  11 105.956  3.0707   1
   5   4  12 258.077 6.85259   1
   5   4  13 146.275 3.84408   1
   5   4  14 305.839 9.02124   1
   5   4  15 222.424 7.68074   1
   5   4  16 221.695 5.89937   1
   5   4  17 99.0629 3.72734   1
   5   4  18 203.182 5.57037   1
   5   4  19 2.74991 1.53812   1
   5   4  20 48.3564 2.51976   1
   5   4  21 143.532 4.30167   1
   5   4  22 506.479  15.142   1
   5   4  23 40.1878 2.93154   1
   5   4  24 48.9343 2.76628   1
   5   4  25 152.609 8.24238   1
   5   4  26 101.062 4.96074   1
   5   4  27 55.6318 4.13211   1
   5   5 -27 75.8424 5.29564   1
   5   5 -26 68.4063 6.46663   1
   5   5 -25 18.4642 3.69091   1
   5   5 -24 138.182 4.87955   1
   5   5 -23 71.4816 3.34886   1
   5   5 -22 41.3311 3.38367   1
   5   5 -21 69.2287 2.69291   1
   5   5 -20 211.941 6.03719   1
   5   5 -19 69.3576 2.89902   1
   5   5 -18 10.2584 1.25749   1
   5   5 -17 290.082 9.97601   1
   5   5 -16 378.582 11.0402   1
   5   5 -15 23.9052 1.47191   1
   5   5 -14  102.92  3.0094   1
   5   5 -13 95.5235 2.85412   1
   5   5 -12 680.839 17.1079   1
   5   5 -11 128.845 4.15049   1
   5   5 -10 312.824  8.8018   1
   5   5  -9 113.687 3.36091   1
   5   5  -8 346.091 8.52468   1
   5   5  -7 517.321 12.6848   1
   5   5  -6 1084.79 26.3441   1
   5   5  -5 145.889  4.3601   1
   5   5  -4 342.625 8.48265   1
   5   5  -3 75.7889 2.59691   1
   5   5  -2 947.325 22.2949   1
   5   5  -1 41.0437  2.4624   1
   5   5   0-0.24109  9.1695   1
   5   5   1 36.8448 2.36465   1
   5   5   2 929.169 22.6071   1
   5   5   3 77.2778 2.64116   1
   5   5   4 343.015 8.52986   1
   5   5   5  152.95 4.32638   1
   5   5   6 1066.36 25.3079   1
   5   5   7 515.588 12.3576   1
   5   5   8 343.578 8.82539   1
   5   5   9 123.641 3.58763   1
   5   5  10 295.935 7.26205   1
   5   5  11 120.662 3.57828   1
   5   5  12 711.694 17.0949   1
   5   5  13 96.9506 2.69762   1
   5   5  14  105.77 3.00769   1
   5   5  15 23.7025 1.46817   1
   5   5  16  376.10 9.80437   1
   5   5  17 268.135 7.06492   1
   5   5  18 8.90241 1.98213   1
   5   5  19 61.3645 2.76696   1
   5   5  20 208.909 7.82755   1
   5   5  21 70.3637    3.77   1
   5   5  22 39.4365 2.11098   1
   5   5  23 76.6177 3.08086   1
   5   5  24 139.433 4.77471   1
   5   5  25 23.4831 3.38792   1
   5   5  26 65.2888 3.74489   1
   5   5  27 78.6283 5.32478   1
   5   6 -26 58.6787 4.59038   1
   5   6 -25 236.191 10.1434   1
   5   6 -24 10.3944  3.5165   1
   5   6 -23 90.7629 3.77549   1
   5   6 -22 4.48608 1.63909   1
   5   6 -21 215.996 6.65345   1
   5   6 -20  32.809 3.05175   1
   5   6 -19  128.74 3.94198   1
   5   6 -18 1.57042 1.25209   1
   5   6 -17 385.611 11.1963   1
   5   6 -16 83.9785 2.71933   1
   5   6 -15 264.108 7.66173   1
   5   6 -14 21.0232 2.40122   1
   5   6 -13 104.882 3.79198   1
   5   6 -12 41.4733 1.57892   1
   5   6 -11 604.871 15.0956   1
   5   6 -10 131.653 3.59309   1
   5   6  -9 39.0524  1.4525   1
   5   6  -8  254.00  6.4953   1
   5   6  -7 927.097 21.9487   1
   5   6  -6 15.2788 2.28672   1
   5   6  -5 51.3587 2.55498   1
   5   6  -4 165.025 4.91511   1
   5   6  -3  812.46 19.4983   1
   5   6  -2 12.6967 1.41316   1
   5   6  -1 730.669 17.3375   1
   5   6   0 67.3721 2.42514   1
   5   6   1 726.057 17.2321   1
   5   6   2 16.3956  1.9662   1
   5   6   3 795.273 18.9499   1
   5   6   4 163.858 4.62498   1
   5   6   5 59.6128 2.44704   1
   5   6   6 15.8592 1.83094   1
   5   6   7 883.857 21.2034   1
   5   6   8  241.54 6.42512   1
   5   6   9 37.9298  1.4363   1
   5   6  10 129.149  3.6398   1
   5   6  11 621.522 14.9306   1
   5   6  12 43.2023  1.8953   1
   5   6  13 99.9837 3.32342   1
   5   6  14 16.3007 1.53926   1
   5   6  15 263.912 6.78017   1
   5   6  16  80.903 2.59822   1
   5   6  17 379.477 9.74825   1
   5   6  18 2.05867 1.15252   1
   5   6  19 130.682 4.25369   1
   5   6  20 27.9694 2.54634   1
   5   6  21 221.748 8.13983   1
   5   6  22 4.79345 1.53661   1
   5   6  23 100.236 3.69197   1
   5   6  24 8.87182 2.09368   1
   5   6  25 226.397 7.47999   1
   5   6  26 49.1534 3.51977   1
   5   7 -26 37.4305 4.46772   1
   5   7 -25  10.658 3.60749   1
   5   7 -24 85.9892 12.0689   1
   5   7 -23 54.8139 3.30159   1
   5   7 -22 113.934 5.82392   1
   5   7 -21 88.6337 3.86424   1
   5   7 -20 177.278 9.15601   1
   5   7 -19 182.492 6.51195   1
   5   7 -18 27.9637 1.82466   1
   5   7 -17 36.1981 2.69612   1
   5   7 -16 242.191 6.82842   1
   5   7 -15 278.568 7.51769   1
   5   7 -14 62.8168 2.82054   1
   5   7 -13 104.945 4.57416   1
   5   7 -12 886.581 22.5048   1
   5   7 -11 295.603 7.62853   1
   5   7 -10 236.921 6.66977   1
   5   7  -9 547.328  13.241   1
   5   7  -8 463.882  11.485   1
   5   7  -7 334.176 8.27026   1
   5   7  -6 792.937 19.1731   1
   5   7  -5 632.879 15.7498   1
   5   7  -4 511.887 12.7043   1
   5   7  -3 415.591 10.1657   1
   5   7  -2 731.399 17.3759   1
   5   7  -1 365.803 9.10944   1
   5   7   0 3.07445 1.95795   1
   5   7   1 363.826 9.30317   1
   5   7   2 745.561 18.0533   1
   5   7   3 429.718 10.4924   1
   5   7   4 492.171 12.6743   1
   5   7   5 600.391  14.394   1
   5   7   6 759.465 19.6258   1
   5   7   7 316.391 8.06616   1
   5   7   8 470.111 12.0708   1
   5   7   9 550.354 13.1356   1
   5   7  10 236.711  5.8065   1
   5   7  11 288.266 7.10314   1
   5   7  12 888.786 21.3837   1
   5   7  13 107.508 3.04422   1
   5   7  14 62.0135 2.22474   1
   5   7  15  274.00  7.0311   1
   5   7  16 225.371 5.91422   1
   5   7  17 35.8292 1.92477   1
   5   7  18 29.3752 1.57242   1
   5   7  19 189.415 5.39414   1
   5   7  20 166.677 5.01717   1
   5   7  21 88.0707 3.16031   1
   5   7  22 114.935 4.34779   1
   5   7  23 54.5651 2.85298   1
   5   7  24 82.2735 3.88962   1
   5   7  25  10.623 2.80389   1
   5   7  26 36.7716 4.24818   1
   5   8 -26 48.2136  4.7951   1
   5   8 -25 3.43907  3.4459   1
   5   8 -24 134.728 12.3028   1
   5   8 -23 19.3892 2.79717   1
   5   8 -22  153.76 5.41629   1
   5   8 -21 136.997 5.30911   1
   5   8 -20 65.7823 3.24717   1
   5   8 -19 99.5286 3.70993   1
   5   8 -18 222.637 6.42965   1
   5   8 -17 12.9231 1.55137   1
   5   8 -16 15.8502 1.63495   1
   5   8 -15 36.6055 2.33295   1
   5   8 -14 472.218 13.4937   1
   5   8 -13 340.618 8.85116   1
   5   8 -12 102.037 4.35119   1
   5   8 -11 307.451 7.83017   1
   5   8 -10 466.349 11.7701   1
   5   8  -9 295.537 7.33002   1
   5   8  -8 440.102 10.7395   1
   5   8  -7 191.772 4.86077   1
   5   8  -6 430.692 10.4642   1
   5   8  -5 211.897 5.75209   1
   5   8  -4 744.526 18.3812   1
   5   8  -3 982.582   23.27   1
   5   8  -2 108.022 3.13126   1
   5   8  -1 0.96069 1.32681   1
   5   8   0 550.075 13.9806   1
   5   8   1 3.53175 1.46891   1
   5   8   2 108.218 2.75497   1
   5   8   3 993.992 25.1001   1
   5   8   4 737.482 17.8337   1
   5   8   5 211.046 5.72108   1
   5   8   6 424.795 10.1927   1
   5   8   7 201.615 5.18857   1
   5   8   8  427.03 10.3276   1
   5   8   9 304.681 7.39961   1
   5   8  10 475.422  11.389   1
   5   8  11 294.129 7.22508   1
   5   8  12 90.8581 2.57722   1
   5   8  13 348.965 8.70958   1
   5   8  14 452.421 14.1527   1
   5   8  15 34.8606 1.61805   1
   5   8  16 10.3787 1.22938   1
   5   8  17 17.3006 1.52621   1
   5   8  18 218.502 7.00805   1
   5   8  19 99.5083 3.59953   1
   5   8  20 61.6567 2.56151   1
   5   8  21 147.164  4.9758   1
   5   8  22 162.235  5.0899   1
   5   8  23 18.8264 2.40222   1
   5   8  24 136.139 5.43928   1
   5   8  25 0.72923 2.45986   1
   5   8  26 46.4092 3.95713   1
   5   9 -25  5.6668 4.25802   1
   5   9 -24 51.6525 5.02597   1
   5   9 -23 264.774 18.8251   1
   5   9 -22 15.1866 2.35083   1
   5   9 -21 161.852 5.87164   1
   5   9 -20 114.259 4.88682   1
   5   9 -19  301.50 9.67649   1
   5   9 -18 149.525 7.58645   1
   5   9 -17 151.976 7.99464   1
   5   9 -16 4.08397 1.48454   1
   5   9 -15 121.632  3.9497   1
   5   9 -14 17.3965 1.96318   1
   5   9 -13 858.413 22.1319   1
   5   9 -12 190.092 6.80487   1
   5   9 -11 297.778 7.74433   1
   5   9 -10 130.589 4.23425   1
   5   9  -9 442.652 12.5424   1
   5   9  -8 72.6146 2.59573   1
   5   9  -7 144.766  3.7457   1
   5   9  -6  102.75 3.40644   1
   5   9  -5 1378.19 33.0273   1
   5   9  -4 33.5229 2.28511   1
   5   9  -3 195.047 5.31854   1
   5   9  -2 80.1019 2.54707   1
   5   9  -1 513.265 12.8852   1
   5   9   0   99.45 2.73746   1
   5   9   1 516.791 12.5644   1
   5   9   2 82.2387 2.19897   1
   5   9   3 210.657 5.25078   1
   5   9   4   33.69 1.97591   1
   5   9   5 1352.62 31.8812   1
   5   9   6 104.953 3.19849   1
   5   9   7 146.874 4.50384   1
   5   9   8 75.0957   2.499   1
   5   9   9 412.905 10.2365   1
   5   9  10 129.543 3.66723   1
   5   9  11 298.014 7.39127   1
   5   9  12  182.22 5.29057   1
   5   9  13 874.831 21.3243   1
   5   9  14  18.214 1.64529   1
   5   9  15 126.264 5.35931   1
   5   9  16 1.61492 1.25526   1
   5   9  17 146.307 4.65916   1
   5   9  18 149.723 4.38197   1
   5   9  19 317.811 8.54705   1
   5   9  20 113.153 3.71018   1
   5   9  21 169.384 5.73412   1
   5   9  22 9.24922 2.31075   1
   5   9  23  251.29 11.0133   1
   5   9  24 56.1034  4.0724   1
   5   9  25 5.17829 2.81064   1
   5  10 -25 58.0205 6.79227   1
   5  10 -24 43.1726 6.18614   1
   5  10 -23 71.4316 9.82243   1
   5  10 -22 114.259 8.31729   1
   5  10 -21 152.695 5.70387   1
   5  10 -20    5.87 1.94954   1
   5  10 -19   62.06 3.24446   1
   5  10 -18 146.498 5.75191   1
   5  10 -17 36.7576 2.49925   1
   5  10 -16 27.6777 2.24341   1
   5  10 -15 302.811 10.2828   1
   5  10 -14  336.29 10.1642   1
   5  10 -13  31.624 1.53726   1
   5  10 -12 37.3021  1.6408   1
   5  10 -11 192.321 5.29466   1
   5  10 -10 248.518 6.46454   1
   5  10  -9 425.461 10.5944   1
   5  10  -8 258.357 6.64143   1
   5  10  -7 156.971 4.14424   1
   5  10  -6 40.5566 1.88448   1
   5  10  -5 137.848 4.15899   1
   5  10  -4 393.062 10.7105   1
   5  10  -3 73.5674 2.48092   1
   5  10  -2 58.6283 2.74988   1
   5  10  -1 1.36333 2.05508   1
   5  10   0 146.753 3.95871   1
   5  10   1 0.78895 2.42912   1
   5  10   2 60.7525 2.56228   1
   5  10   3 67.3697 2.87496   1
   5  10   4  368.50  9.1595   1
   5  10   5 148.795 3.98701   1
   5  10   6 39.9578 2.10641   1
   5  10   7 134.158 3.54106   1
   5  10   8 258.696 7.43902   1
   5  10   9 425.817 11.1589   1
   5  10  10 258.186 6.45704   1
   5  10  11 209.971 5.72645   1
   5  10  12 41.1468 1.64352   1
   5  10  13 29.2728 1.55492   1
   5  10  14 352.918 9.79064   1
   5  10  15 288.714 7.65752   1
   5  10  16 23.6362  1.4556   1
   5  10  17 44.4973 1.98801   1
   5  10  18 149.371 4.68855   1
   5  10  19 57.4523 2.61944   1
   5  10  20 8.49218 1.86017   1
   5  10  21 152.675 4.98252   1
   5  10  22 116.251 4.34083   1
   5  10  23 73.7018 3.74867   1
   5  10  24 44.8363 3.49934   1
   5  10  25 57.3295 4.23612   1
   5  11 -24  128.14 7.09887   1
   5  11 -23  62.705 5.58357   1
   5  11 -22 38.7774 4.64555   1
   5  11 -21 43.4548 6.71603   1
   5  11 -20 282.322 12.0453   1
   5  11 -19 24.6427 2.42053   1
   5  11 -18 4.31553 1.91403   1
   5  11 -17 93.2554 4.82575   1
   5  11 -16  257.59 14.5918   1
   5  11 -15 17.2306 1.70011   1
   5  11 -14 136.919 5.97765   1
   5  11 -13 68.9959 2.74836   1
   5  11 -12 303.921 8.33805   1
   5  11 -11 53.9953 1.88137   1
   5  11 -10 328.868 8.53448   1
   5  11  -9 99.8712  3.3467   1
   5  11  -8 194.145 5.84004   1
   5  11  -7 107.756 3.04263   1
   5  11  -6 442.759 11.8653   1
   5  11  -5 117.402 3.57435   1
   5  11  -4 74.2446 2.12061   1
   5  11  -3 116.547 3.18234   1
   5  11  -2  560.94 13.7505   1
   5  11  -1 109.327 2.88846   1
   5  11   0 2.02875 2.46557   1
   5  11   1 104.905 3.17618   1
   5  11   2 558.228 13.6499   1
   5  11   3 126.565 3.72716   1
   5  11   4  72.693 3.03092   1
   5  11   5 116.478  3.1021   1
   5  11   6 439.469 11.8785   1
   5  11   7 102.971  3.3543   1
   5  11   8 193.549 5.81672   1
   5  11   9 94.6732 2.81412   1
   5  11  10 327.936  8.8411   1
   5  11  11 52.3627 1.73921   1
   5  11  12 301.537 7.65254   1
   5  11  13 68.1341 2.48187   1
   5  11  14 125.356 3.60821   1
   5  11  15 12.2697 1.30482   1
   5  11  16 263.479 7.17165   1
   5  11  17 93.7492 3.57933   1
   5  11  18 4.10842 1.55135   1
   5  11  19 25.5485 1.74397   1
   5  11  20 283.675 8.81741   1
   5  11  21 40.0836 2.59062   1
   5  11  22 36.1622  3.0739   1
   5  11  23  58.239 4.06449   1
   5  11  24 130.746 6.28995   1
   5  12 -24 5.97693 6.44094   1
   5  12 -23 42.5626 10.9324   1
   5  12 -22  0.0234 4.54375   1
   5  12 -21  263.25 9.72885   1
   5  12 -20 13.9892 2.78235   1
   5  12 -19 110.764 6.15603   1
   5  12 -18 13.3216 3.28603   1
   5  12 -17 127.505  4.6193   1
   5  12 -16 145.548 5.89551   1
   5  12 -15 232.814 7.34372   1
   5  12 -14 44.0106 2.62793   1
   5  12 -13 32.0959 1.89377   1
   5  12 -12 47.7828 2.06105   1
   5  12 -11 467.635 12.1858   1
   5  12 -10 117.307 3.46652   1
   5  12  -9 130.501 3.71208   1
   5  12  -8 79.8071 2.55548   1
   5  12  -7 828.905 20.1218   1
   5  12  -6 34.5341 1.41747   1
   5  12  -5 26.2061 1.42572   1
   5  12  -4 54.0509 1.88031   1
   5  12  -3 123.866 4.50955   1
   5  12  -2 23.3831  1.4004   1
   5  12  -1 273.244 7.32362   1
   5  12   0 41.9617  1.4963   1
   5  12   1 265.189 6.85653   1
   5  12   2 21.9787 1.10154   1
   5  12   3 118.751 3.87604   1
   5  12   4 53.2392 1.83549   1
   5  12   5 27.4984 1.12435   1
   5  12   6 31.0299 1.52389   1
   5  12   7 789.624 19.4829   1
   5  12   8 83.8636 2.78341   1
   5  12   9 133.891  5.3451   1
   5  12  10 109.935 3.22994   1
   5  12  11 497.815  12.758   1
   5  12  12 45.4093 2.08849   1
   5  12  13 29.9953 1.70152   1
   5  12  14 46.4977 2.31809   1
   5  12  15 241.929 7.41919   1
   5  12  16 138.602 4.36809   1
   5  12  17 128.046  3.9999   1
   5  12  18 13.1728 1.71047   1
   5  12  19 117.855 4.86332   1
   5  12  20  13.468 2.43992   1
   5  12  21 258.562 9.32915   1
   5  12  22  4.9604   3.161   1
   5  12  23 48.6219 3.70023   1
   5  12  24 11.5565 3.43308   1
   5  13 -23 51.3295 7.16305   1
   5  13 -22 127.313 5.72501   1
   5  13 -21 2.29885 3.09358   1
   5  13 -20 184.503 24.3296   1
   5  13 -19 86.0997 4.46803   1
   5  13 -18 2.58444  3.1492   1
   5  13 -17 77.6035 3.75026   1
   5  13 -16 233.365 7.82448   1
   5  13 -15 254.671 8.71065   1
   5  13 -14 85.4685 3.18006   1
   5  13 -13 56.4056 2.43052   1
   5  13 -12 275.134 7.85794   1
   5  13 -11 151.933 4.54474   1
   5  13 -10 100.882 3.80533   1
   5  13  -9 449.466  14.556   1
   5  13  -8 102.139 4.13228   1
   5  13  -7 115.019 5.61787   1
   5  13  -6  295.54 7.81739   1
   5  13  -5 508.148 12.9442   1
   5  13  -4 309.459 7.82546   1
   5  13  -3 123.406 3.42694   1
   5  13  -2 451.787 11.3196   1
   5  13  -1 502.416  12.483   1
   5  13   0 0.88001 1.14809   1
   5  13   1 500.967 12.5681   1
   5  13   2 461.533 11.6295   1
   5  13   3 124.305 3.37645   1
   5  13   4 288.481 7.36563   1
   5  13   5 509.463  12.846   1
   5  13   6 297.368 8.12056   1
   5  13   7 119.184 4.01542   1
   5  13   8 95.8522 3.04386   1
   5  13   9 441.981 11.4914   1
   5  13  10 91.7524 2.98196   1
   5  13  11 149.879 4.82653   1
   5  13  12 285.458 7.70839   1
   5  13  13 62.2925 2.35078   1
   5  13  14 83.6732 2.78377   1
   5  13  15 244.076 8.33309   1
   5  13  16 235.651 7.21013   1
   5  13  17  71.739 3.33221   1
   5  13  18 4.14527 1.88713   1
   5  13  19 84.3519 3.79383   1
   5  13  20 180.639 6.53718   1
   5  13  21 2.26302 2.55208   1
   5  13  22 124.215 5.12306   1
   5  13  23 43.6577 3.96606   1
   5  14 -22 38.1967 3.82678   1
   5  14 -21  101.59 6.25503   1
   5  14 -20 21.1413 5.32423   1
   5  14 -19 44.5516 5.20566   1
   5  14 -18  293.69 10.1136   1
   5  14 -17 18.3683  2.2534   1
   5  14 -16 92.5937 3.56916   1
   5  14 -15 113.873 5.18645   1
   5  14 -14 338.733 9.59551   1
   5  14 -13 60.4109 3.22719   1
   5  14 -12 9.25425 1.45921   1
   5  14 -11 34.1757 2.57544   1
   5  14 -10 541.477 15.6723   1
   5  14  -9 20.7191 1.89553   1
   5  14  -8 449.746 12.6597   1
   5  14  -7 51.9144 4.45236   1
   5  14  -6 372.811  11.948   1
   5  14  -5 29.8926 2.26803   1
   5  14  -4 697.518 19.5679   1
   5  14  -3 409.788 10.6419   1
   5  14  -2 72.4941  2.6381   1
   5  14  -1 77.5454 2.55298   1
   5  14   0 816.339 20.4109   1
   5  14   1 80.5483 3.24582   1
   5  14   2 65.2416 2.36348   1
   5  14   3 417.105 10.9433   1
   5  14   4 700.388 17.4248   1
   5  14   5 28.8732 1.77101   1
   5  14   6 349.298  9.3441   1
   5  14   7 53.4806    2.24   1
   5  14   8 411.657 11.2806   1
   5  14   9 28.3558 3.85386   1
   5  14  10 562.061 15.6227   1
   5  14  11 30.8476 3.77569   1
   5  14  12 10.5985 1.98227   1
   5  14  13 60.7488 2.98528   1
   5  14  14 328.983 12.7558   1
   5  14  15 116.535 3.89013   1
   5  14  16 87.7665 3.81365   1
   5  14  17  15.327 1.84603   1
   5  14  18 317.328 9.52282   1
   5  14  19 56.0087  3.7401   1
   5  14  20 16.8882 2.73492   1
   5  14  21 104.464 5.62154   1
   5  14  22 46.7067 3.60544   1
   5  15 -21 15.7759 3.53348   1
   5  15 -20 16.5585 3.84849   1
   5  15 -19 208.953 7.93076   1
   5  15 -18 34.4503  3.2991   1
   5  15 -17 53.7191 3.00803   1
   5  15 -16 3.50229 2.00957   1
   5  15 -15  87.803 4.42778   1
   5  15 -14 2.51052 1.89546   1
   5  15 -13 537.479 15.8298   1
   5  15 -12 28.3718 2.81917   1
   5  15 -11 141.107 5.14239   1
   5  15 -10 14.4743 1.78668   1
   5  15  -9 343.014 11.4635   1
   5  15  -8 21.4489 2.46865   1
   5  15  -7  50.709  2.9583   1
   5  15  -6 27.5019 3.11809   1
   5  15  -5 1283.09 35.7262   1
   5  15  -4 13.8628 1.82046   1
   5  15  -3 85.1355 3.10272   1
   5  15  -2 56.1631 2.21494   1
   5  15  -1 378.173 10.1314   1
   5  15   0 114.909 3.53738   1
   5  15   1 371.435 9.77931   1
   5  15   2 55.0213 2.22376   1
   5  15   3 91.8163 2.84183   1
   5  15   4 14.1506 1.37775   1
   5  15   5 1281.52 31.9977   1
   5  15   6 24.1034 1.98704   1
   5  15   7 53.3947 4.91623   1
   5  15   8 20.6479 1.95087   1
   5  15   9 342.695 11.6879   1
   5  15  10 19.0459 2.15141   1
   5  15  11 151.531 6.84301   1
   5  15  12 32.7673 3.12418   1
   5  15  13 548.103 15.4788   1
   5  15  14-2.18706 5.07774   1
   5  15  15 85.9203 4.89322   1
   5  15  16 5.92857 2.14856   1
   5  15  17 48.3965 3.94687   1
   5  15  18  38.163 3.40715   1
   5  15  19 202.695 6.86315   1
   5  15  20 11.0681 3.46345   1
   5  15  21  15.497 2.70956   1
   5  16 -20 49.8204 5.57191   1
   5  16 -19  18.105 3.52801   1
   5  16 -18 122.463 7.13858   1
   5  16 -17 4.66386 3.15075   1
   5  16 -16 16.1829 2.52759   1
   5  16 -15 153.553 5.98368   1
   5  16 -14 201.248 7.69736   1
   5  16 -13 43.5936  2.8318   1
   5  16 -12 23.6764 2.37331   1
   5  16 -11 81.0832  5.0199   1
   5  16 -10  274.32 8.71353   1
   5  16  -9 106.103 4.09165   1
   5  16  -8 135.724 5.28483   1
   5  16  -7 44.7909 2.41637   1
   5  16  -6 223.082 7.65517   1
   5  16  -5 52.1492 2.30426   1
   5  16  -4 438.848 11.9478   1
   5  16  -3  107.39 3.59339   1
   5  16  -2 96.4769 3.35519   1
   5  16  -1 29.3536 1.98107   1
   5  16   0 274.738 8.03644   1
   5  16   1 22.2921 1.71299   1
   5  16   2 106.794 3.52151   1
   5  16   3 106.714 3.69065   1
   5  16   4 439.908 11.6921   1
   5  16   5 53.6688 2.26119   1
   5  16   6 222.589 6.95322   1
   5  16   7 41.7837 2.33086   1
   5  16   8 126.145 4.32224   1
   5  16   9 107.632 3.83871   1
   5  16  10 283.177 8.37357   1
   5  16  11 77.6053   3.798   1
   5  16  12 24.6223 2.42791   1
   5  16  13  38.248 2.74085   1
   5  16  14 187.207 6.38221   1
   5  16  15 149.958 5.50557   1
   5  16  16 19.2503 2.60585   1
   5  16  17 5.61613 3.67851   1
   5  16  18 136.756 5.85512   1
   5  16  19 16.3815 3.44911   1
   5  16  20 48.2602 3.48198   1
   5  17 -19 8.20868 5.21914   1
   5  17 -18 19.3076  5.1579   1
   5  17 -17 34.2565 9.21758   1
   5  17 -16 229.744    9.76   1
   5  17 -15 48.8077 5.99025   1
   5  17 -14 63.5018 3.89697   1
   5  17 -13 54.9427 4.20282   1
   5  17 -12 138.034 7.37429   1
   5  17 -11 4.51804 2.17824   1
   5  17 -10 215.064 17.0424   1
   5  17  -9 94.3482 4.24392   1
   5  17  -8 80.9228 9.62012   1
   5  17  -7 4.03558  1.8223   1
   5  17  -6 139.353 7.44789   1
   5  17  -5 60.9675 2.64547   1
   5  17  -4  12.721 1.86921   1
   5  17  -3 133.111  4.2983   1
   5  17  -2 262.501 7.51437   1
   5  17  -1   66.10 2.96987   1
   5  17   0 5.69579 1.78336   1
   5  17   1 60.3666 3.78346   1
   5  17   2 263.731   7.374   1
   5  17   3 137.248 4.22841   1
   5  17   4 8.65169 1.49205   1
   5  17   5 64.5373 2.75645   1
   5  17   6 129.196    4.40   1
   5  17   7 3.10022 3.01499   1
   5  17   8 80.0058 4.29383   1
   5  17   9 100.475 7.40392   1
   5  17  10 200.061 6.84441   1
   5  17  11 8.88567 2.43591   1
   5  17  12 135.518 5.80911   1
   5  17  13 47.4185 2.93163   1
   5  17  14 60.1469 3.40039   1
   5  17  15 41.9044 3.39236   1
   5  17  16 204.149 7.64362   1
   5  17  17 34.2289 3.61726   1
   5  17  18 19.1222 3.32111   1
   5  17  19 5.18777 3.77885   1
   5  18 -18 69.7482 9.64153   1
   5  18 -17  81.812 6.03159   1
   5  18 -16 10.2491 4.85179   1
   5  18 -15 191.249 10.1403   1
   5  18 -14 6.08101 5.06268   1
   5  18 -13 0.40318 3.11961   1
   5  18 -12 37.8775 3.45914   1
   5  18 -11 148.959 5.95568   1
   5  18 -10 6.51231 2.66885   1
   5  18  -9 107.108 6.79066   1
   5  18  -8 7.63335 2.68266   1
   5  18  -7 282.626 9.53872   1
   5  18  -6  103.44 5.95175   1
   5  18  -5 6.70842 1.78998   1
   5  18  -4 13.9932 1.78722   1
   5  18  -3 72.3978 2.83659   1
   5  18  -2 80.4928 4.87235   1
   5  18  -1 163.147 5.53824   1
   5  18   0 57.7544 3.68765   1
   5  18   1 164.129 5.14647   1
   5  18   2  80.779 4.17541   1
   5  18   3 58.6777  3.0027   1
   5  18   4  16.174 1.91455   1
   5  18   5 9.42518 1.91799   1
   5  18   6 105.625 3.89372   1
   5  18   7 274.024 8.56632   1
   5  18   8 8.81044  2.6133   1
   5  18   9 117.739 4.41621   1
   5  18  10 10.1789 2.15936   1
   5  18  11 156.656 8.35271   1
   5  18  12 34.5468 4.44071   1
   5  18  13 4.66165 3.02924   1
   5  18  14 6.42197 2.53729   1
   5  18  15 197.728 7.53446   1
   5  18  16 3.80873 3.29614   1
   5  18  17 74.3242 4.20971   1
   5  18  18  70.239 4.41744   1
   5  19 -17 53.2037 11.8972   1
   5  19 -16 115.013 10.4207   1
   5  19 -15 105.262 7.35588   1
   5  19 -14  92.957 5.75809   1
   5  19 -13 59.1418 6.59199   1
   5  19 -12 102.527 6.04392   1
   5  19 -11  37.003 3.96622   1
   5  19 -10 87.0064 4.83994   1
   5  19  -9 227.072 8.42038   1
   5  19  -8 14.5612 2.96753   1
   5  19  -7 72.9307 5.32501   1
   5  19  -6 223.967  8.2101   1
   5  19  -5 149.837 8.66422   1
   5  19  -4 230.143 13.4522   1
   5  19  -3 76.7305 3.64494   1
   5  19  -2 117.107  5.9025   1
   5  19  -1 145.439  4.8121   1
   5  19   0-1.39676 4.15807   1
   5  19   1 162.353  5.0361   1
   5  19   2 130.504 4.71292   1
   5  19   3  84.437 3.64428   1
   5  19   4  232.67 7.25502   1
   5  19   5 139.067 4.59256   1
   5  19   6  232.84 9.64485   1
   5  19   7 76.1844 4.20127   1
   5  19   8 20.6018 3.33634   1
   5  19   9 225.001 8.65365   1
   5  19  10 85.0235 3.78907   1
   5  19  11  28.104  3.4262   1
   5  19  12 96.3499 4.54453   1
   5  19  13 65.1155 4.26025   1
   5  19  14 93.9227 4.67621   1
   5  19  15 103.416 5.26779   1
   5  19  16 114.075 5.34807   1
   5  19  17 46.6837 3.77367   1
   5  20 -15 73.3051 6.30954   1
   5  20 -14 186.883 20.5212   1
   5  20 -13 21.1089 4.70985   1
   5  20 -12 43.3989 5.13419   1
   5  20 -11-4.01387 4.79372   1
   5  20 -10 185.745 8.75602   1
   5  20  -9-0.27287  6.1602   1
   5  20  -8 163.856 7.15308   1
   5  20  -7 42.3426 2.89081   1
   5  20  -6  165.45 6.63455   1
   5  20  -5 66.1692 4.61045   1
   5  20  -4 257.113 8.41051   1
   5  20  -3 97.6725 4.07165   1
   5  20  -2 5.66802 2.29136   1
   5  20  -1 84.2434 3.29152   1
   5  20   0 303.002 10.3719   1
   5  20   1 89.1745  3.2783   1
   5  20   2 2.99716 2.37884   1
   5  20   3 94.4372 3.52802   1
   5  20   4 257.129 7.96967   1
   5  20   5 65.5081 3.04995   1
   5  20   6 159.604 7.17411   1
   5  20   7 42.8888 4.90069   1
   5  20   8 159.759 8.74432   1
   5  20   9 4.30928 2.68269   1
   5  20  10 177.155 9.15141   1
   5  20  11-0.12793 5.15271   1
   5  20  12 45.7397 3.64023   1
   5  20  13 21.0266 3.41953   1
   5  20  14 183.242  7.3487   1
   5  20  15 84.7519 4.76868   1
   5  21 -14 14.1102 6.04549   1
   5  21 -13  266.15 15.8965   1
   5  21 -12  4.1689 3.82576   1
   5  21 -11 77.4284 6.20056   1
   5  21 -10  6.4665 6.38613   1
   5  21  -9  191.29 9.28768   1
   5  21  -8 73.8381 7.97061   1
   5  21  -7 12.2688 5.54702   1
   5  21  -6 4.44954 3.35734   1
   5  21  -5 460.939 19.5999   1
   5  21  -4 24.9543 3.09536   1
   5  21  -3  150.69 6.71512   1
   5  21  -2 54.2063 3.12348   1
   5  21  -1 269.414 8.77897   1
   5  21   0 8.55716 1.92004   1
   5  21   1 266.142 7.88373   1
   5  21   2 49.8734 2.76237   1
   5  21   3  152.70 6.07419   1
   5  21   4 29.8544 3.03298   1
   5  21   5 440.409 14.9475   1
   5  21   6 12.6461 2.88822   1
   5  21   7 7.59715 2.30637   1
   5  21   8   56.80 3.70344   1
   5  21   9 193.579 7.75759   1
   5  21  10 9.12111 4.23699   1
   5  21  11 85.6795 5.61624   1
   5  21  12 10.9882  3.5807   1
   5  21  13 259.572 10.2283   1
   5  21  14 8.43359 4.34583   1
   5  22 -11 60.8676 12.5846   1
   5  22 -10 248.974 18.5582   1
   5  22  -9 11.2991 8.09573   1
   5  22  -8 54.3479 4.88993   1
   5  22  -7 63.2352 8.63485   1
   5  22  -6 144.021 13.1089   1
   5  22  -5 47.6204 5.96795   1
   5  22  -4 244.781 10.4796   1
   5  22  -3 163.849 14.4693   1
   5  22  -2  107.91 4.92918   1
   5  22  -1 28.2928 2.70706   1
   5  22   0  210.73 6.76691   1
   5  22   1 21.2652  2.1253   1
   5  22   2 112.334 4.08721   1
   5  22   3 156.506 5.45454   1
   5  22   4  236.76 7.97496   1
   5  22   5 45.0347 4.52665   1
   5  22   6 146.279  6.1985   1
   5  22   7 62.1802 7.43626   1
   5  22   8 43.9771 3.54769   1
   5  22   9 8.93347  2.9727   1
   5  22  10 272.182 11.1773   1
   5  22  11   69.13 5.54659   1
   5  23  -9 88.5379 6.94395   1
   5  23  -8 88.3128 6.21712   1
   5  23  -7 8.26595 11.5631   1
   5  23  -6 135.355 7.72509   1
   5  23  -5 85.1068 8.38595   1
   5  23  -4 39.1633 4.58802   1
   5  23  -3 35.3785 4.18296   1
   5  23  -2 227.901 13.4041   1
   5  23  -1  64.926  3.5813   1
   5  23   0  11.534 2.62506   1
   5  23   1 69.6566 4.50606   1
   5  23   2 215.681 7.33723   1
   5  23   3 47.6293 3.51895   1
   5  23   4  40.811 4.46369   1
   5  23   5 85.1794 4.33085   1
   5  23   6 135.676  5.4439   1
   5  23   7 16.4119  3.4427   1
   5  23   8 84.6773 4.55106   1
   5  23   9 96.2125  7.1176   1
   5  24  -4 4.15743 3.98393   1
   5  24  -3 53.5279 7.79189   1
   5  24  -2 37.3993 4.18469   1
   5  24  -1 117.644 8.69433   1
   5  24   0 7.66094 3.86545   1
   5  24   1 121.593 11.7332   1
   5  24   2 41.9013 3.51024   1
   5  24   3 50.1583 3.84024   1
   5  24   4-2.21382 6.74825   1
   6   0   0  385.34  10.593   1
   6   0   1 395.738 12.5254   1
   6   0   2-0.02776 8.78914   1
   6   0   3 794.893 19.9267   1
   6   0   4 812.843 23.5865   1
   6   0   5  108.00 3.93845   1
   6   0   6 17.5102 2.06973   1
   6   0   7 32.1815 1.41279   1
   6   0   8  49.786 1.97626   1
   6   0   9 512.614 12.4985   1
   6   0  10 191.545 4.86737   1
   6   0  11 53.4605  2.2199   1
   6   0  12-0.16437 3.49046   1
   6   0  13  5.1966 1.39674   1
   6   0  14 272.326  7.3289   1
   6   0  15 408.077 10.6851   1
   6   0  16 32.8464 1.74215   1
   6   0  17 73.5295 2.69212   1
   6   0  18 22.1631 1.71343   1
   6   0  19 189.004 5.46858   1
   6   0  20 115.913 3.88825   1
   6   0  21 34.6614 2.78513   1
   6   0  22 166.501 5.58343   1
   6   0  23 166.508 6.62575   1
   6   0  24 70.3154 4.21816   1
   6   0  25-0.54822 7.16459   1
   6   1 -25 94.7099 4.83475   1
   6   1 -24 114.942 9.46053   1
   6   1 -23 94.9325 5.42091   1
   6   1 -22 105.674 4.24737   1
   6   1 -21 2.85272  1.7691   1
   6   1 -20 84.6429 3.28714   1
   6   1 -19  234.90 6.86726   1
   6   1 -18 368.857 9.84502   1
   6   1 -17 137.711 4.51834   1
   6   1 -16 153.804 4.77995   1
   6   1 -15 157.943 4.58226   1
   6   1 -14 131.562 4.93485   1
   6   1 -13 170.736 5.72136   1
   6   1 -12  132.57  3.7143   1
   6   1 -11 284.877 7.22417   1
   6   1 -10 209.403 5.44564   1
   6   1  -9 243.947 6.63663   1
   6   1  -8 219.136 5.92611   1
   6   1  -7 163.458 4.77549   1
   6   1  -6 303.434 8.05886   1
   6   1  -5 820.919 19.5643   1
   6   1  -4 923.477 22.8696   1
   6   1  -3  236.21 6.54007   1
   6   1  -2  147.94 4.31894   1
   6   1  -1 667.591 16.3097   1
   6   1   0 1534.72 36.0516   1
   6   1   1 669.649 17.2209   1
   6   1   2  155.02  4.5538   1
   6   1   3 225.901 7.62404   1
   6   1   4 889.164 21.2607   1
   6   1   5 794.143 19.6284   1
   6   1   6 318.861 8.27601   1
   6   1   7 164.694  4.3748   1
   6   1   8 231.914 6.29705   1
   6   1   9 231.094 5.81031   1
   6   1  10 204.855 5.73817   1
   6   1  11 287.061 7.20028   1
   6   1  12 137.807 6.65899   1
   6   1  13 156.794 5.94183   1
   6   1  14 134.417 4.53725   1
   6   1  15 159.431 5.90301   1
   6   1  16 143.528 4.69684   1
   6   1  17 144.149 4.24626   1
   6   1  18 370.803  10.732   1
   6   1  19 225.773 6.64157   1
   6   1  20 85.3614 4.15356   1
   6   1  21 1.33175 1.98646   1
   6   1  22 95.6128 5.09999   1
   6   1  23 90.0889 4.41493   1
   6   1  24 109.572 5.05301   1
   6   1  25 97.6106 5.07108   1
   6   2 -25 109.589 9.16867   1
   6   2 -24 90.7488 4.88666   1
   6   2 -23  86.663  5.5682   1
   6   2 -22 7.16706 2.22354   1
   6   2 -21 123.962 5.41256   1
   6   2 -20 254.914 7.76939   1
   6   2 -19 157.796 5.12084   1
   6   2 -18 47.3217 2.76045   1
   6   2 -17 55.8812 2.46012   1
   6   2 -16 327.124 10.2109   1
   6   2 -15 194.527 6.33354   1
   6   2 -14 35.3748 2.55479   1
   6   2 -13 29.4558 1.40205   1
   6   2 -12 9.63907 1.00793   1
   6   2 -11 35.2483 1.63983   1
   6   2 -10 240.261 6.08532   1
   6   2  -9 241.393 6.23169   1
   6   2  -8 152.829 3.96486   1
   6   2  -7 74.5854 3.38799   1
   6   2  -6 216.753 5.84046   1
   6   2  -5 313.701 7.96121   1
   6   2  -4 172.033 4.60471   1
   6   2  -3 207.532 5.30079   1
   6   2  -2 407.168 10.1019   1
   6   2  -1 192.482 5.24746   1
   6   2   0  476.26 11.9374   1
   6   2   1 181.053 5.64814   1
   6   2   2 390.357 9.79823   1
   6   2   3 213.663 6.70942   1
   6   2   4 156.536 4.87305   1
   6   2   5 329.587 8.19872   1
   6   2   6 224.323 7.40419   1
   6   2   7 69.6675  2.4511   1
   6   2   8 143.544 3.74803   1
   6   2   9 244.982 6.17996   1
   6   2  10 239.896 6.05911   1
   6   2  11 38.2749 1.42738   1
   6   2  12 12.3696 1.07097   1
   6   2  13 27.3354  1.8794   1
   6   2  14  43.098 2.32047   1
   6   2  15 184.506 5.33097   1
   6   2  16 331.708  10.106   1
   6   2  17 49.7688 2.31948   1
   6   2  18 47.6572 2.44321   1
   6   2  19 158.003 5.54309   1
   6   2  20 246.099 7.74175   1
   6   2  21  115.92  3.9571   1
   6   2  22 6.54411 2.03813   1
   6   2  23 86.2765 4.84929   1
   6   2  24 84.1301 5.56208   1
   6   2  25 94.5493 6.00375   1
   6   3 -25 231.001 10.0349   1
   6   3 -24 127.055 6.70526   1
   6   3 -23  52.945 3.52568   1
   6   3 -22 7.96269 2.60477   1
   6   3 -21 267.968   8.335   1
   6   3 -20 156.814 6.20199   1
   6   3 -19 119.415 4.36873   1
   6   3 -18 49.7653 2.42139   1
   6   3 -17 269.412 7.63199   1
   6   3 -16 219.145 6.59481   1
   6   3 -15  170.54 7.59886   1
   6   3 -14 6.53606 1.37101   1
   6   3 -13 33.3649 1.52298   1
   6   3 -12 23.7462 1.26054   1
   6   3 -11 146.602 3.92435   1
   6   3 -10 185.723 5.26398   1
   6   3  -9 47.2062 1.58673   1
   6   3  -8 83.1671 2.62548   1
   6   3  -7 551.705 14.4596   1
   6   3  -6 126.135 3.86562   1
   6   3  -5 193.957 6.41278   1
   6   3  -4 115.744 3.63653   1
   6   3  -3 580.977 13.8442   1
   6   3  -2 270.874 6.53465   1
   6   3  -1  700.16 17.4282   1
   6   3   0 116.007 3.21944   1
   6   3   1 704.612  17.643   1
   6   3   2 252.373 6.31031   1
   6   3   3 597.843 14.3317   1
   6   3   4 114.475 3.18919   1
   6   3   5 195.248 5.24951   1
   6   3   6  133.06 3.67162   1
   6   3   7 558.631 13.3805   1
   6   3   8 75.1288 2.44435   1
   6   3   9 47.2172 1.80166   1
   6   3  10 178.391 4.99329   1
   6   3  11 151.552 4.09795   1
   6   3  12 18.2266 1.30962   1
   6   3  13 37.3191 1.87467   1
   6   3  14 7.84016 1.38477   1
   6   3  15 165.918 6.31595   1
   6   3  16 213.732 7.44928   1
   6   3  17 259.164 7.16185   1
   6   3  18 47.7834 2.58886   1
   6   3  19 129.561 4.31643   1
   6   3  20 151.014 6.53343   1
   6   3  21 284.686  8.9137   1
   6   3  22 8.65757 2.30048   1
   6   3  23  48.924 3.13759   1
   6   3  24 115.835 5.44809   1
   6   3  25 212.905 8.42939   1
   6   4 -25 83.2693 5.33849   1
   6   4 -24 82.7941 4.66134   1
   6   4 -23 92.9104  4.2857   1
   6   4 -22 52.8049 3.79849   1
   6   4 -21 157.484  5.5939   1
   6   4 -20 315.745 12.8621   1
   6   4 -19 80.0855  3.2779   1
   6   4 -18 43.8865 2.19858   1
   6   4 -17 42.7439 3.11395   1
   6   4 -16 375.059 10.4866   1
   6   4 -15  95.193 3.22887   1
   6   4 -14 48.4788 2.40776   1
   6   4 -13 197.186 5.30476   1
   6   4 -12 65.2672 2.86452   1
   6   4 -11 107.002 3.08611   1
   6   4 -10  251.83 6.88726   1
   6   4  -9 20.2598 1.11161   1
   6   4  -8 124.346 3.73507   1
   6   4  -7 72.2134 2.24867   1
   6   4  -6 181.768 4.76847   1
   6   4  -5 250.049 6.57133   1
   6   4  -4 68.5462 1.91464   1
   6   4  -3 235.002 5.95057   1
   6   4  -2 1022.05 24.5234   1
   6   4  -1 76.3522 3.11724   1
   6   4   0 17.4097 1.62189   1
   6   4   1 72.1606 2.83808   1
   6   4   2 1045.93 26.3958   1
   6   4   3 221.583 6.13187   1
   6   4   4 76.2187 2.42424   1
   6   4   5 244.801 6.32914   1
   6   4   6 175.819 4.75228   1
   6   4   7 61.0839  1.7554   1
   6   4   8 119.746 3.41431   1
   6   4   9 15.8318 1.04073   1
   6   4  10 248.965 6.46366   1
   6   4  11 112.739 3.21913   1
   6   4  12 65.8856 2.08534   1
   6   4  13 180.302 5.96359   1
   6   4  14 42.5375 1.93642   1
   6   4  15 97.0458 3.42788   1
   6   4  16 357.597 9.83786   1
   6   4  17  41.184 2.02168   1
   6   4  18 41.6828 2.54112   1
   6   4  19 78.2424 2.90196   1
   6   4  20 313.363  8.8851   1
   6   4  21 152.813  4.9726   1
   6   4  22 55.0575 3.03529   1
   6   4  23 92.4929 5.56864   1
   6   4  24 73.7524 4.10862   1
   6   4  25 95.3224 8.28763   1
   6   5 -25 73.7694   6.336   1
   6   5 -24 194.342 10.6101   1
   6   5 -23 106.338   4.973   1
   6   5 -22 102.765 5.25208   1
   6   5 -21 66.9472 5.59398   1
   6   5 -20 60.5574 2.76346   1
   6   5 -19  129.45 5.11384   1
   6   5 -18 442.914 12.4574   1
   6   5 -17  135.46 4.24045   1
   6   5 -16 38.8265 1.90085   1
   6   5 -15 116.227 4.15665   1
   6   5 -14 254.663 9.81554   1
   6   5 -13 84.1543 3.25036   1
   6   5 -12 161.664 4.50132   1
   6   5 -11 47.0637 1.70763   1
   6   5 -10 242.328 6.28346   1
   6   5  -9  235.21 6.29625   1
   6   5  -8 419.211 11.2894   1
   6   5  -7 275.824  6.8526   1
   6   5  -6 425.408 10.3215   1
   6   5  -5 372.501   8.973   1
   6   5  -4  537.11 12.7988   1
   6   5  -3 246.185 6.44188   1
   6   5  -2 21.2852  1.0688   1
   6   5  -1 859.696 20.3543   1
   6   5   0 1635.47  38.936   1
   6   5   1  887.67  21.421   1
   6   5   2  18.554  2.0372   1
   6   5   3 254.441 6.46205   1
   6   5   4 509.902 12.5517   1
   6   5   5  341.36 9.18582   1
   6   5   6 443.048 10.8727   1
   6   5   7 277.427 7.34171   1
   6   5   8 388.006 9.41946   1
   6   5   9 249.066 6.49082   1
   6   5  10 254.477 7.26252   1
   6   5  11 41.0398 1.46157   1
   6   5  12 160.419 4.21465   1
   6   5  13 94.8456 2.83897   1
   6   5  14 234.198  6.0473   1
   6   5  15 99.9917 3.15552   1
   6   5  16 44.4777 2.39766   1
   6   5  17 125.452 4.00328   1
   6   5  18 428.272 11.6059   1
   6   5  19 126.236 4.34493   1
   6   5  20  54.798 4.37043   1
   6   5  21 64.6892 3.48726   1
   6   5  22 98.8729  4.1981   1
   6   5  23 111.191 6.55689   1
   6   5  24 181.004 7.13086   1
   6   5  25 69.9538 4.86763   1
   6   6 -24  11.699 3.60549   1
   6   6 -23 140.561 13.8328   1
   6   6 -22 132.288 6.56946   1
   6   6 -21 42.3666 2.85315   1
   6   6 -20 48.7839 3.60817   1
   6   6 -19 335.829 10.5206   1
   6   6 -18 79.9394 3.11424   1
   6   6 -17 40.6273 2.48128   1
   6   6 -16 2.00386 1.89029   1
   6   6 -15 279.137 7.70669   1
   6   6 -14 305.903 8.98317   1
   6   6 -13 97.6842 3.39692   1
   6   6 -12 28.1553 1.45617   1
   6   6 -11  0.6793 1.00884   1
   6   6 -10 133.629 3.64876   1
   6   6  -9 603.558 14.8758   1
   6   6  -8 145.837 3.84648   1
   6   6  -7 25.7943 1.28748   1
   6   6  -6 61.2049 1.81933   1
   6   6  -5 306.682 7.53151   1
   6   6  -4 659.917 15.7354   1
   6   6  -3 429.779 10.3811   1
   6   6  -2 72.1387 2.34528   1
   6   6  -1 638.058  15.387   1
   6   6   0 172.227 4.61006   1
   6   6   1 620.483 14.7465   1
   6   6   2 76.2031 2.05836   1
   6   6   3 437.469 10.4096   1
   6   6   4 676.028 15.9498   1
   6   6   5 306.734 7.43393   1
   6   6   6 60.7577 1.73568   1
   6   6   7 25.3482  1.3857   1
   6   6   8 150.366 3.98573   1
   6   6   9  596.71  14.333   1
   6   6  10 132.621 3.70026   1
   6   6  11 3.51865 0.86222   1
   6   6  12 28.0249 1.25038   1
   6   6  13 85.8824 2.48336   1
   6   6  14 298.863 7.91925   1
   6   6  15 273.995 7.15178   1
   6   6  16 5.20728 1.47316   1
   6   6  17 43.4761 2.23325   1
   6   6  18 84.3245 3.06971   1
   6   6  19 330.246 10.0035   1
   6   6  20 50.4028 4.56346   1
   6   6  21 45.6647 2.55189   1
   6   6  22 132.854 4.90314   1
   6   6  23  136.33 5.50595   1
   6   6  24 11.7634 3.05328   1
   6   6  25 25.1081  6.6051   1
   6   7 -24 80.6276 5.56768   1
   6   7 -23 66.8485 12.4858   1
   6   7 -22 35.0871 2.79953   1
   6   7 -21 15.4985 3.03439   1
   6   7 -20 3.48519 1.89297   1
   6   7 -19 220.286 6.80723   1
   6   7 -18 479.756 13.3691   1
   6   7 -17 75.6407 4.61529   1
   6   7 -16 149.275 4.52268   1
   6   7 -15 243.972 6.90063   1
   6   7 -14 62.5827 3.06919   1
   6   7 -13 65.7994 2.26046   1
   6   7 -12 350.021 8.92806   1
   6   7 -11  228.03  6.0261   1
   6   7 -10 159.204 4.69985   1
   6   7  -9 147.493 4.14899   1
   6   7  -8 281.687 7.85184   1
   6   7  -7 299.724 7.60932   1
   6   7  -6 291.061 7.44211   1
   6   7  -5 504.211 12.3187   1
   6   7  -4 448.697 10.8321   1
   6   7  -3 344.499 8.32795   1
   6   7  -2  150.57 4.17554   1
   6   7  -1 572.333 13.6732   1
   6   7   0 1227.81 28.8274   1
   6   7   1 583.326 13.9752   1
   6   7   2  158.33 4.24913   1
   6   7   3  345.91 8.31477   1
   6   7   4 450.881 10.8078   1
   6   7   5 508.647 12.2727   1
   6   7   6 313.346 7.57454   1
   6   7   7 297.587  7.6324   1
   6   7   8 274.937 6.85449   1
   6   7   9 152.732 4.80908   1
   6   7  10 141.136 3.71525   1
   6   7  11 233.286 5.93515   1
   6   7  12 335.006 8.27708   1
   6   7  13 67.4246 2.19625   1
   6   7  14 60.3922 1.99308   1
   6   7  15 247.853 6.53984   1
   6   7  16 143.202 4.16723   1
   6   7  17 81.1268 2.98096   1
   6   7  18  457.64 12.7626   1
   6   7  19 214.356 6.25509   1
   6   7  20 4.93209 1.90672   1
   6   7  21 21.1213 2.82634   1
   6   7  22  30.312 3.47966   1
   6   7  23 69.8397 4.12868   1
   6   7  24 68.7672 3.78027   1
   6   8 -24 49.3897 7.20526   1
   6   8 -23 8.32281 3.43725   1
   6   8 -22 35.1402   3.161   1
   6   8 -21 87.0098  4.4545   1
   6   8 -20  140.91 7.75119   1
   6   8 -19 124.024   4.663   1
   6   8 -18 37.9057  2.5789   1
   6   8 -17 60.2957 2.63852   1
   6   8 -16 244.154  7.0635   1
   6   8 -15 163.887 4.65755   1
   6   8 -14  85.189 2.98999   1
   6   8 -13 62.9217 2.27166   1
   6   8 -12 140.344 4.25602   1
   6   8 -11 157.333  4.3067   1
   6   8 -10 182.939  4.8117   1
   6   8  -9 89.1961  2.5715   1
   6   8  -8 204.752 5.30004   1
   6   8  -7 221.888 5.96142   1
   6   8  -6 226.203 5.69869   1
   6   8  -5 58.1704 2.22368   1
   6   8  -4 123.913 3.31263   1
   6   8  -3 352.161 8.76068   1
   6   8  -2 476.961 11.8309   1
   6   8  -1 316.135 7.75745   1
   6   8   0 396.512 9.59517   1
   6   8   1 309.935 7.57748   1
   6   8   2  496.66 11.8996   1
   6   8   3 361.262 8.74522   1
   6   8   4 120.699 3.21077   1
   6   8   5 65.2029 2.11626   1
   6   8   6 231.745 5.76867   1
   6   8   7 227.874 6.94521   1
   6   8   8 207.454 5.50853   1
   6   8   9 85.1202 2.51126   1
   6   8  10 184.869 5.11509   1
   6   8  11  155.72 4.46386   1
   6   8  12 146.443 3.83977   1
   6   8  13 51.8841 1.73837   1
   6   8  14 84.0581 2.48449   1
   6   8  15 167.535 4.79888   1
   6   8  16 247.088 7.50869   1
   6   8  17 55.9555 3.07444   1
   6   8  18 35.5586 2.71698   1
   6   8  19  116.54 3.91025   1
   6   8  20 149.844 4.73015   1
   6   8  21 102.823 4.21459   1
   6   8  22 32.4864 3.38588   1
   6   8  23 6.19223 3.29238   1
   6   8  24 59.8189 4.60966   1
   6   9 -23 26.6938 4.33931   1
   6   9 -22 46.3821 7.24723   1
   6   9 -21 186.824  7.4951   1
   6   9 -20  104.88 7.00057   1
   6   9 -19  91.278  3.7431   1
   6   9 -18 40.5003 3.14888   1
   6   9 -17 140.064 5.77878   1
   6   9 -16 214.192 6.15022   1
   6   9 -15  112.92 4.20717   1
   6   9 -14 35.7738 2.03759   1
   6   9 -13 70.0224 2.50943   1
   6   9 -12 51.2692 2.03534   1
   6   9 -11 291.784  7.5317   1
   6   9 -10 84.9392 2.57485   1
   6   9  -9 13.4715 1.05465   1
   6   9  -8 176.087 5.36149   1
   6   9  -7 260.786 7.24158   1
   6   9  -6 89.3732 3.27585   1
   6   9  -5 133.691 3.71489   1
   6   9  -4 24.4896 1.36444   1
   6   9  -3 319.559  8.3713   1
   6   9  -2 465.678 11.2379   1
   6   9  -1 418.355 10.1157   1
   6   9   0 162.667 4.11595   1
   6   9   1 427.591 10.3255   1
   6   9   2 468.478 11.3378   1
   6   9   3 318.147   8.213   1
   6   9   4 24.9204 1.02092   1
   6   9   5 129.749 3.49038   1
   6   9   6 85.9243 2.54843   1
   6   9   7 255.281 6.54171   1
   6   9   8 175.724 4.80516   1
   6   9   9 11.7799 1.09504   1
   6   9  10 84.5321 2.58644   1
   6   9  11 281.464 7.23126   1
   6   9  12 48.8335 2.02135   1
   6   9  13 68.8561 2.18662   1
   6   9  14 35.4802 1.77157   1
   6   9  15 115.274 3.57172   1
   6   9  16 203.536  5.8787   1
   6   9  17 140.551 4.21032   1
   6   9  18 36.5772 2.23471   1
   6   9  19 104.254 3.84022   1
   6   9  20 102.609  3.7164   1
   6   9  21 193.741 7.32111   1
   6   9  22 40.1168 3.43281   1
   6   9  23 21.7384 3.41504   1
   6  10 -23 56.0423 5.21704   1
   6  10 -22 56.9982 4.52643   1
   6  10 -21 79.5209 7.31226   1
   6  10 -20 211.725 8.79635   1
   6  10 -19 28.7719 3.63449   1
   6  10 -18 88.0202 6.97952   1
   6  10 -17 109.241 4.03389   1
   6  10 -16 152.008 5.12308   1
   6  10 -15 43.5876 2.04527   1
   6  10 -14 34.5845 1.82999   1
   6  10 -13 281.713 8.93054   1
   6  10 -12 69.5561 2.50866   1
   6  10 -11 69.6468 2.51193   1
   6  10 -10 266.662 7.27001   1
   6  10  -9 100.841 3.09436   1
   6  10  -8 117.988 3.34832   1
   6  10  -7 70.4191 2.18426   1
   6  10  -6 71.4442 2.27492   1
   6  10  -5 165.212 4.94092   1
   6  10  -4 26.8877 1.29297   1
   6  10  -3 100.903 2.96901   1
   6  10  -2 453.141 11.2339   1
   6  10  -1 107.968 2.91186   1
   6  10   0  39.266  1.3844   1
   6  10   1 97.5831  2.7207   1
   6  10   2 472.423 12.4987   1
   6  10   3 108.774 3.61883   1
   6  10   4 30.8594 2.04131   1
   6  10   5  154.94 4.31855   1
   6  10   6 74.5629  2.9672   1
   6  10   7 62.2687 1.98824   1
   6  10   8 117.548 3.48506   1
   6  10   9 99.3877 3.37734   1
   6  10  10 285.942 7.44483   1
   6  10  11 73.3621 2.38129   1
   6  10  12 77.3397  2.4372   1
   6  10  13 265.741 7.76892   1
   6  10  14 30.0184  1.6403   1
   6  10  15 42.0491 1.84012   1
   6  10  16 159.586 4.60484   1
   6  10  17 107.861 3.34915   1
   6  10  18 94.5735 3.17027   1
   6  10  19 19.5238 2.40765   1
   6  10  20 218.778 9.38957   1
   6  10  21  77.616 6.54883   1
   6  10  22 58.5053 3.78297   1
   6  10  23 59.8675 4.10552   1
   6  11 -22 136.096 6.44218   1
   6  11 -21 33.2141 6.47177   1
   6  11 -20 57.4542 4.01236   1
   6  11 -19 160.555 6.78885   1
   6  11 -18 147.496 7.91856   1
   6  11 -17 352.423 13.0902   1
   6  11 -16 13.1854 2.05015   1
   6  11 -15 24.4513 1.87943   1
   6  11 -14  288.62 8.09463   1
   6  11 -13 135.979 4.30827   1
   6  11 -12 55.6429 2.23902   1
   6  11 -11 25.0287 1.58319   1
   6  11 -10 129.593 4.07363   1
   6  11  -9 34.7107 1.88848   1
   6  11  -8 400.072 10.5683   1
   6  11  -7 14.0392 1.21705   1
   6  11  -6 132.522  4.9767   1
   6  11  -5 55.2045 1.99338   1
   6  11  -4 214.505 5.65183   1
   6  11  -3 17.1159 1.19593   1
   6  11  -2 10.7902 0.97981   1
   6  11  -1  636.46 15.5269   1
   6  11   0 285.818  7.2821   1
   6  11   1 647.828 15.8535   1
   6  11   2 13.2376 1.00894   1
   6  11   3 20.2019 1.11738   1
   6  11   4 215.575 5.53418   1
   6  11   5 60.4577 2.30548   1
   6  11   6 129.282 4.96279   1
   6  11   7 10.5669  1.1587   1
   6  11   8 368.841 9.70953   1
   6  11   9 40.9383 1.77408   1
   6  11  10  133.90 5.73139   1
   6  11  11 26.3427  1.6793   1
   6  11  12 54.8772 2.49496   1
   6  11  13 146.681 5.65934   1
   6  11  14 274.365 8.10409   1
   6  11  15 20.0458 2.10316   1
   6  11  16 13.7414 1.75613   1
   6  11  17 370.986  10.082   1
   6  11  18 144.133 4.79696   1
   6  11  19 169.881  5.3912   1
   6  11  20 61.5062 3.73183   1
   6  11  21 35.6044 3.09785   1
   6  11  22 137.289 6.96917   1
   6  12 -22 95.9815  8.6463   1
   6  12 -21 46.1863 4.19382   1
   6  12 -20 20.7153 3.36915   1
   6  12 -19 112.727 5.61854   1
   6  12 -18 50.7035 5.24529   1
   6  12 -17 271.724 8.55226   1
   6  12 -16 4.85611 1.98939   1
   6  12 -15 197.163 7.03476   1
   6  12 -14 131.381 4.72841   1
   6  12 -13 55.3209 2.53868   1
   6  12 -12 215.267 6.35157   1
   6  12 -11 24.9584 1.86702   1
   6  12 -10 17.1263 1.89715   1
   6  12  -9  398.21  10.607   1
   6  12  -8 68.2543 4.38367   1
   6  12  -7 103.947 3.22553   1
   6  12  -6 41.5596 2.01295   1
   6  12  -5 77.1354 3.00057   1
   6  12  -4 316.923 8.16632   1
   6  12  -3 202.701 6.31358   1
   6  12  -2 61.4691 2.33989   1
   6  12  -1 309.781 7.94153   1
   6  12   0 24.3227 1.43549   1
   6  12   1 311.107 8.32746   1
   6  12   2 66.1659 2.38753   1
   6  12   3  210.69 5.83433   1
   6  12   4 318.586 8.11267   1
   6  12   5 70.7853 2.32324   1
   6  12   6 37.5743 2.23461   1
   6  12   7 96.6112 2.94274   1
   6  12   8 69.2775 2.35566   1
   6  12   9 400.149  10.383   1
   6  12  10  21.239 1.57963   1
   6  12  11 25.7588 2.47171   1
   6  12  12 207.716 7.19228   1
   6  12  13   56.56 2.44205   1
   6  12  14 127.997 4.19539   1
   6  12  15 195.415 5.62629   1
   6  12  16 2.57944 1.79862   1
   6  12  17 266.745 7.74695   1
   6  12  18 49.9801 2.95784   1
   6  12  19 109.621 3.98728   1
   6  12  20 27.7805 3.40156   1
   6  12  21 37.9439 3.24739   1
   6  12  22 91.6838 6.29339   1
   6  13 -21 28.1343 3.56865   1
   6  13 -20  23.251 3.13448   1
   6  13 -19 92.2492 8.89295   1
   6  13 -18 160.304 6.51135   1
   6  13 -17 89.5381 6.29418   1
   6  13 -16 17.7469 2.14157   1
   6  13 -15 81.1053 5.14258   1
   6  13 -14 78.4748 3.78299   1
   6  13 -13 127.215  4.6375   1
   6  13 -12 216.473 6.54961   1
   6  13 -11 286.476 9.40477   1
   6  13 -10 24.9914 2.03161   1
   6  13  -9 51.6143 2.61789   1
   6  13  -8  314.24 9.49992   1
   6  13  -7 274.276 7.66587   1
   6  13  -6 162.906 5.31881   1
   6  13  -5 56.1771 2.76658   1
   6  13  -4 312.731 9.14044   1
   6  13  -3 157.498 5.20067   1
   6  13  -2 82.4766 3.90233   1
   6  13  -1 95.6638 3.51399   1
   6  13   0 498.478 12.5223   1
   6  13   1 94.7756 2.86525   1
   6  13   2 78.5021 2.55309   1
   6  13   3  151.21 4.62045   1
   6  13   4 287.815 7.55528   1
   6  13   5 61.2388 2.61052   1
   6  13   6 173.629 6.08463   1
   6  13   7  272.89 9.35979   1
   6  13   8 307.101 8.44035   1
   6  13   9 57.1562 3.87302   1
   6  13  10 15.1718 1.82085   1
   6  13  11 275.628 7.66449   1
   6  13  12 212.201 6.11577   1
   6  13  13 124.243 4.05836   1
   6  13  14 74.5518 3.42468   1
   6  13  15 78.3592 3.06175   1
   6  13  16 14.6838 2.18666   1
   6  13  17 84.9736 3.37381   1
   6  13  18 149.378 5.06813   1
   6  13  19 90.7544 4.26887   1
   6  13  20 27.7718 3.92618   1
   6  13  21 24.9075 3.60879   1
   6  14 -20 133.441 6.66475   1
   6  14 -19 43.8785 3.93747   1
   6  14 -18  27.465 6.54257   1
   6  14 -17 56.0739 4.07086   1
   6  14 -16 133.329 6.23125   1
   6  14 -15  160.28 6.36233   1
   6  14 -14 70.8718 3.80985   1
   6  14 -13 83.4921  3.8893   1
   6  14 -12 315.895 13.2685   1
   6  14 -11 155.547  6.0818   1
   6  14 -10 13.4659 2.18969   1
   6  14  -9 39.2391 3.63235   1
   6  14  -8  107.03  4.4246   1
   6  14  -7 161.963 5.09195   1
   6  14  -6 177.321 6.17332   1
   6  14  -5  8.3707 1.53623   1
   6  14  -4 220.783 6.44398   1
   6  14  -3 260.618 7.09716   1
   6  14  -2 210.446  7.0601   1
   6  14  -1 242.715 7.63447   1
   6  14   0 110.954 3.53951   1
   6  14   1 233.022 6.41749   1
   6  14   2 209.039 5.78068   1
   6  14   3 274.379  7.2206   1
   6  14   4 224.482 6.05956   1
   6  14   5  14.094 1.75722   1
   6  14   6 187.269 6.88484   1
   6  14   7 157.786 5.01123   1
   6  14   8 99.3667 3.52847   1
   6  14   9 37.6752 2.11826   1
   6  14  10  15.785 3.40048   1
   6  14  11 157.808 5.14879   1
   6  14  12 310.648 9.75692   1
   6  14  13 71.1508 4.58817   1
   6  14  14  69.147 3.44229   1
   6  14  15 142.964 5.41829   1
   6  14  16 155.659 6.06689   1
   6  14  17 60.9159 4.07149   1
   6  14  18 34.8871 3.64721   1
   6  14  19 42.0255 3.31724   1
   6  14  20 131.332 9.25611   1
   6  15 -19 80.2389 9.16851   1
   6  15 -18 38.5754 7.91548   1
   6  15 -17 131.497 7.32044   1
   6  15 -16 263.262 12.3774   1
   6  15 -15 121.521 7.96474   1
   6  15 -14 76.4093  4.2308   1
   6  15 -13 20.3714 2.88294   1
   6  15 -12 162.998 7.24276   1
   6  15 -11 305.588  11.724   1
   6  15 -10 85.9451 6.52785   1
   6  15  -9 24.7042 2.36478   1
   6  15  -8 306.977 9.70628   1
   6  15  -7 160.656 9.03268   1
   6  15  -6 98.3644 8.88554   1
   6  15  -5 60.7438 3.14691   1
   6  15  -4 41.7558 2.44765   1
   6  15  -3 419.689  11.176   1
   6  15  -2 470.784 12.6744   1
   6  15  -1 151.397 4.65757   1
   6  15   0 108.709 3.54351   1
   6  15   1 160.449 7.16074   1
   6  15   2 469.174 15.3211   1
   6  15   3  409.73 12.0842   1
   6  15   4 48.2967 2.52031   1
   6  15   5 57.2779 2.58617   1
   6  15   6 96.2446 3.44406   1
   6  15   7  157.74 4.87783   1
   6  15   8 308.526  9.9643   1
   6  15   9 27.0563 2.81684   1
   6  15  10 88.7479 4.09527   1
   6  15  11 296.354  9.3997   1
   6  15  12  170.35 7.36423   1
   6  15  13 15.9227 2.69831   1
   6  15  14  75.934 3.83141   1
   6  15  15 130.097 5.50355   1
   6  15  16 251.458 17.7456   1
   6  15  17 137.473 5.91501   1
   6  15  18 33.4778 5.13153   1
   6  15  19 78.6942 5.19015   1
   6  16 -18 88.2074 7.30125   1
   6  16 -17  107.98 8.86478   1
   6  16 -16 88.4579 6.29654   1
   6  16 -15 26.8457  6.6571   1
   6  16 -14 40.9204 3.91366   1
   6  16 -13 260.859 11.3123   1
   6  16 -12 103.194 6.00588   1
   6  16 -11 28.6439 2.93713   1
   6  16 -10 54.4664 3.43781   1
   6  16  -9 23.1325 3.17899   1
   6  16  -8 162.984 5.95957   1
   6  16  -7 67.5782 3.41112   1
   6  16  -6 100.517 3.91226   1
   6  16  -5  163.57 6.45786   1
   6  16  -4 2.71037 2.02702   1
   6  16  -3 188.563 5.94534   1
   6  16  -2 189.952 5.89196   1
   6  16  -1 100.127 4.26221   1
   6  16   0 2.61081 1.66303   1
   6  16   1 94.0714 5.14673   1
   6  16   2 200.871  6.0118   1
   6  16   3 191.523 7.15153   1
   6  16   4 3.48788 2.45828   1
   6  16   5 152.477  6.5544   1
   6  16   6 96.3652 5.10206   1
   6  16   7  61.605 2.98799   1
   6  16   8 169.001 6.56395   1
   6  16   9 32.8371 2.75495   1
   6  16  10 49.1594 3.05802   1
   6  16  11 36.0017 2.84139   1
   6  16  12 107.481  4.3641   1
   6  16  13 264.466 9.88006   1
   6  16  14 44.6471 5.68327   1
   6  16  15 29.2868  3.5752   1
   6  16  16 85.0179 4.72669   1
   6  16  17 116.894 5.59995   1
   6  16  18  87.511 5.22514   1
   6  17 -17 190.732 13.3494   1
   6  17 -16 83.6185 7.68531   1
   6  17 -15 19.0109 8.55724   1
   6  17 -14 264.954 11.5218   1
   6  17 -13 74.0916 5.93089   1
   6  17 -12 85.6123 10.3503   1
   6  17 -11 23.1028 3.46545   1
   6  17 -10 82.9544  5.1079   1
   6  17  -9  75.178 7.68614   1
   6  17  -8 115.918  5.2263   1
   6  17  -7 91.9692 4.62809   1
   6  17  -6 224.357 8.94551   1
   6  17  -5 68.2763 4.97572   1
   6  17  -4 129.763 6.03476   1
   6  17  -3 15.3114 2.71734   1
   6  17  -2 57.0373 3.06708   1
   6  17  -1 285.958 12.7876   1
   6  17   0 122.053 4.37515   1
   6  17   1 305.284  8.5884   1
   6  17   2 61.8621 2.92305   1
   6  17   3  13.095 2.13438   1
   6  17   4 138.504 4.72311   1
   6  17   5 67.5024 4.31144   1
   6  17   6 221.003 8.01749   1
   6  17   7 95.5996  5.4326   1
   6  17   8 102.407 4.65215   1
   6  17   9  81.571 5.99443   1
   6  17  10 85.2187 4.29366   1
   6  17  11  26.934 2.90439   1
   6  17  12 84.7469  5.1055   1
   6  17  13 71.1631 4.33999   1
   6  17  14 275.093 10.2832   1
   6  17  15 19.0375 4.47544   1
   6  17  16  79.754 5.56117   1
   6  17  17 198.776 8.06409   1
   6  18 -15 71.8337 5.68735   1
   6  18 -14 143.147 8.50968   1
   6  18 -13 126.835 18.4699   1
   6  18 -12 109.852 9.44191   1
   6  18 -11 21.5645 3.72323   1
   6  18 -10 19.2628 5.39909   1
   6  18  -9 228.608 17.0047   1
   6  18  -8 13.4424 3.79123   1
   6  18  -7 0.61048 2.88606   1
   6  18  -6 12.6935 3.95341   1
   6  18  -5 136.335 6.64376   1
   6  18  -4 95.5584 5.41075   1
   6  18  -3 36.6433 3.41989   1
   6  18  -2 32.2864  2.6368   1
   6  18  -1 37.3658 3.37843   1
   6  18   0 13.6477 2.49908   1
   6  18   1 41.0724  2.6848   1
   6  18   2 36.4478 2.30852   1
   6  18   3 43.1478 2.43305   1
   6  18   4 97.0818 4.25247   1
   6  18   5 118.969 4.62802   1
   6  18   6 11.6141 2.28835   1
   6  18   7 0.06575 3.56765   1
   6  18   8 8.05398 3.19364   1
   6  18   9 220.699 7.48127   1
   6  18  10  26.522 3.54697   1
   6  18  11 24.4868 3.41587   1
   6  18  12 108.254 5.47955   1
   6  18  13 119.145 6.21457   1
   6  18  14 129.247 7.27211   1
   6  18  15 79.6843 7.45281   1
   6  19 -14 132.782 7.65725   1
   6  19 -13 64.8814  10.164   1
   6  19 -12 115.032 9.61558   1
   6  19 -11 189.057 8.87811   1
   6  19 -10 64.3214 6.95973   1
   6  19  -9 19.1674 4.45469   1
   6  19  -8 83.3003 10.9631   1
   6  19  -7 172.855  12.627   1
   6  19  -6 67.5592 5.69759   1
   6  19  -5-0.57328 5.04862   1
   6  19  -4 124.305  6.0909   1
   6  19  -3 144.383 5.52516   1
   6  19  -2 44.0051  3.4116   1
   6  19  -1 15.6479 2.53992   1
   6  19   0 165.073 5.60724   1
   6  19   1 17.6363 2.36417   1
   6  19   2 43.7214 2.65519   1
   6  19   3 142.001  4.9547   1
   6  19   4 114.463 5.44828   1
   6  19   5 1.47926 3.22365   1
   6  19   6 73.1425 4.20977   1
   6  19   7 166.734 7.49554   1
   6  19   8 81.9888 5.25285   1
   6  19   9 24.7851 3.39024   1
   6  19  10 60.7299 4.53327   1
   6  19  11 166.229 7.21442   1
   6  19  12  124.45 7.94135   1
   6  19  13 62.3254 7.82107   1
   6  19  14 140.644 6.30994   1
   6  20 -12 256.627 12.2379   1
   6  20 -11 74.3497 10.9235   1
   6  20 -10 9.80892 3.88852   1
   6  20  -9 5.70526 3.74214   1
   6  20  -8 98.4069 6.57133   1
   6  20  -7 128.077 10.0761   1
   6  20  -6 136.035 7.79376   1
   6  20  -5 12.1055 3.58907   1
   6  20  -4 88.1464 6.00312   1
   6  20  -3 116.296 5.21984   1
   6  20  -2 101.379  4.6341   1
   6  20  -1 32.2149 3.02195   1
   6  20   0 22.7707 2.39445   1
   6  20   1 28.1107 2.97309   1
   6  20   2 88.1962 4.36435   1
   6  20   3 110.434 6.99089   1
   6  20   4 85.5101 6.93043   1
   6  20   5 7.56966 4.35722   1
   6  20   6  137.08 5.49226   1
   6  20   7 125.477 12.4178   1
   6  20   8 100.324 4.99977   1
   6  20   9 11.5114 5.01761   1
   6  20  10 13.3589  3.4784   1
   6  20  11 64.4288 5.12664   1
   6  20  12 256.653 12.4951   1
   6  21 -10 77.5238  6.5371   1
   6  21  -9 24.0509 4.44824   1
   6  21  -8 105.867 16.3312   1
   6  21  -7 247.014 11.8158   1
   6  21  -6  45.711 6.12271   1
   6  21  -5 37.1576 4.49334   1
   6  21  -4 101.029  5.2103   1
   6  21  -3 222.199 9.19614   1
   6  21  -2 224.779 11.1829   1
   6  21  -1 7.94308 2.38092   1
   6  21   0 38.7964 3.37012   1
   6  21   1 7.13344 2.47759   1
   6  21   2 238.619  10.674   1
   6  21   3 239.521 8.55636   1
   6  21   4 94.5605 5.10979   1
   6  21   5 34.8375 4.03573   1
   6  21   6 47.0433 6.58371   1
   6  21   7 233.314 9.62009   1
   6  21   8 112.648 7.20461   1
   6  21   9 25.6962 3.59213   1
   6  21  10 80.8989 5.02456   1
   6  22  -6 32.0595 8.60036   1
   6  22  -5 139.365 12.3902   1
   6  22  -4 9.01325 3.89956   1
   6  22  -3 84.2005 6.06444   1
   6  22  -2 100.694 4.55137   1
   6  22  -1 16.2367 2.84892   1
   6  22   0 67.3556 3.92968   1
   6  22   1 13.3816 2.81987   1
   6  22   2 114.981 5.26333   1
   6  22   3 82.0221 11.8693   1
   6  22   4  12.714 5.73425   1
   6  22   5 133.025 5.95406   1
   6  22   6 37.1062 3.58919   1
   7   0   1 10.4903 0.78451   1
   7   0   2 454.757 11.5319   1
   7   0   3 4.24879 0.76475   1
   7   0   4 249.905 6.40042   1
   7   0   5 18.5786 1.43184   1
   7   0   6 271.871 7.20825   1
   7   0   7 76.4088 2.43014   1
   7   0   8 506.107 13.9454   1
   7   0   9 6.90432 1.08624   1
   7   0  10 246.307 7.92231   1
   7   0  11  26.514 1.80163   1
   7   0  12  268.69 7.14859   1
   7   0  13 37.8419 2.49791   1
   7   0  14  24.201  1.7756   1
   7   0  15 14.2482 1.61695   1
   7   0  16 511.678  13.145   1
   7   0  17  14.297 1.79255   1
   7   0  18 3.76817 2.15054   1
   7   0  19 3.19359 1.79446   1
   7   0  20 201.905 7.20559   1
   7   0  21 8.37981   2.485   1
   7   0  22 37.0225 3.55371   1
   7   0  23 8.99411 3.26184   1
   7   1 -23 7.35821 2.75313   1
   7   1 -22 55.8589 3.59378   1
   7   1 -21  12.939 3.66618   1
   7   1 -20 10.2021 3.42052   1
   7   1 -19  127.38 4.28884   1
   7   1 -18 35.9964 2.34388   1
   7   1 -17 311.451 8.59445   1
   7   1 -16 49.9683  2.3554   1
   7   1 -15 141.122 4.47447   1
   7   1 -14 144.856 4.35533   1
   7   1 -13 87.9969 2.92614   1
   7   1 -12 61.7319 2.35527   1
   7   1 -11 780.239 19.6392   1
   7   1 -10 83.0708 2.68316   1
   7   1  -9 105.054 3.15796   1
   7   1  -8 123.629 3.46151   1
   7   1  -7 1079.55 26.5482   1
   7   1  -6 74.1631 2.59503   1
   7   1  -5 31.7528 1.24243   1
   7   1  -4  145.26 4.74264   1
   7   1  -3 500.684 12.2344   1
   7   1  -2 58.3902  2.0033   1
   7   1  -1 276.207 7.23573   1
   7   1   0 151.989 3.94478   1
   7   1   1 268.442 7.23812   1
   7   1   2 64.6638 1.98372   1
   7   1   3 506.687 12.2736   1
   7   1   4 152.544 4.39008   1
   7   1   5 33.5094 1.25786   1
   7   1   6 76.7076 2.44732   1
   7   1   7 1065.45 27.1351   1
   7   1   8 126.003 3.89227   1
   7   1   9 103.548  3.6301   1
   7   1  10 85.6312 2.95581   1
   7   1  11 776.747 19.7412   1
   7   1  12  58.106 2.26613   1
   7   1  13 81.8739 2.80003   1
   7   1  14 138.672 4.05501   1
   7   1  15 138.225 4.53832   1
   7   1  16 48.0291 2.37491   1
   7   1  17 325.716 10.1378   1
   7   1  18  34.214 2.65129   1
   7   1  19 126.933 4.23944   1
   7   1  20 10.3226 2.18481   1
   7   1  21 12.5608 3.48034   1
   7   1  22 58.7745 3.63346   1
   7   1  23 3.42094 2.72474   1
   7   2 -23 130.322 5.60816   1
   7   2 -22 18.1319 3.08632   1
   7   2 -21 55.6557  3.3279   1
   7   2 -20 46.4466 4.63247   1
   7   2 -19 108.954 3.89863   1
   7   2 -18 3.66577   2.233   1
   7   2 -17 226.061 6.44938   1
   7   2 -16 188.823  6.6013   1
   7   2 -15 70.9265 2.72089   1
   7   2 -14 47.3273 2.87711   1
   7   2 -13 357.339 9.38791   1
   7   2 -12 91.7475 3.00541   1
   7   2 -11 38.8496 1.67005   1
   7   2 -10 325.965 8.38404   1
   7   2  -9 585.181 14.5459   1
   7   2  -8 690.237 16.9815   1
   7   2  -7 93.1037 3.75936   1
   7   2  -6 12.9276 1.03141   1
   7   2  -5 120.657 3.38113   1
   7   2  -4 36.4237  1.3727   1
   7   2  -3 105.953 3.03038   1
   7   2  -2 289.032 7.19476   1
   7   2  -1 117.873 3.08402   1
   7   2   0 109.093 2.96293   1
   7   2   1 116.654 3.25906   1
   7   2   2 287.682 8.51991   1
   7   2   3 104.434 3.47222   1
   7   2   4 34.3961 1.56802   1
   7   2   5  132.00 4.59187   1
   7   2   6  11.038 1.10311   1
   7   2   7 90.3273 2.67781   1
   7   2   8 696.264 17.3559   1
   7   2   9 568.101 14.2472   1
   7   2  10 311.096 8.02932   1
   7   2  11 37.3928 2.04506   1
   7   2  12 105.437 3.50152   1
   7   2  13 369.125 9.88057   1
   7   2  14 55.2565 3.24292   1
   7   2  15 61.7663 2.64328   1
   7   2  16 186.795 6.71018   1
   7   2  17 220.227 6.32945   1
   7   2  18 3.74921 1.85106   1
   7   2  19 115.299 4.78279   1
   7   2  20 50.0268 3.51671   1
   7   2  21 54.9501 5.66156   1
   7   2  22 16.7069 3.15937   1
   7   2  23 121.385 6.51732   1
   7   3 -23 7.11079 3.60238   1
   7   3 -22 121.853 4.95393   1
   7   3 -21 4.08031 2.24505   1
   7   3 -20  29.938 4.15938   1
   7   3 -19 27.9395 2.15482   1
   7   3 -18 556.316 15.2356   1
   7   3 -17 17.1684 2.09957   1
   7   3 -16 4.74699 1.78289   1
   7   3 -15 44.6081 2.13207   1
   7   3 -14 249.259 6.83373   1
   7   3 -13  64.216 3.59378   1
   7   3 -12 476.512 12.1977   1
   7   3 -11 65.1766 2.58242   1
   7   3 -10 322.884 8.29762   1
   7   3  -9 68.2277 2.54638   1
   7   3  -8 345.993 9.42182   1
   7   3  -7  2.0659 0.94571   1
   7   3  -6 483.622 12.4785   1
   7   3  -5 10.8492 1.37108   1
   7   3  -4 88.0293 3.05035   1
   7   3  -3 69.9399 2.79781   1
   7   3  -2 37.6535 1.32416   1
   7   3  -1 177.658 4.47436   1
   7   3   0 707.007 17.0576   1
   7   3   1 173.189 4.89338   1
   7   3   2 34.6707 1.29191   1
   7   3   3 71.1619  2.3376   1
   7   3   4 91.1844 2.90252   1
   7   3   5 10.9991 0.87025   1
   7   3   6 476.338 12.0478   1
   7   3   7 2.21036 1.01168   1
   7   3   8  358.82 9.07842   1
   7   3   9 65.4549 2.92263   1
   7   3  10 320.561 8.26423   1
   7   3  11   63.12 2.60477   1
   7   3  12 490.971 12.4474   1
   7   3  13 59.3165 2.44965   1
   7   3  14 248.367 6.84753   1
   7   3  15 37.5884 2.79389   1
   7   3  16 5.15427 1.81216   1
   7   3  17 14.5062 1.82631   1
   7   3  18  574.66 14.8826   1
   7   3  19 32.8719 2.18217   1
   7   3  20  34.494  2.6996   1
   7   3  21 0.39185 2.40924   1
   7   3  22 121.996 7.42236   1
   7   3  23 8.76315  3.5738   1
   7   4 -23  51.205  4.0912   1
   7   4 -22 0.69779  4.0204   1
   7   4 -21 91.6511 6.35416   1
   7   4 -20 103.177 4.47106   1
   7   4 -19 86.9222 3.34942   1
   7   4 -18 1.14465 1.90835   1
   7   4 -17 245.467 7.66608   1
   7   4 -16 216.083 6.13661   1
   7   4 -15 137.511 4.14369   1
   7   4 -14 9.17567 1.37299   1
   7   4 -13 270.837 8.83871   1
   7   4 -12 129.751 4.34363   1
   7   4 -11  2.3149 1.39802   1
   7   4 -10 90.6459 3.60914   1
   7   4  -9 754.606 18.6222   1
   7   4  -8 141.536 3.94654   1
   7   4  -7 30.4009 1.51662   1
   7   4  -6 38.5259 1.81029   1
   7   4  -5 186.822  5.7418   1
   7   4  -4 33.7679 1.49367   1
   7   4  -3 80.9192 2.25409   1
   7   4  -2 145.535 4.20443   1
   7   4  -1  200.39 5.06416   1
   7   4   0 257.381 6.43129   1
   7   4   1 190.564 4.91265   1
   7   4   2 149.785 3.92845   1
   7   4   3 81.1639 2.29166   1
   7   4   4 33.4783 1.41951   1
   7   4   5 200.558 5.29162   1
   7   4   6 40.7727  1.5921   1
   7   4   7 32.7283 1.65338   1
   7   4   8 148.749 4.71592   1
   7   4   9 777.784 25.6924   1
   7   4  10 85.8342 3.10205   1
   7   4  11 4.06871 1.48651   1
   7   4  12 122.526 4.08424   1
   7   4  13  265.52 7.41298   1
   7   4  14 10.5889  1.3647   1
   7   4  15 136.826 4.03332   1
   7   4  16 220.836 6.98926   1
   7   4  17 251.841 9.31489   1
   7   4  18 1.21035 1.61466   1
   7   4  19 89.4457 3.74112   1
   7   4  20 92.7807 4.10149   1
   7   4  21 84.6008 4.55834   1
   7   4  22 2.14313  2.5409   1
   7   4  23 52.3953 3.62043   1
   7   5 -22  16.288 2.76646   1
   7   5 -21 75.2693 4.90347   1
   7   5 -20 48.8417 4.75727   1
   7   5 -19 102.486 4.04945   1
   7   5 -18 147.332 4.74733   1
   7   5 -17  257.17 7.87388   1
   7   5 -16 21.7102 1.92408   1
   7   5 -15 191.868 5.79851   1
   7   5 -14 37.5377 2.48187   1
   7   5 -13 44.7504 2.71853   1
   7   5 -12 157.073 4.45259   1
   7   5 -11 502.872 12.8381   1
   7   5 -10 87.1169  2.7394   1
   7   5  -9 56.1779 2.06273   1
   7   5  -8 117.814 3.40599   1
   7   5  -7  806.57 20.1289   1
   7   5  -6 68.7162 2.15952   1
   7   5  -5 14.1189 1.09706   1
   7   5  -4 6.19213 0.86968   1
   7   5  -3 313.057  7.8376   1
   7   5  -2  54.198  1.9563   1
   7   5  -1 472.075  11.507   1
   7   5   0 0.80564  0.8585   1
   7   5   1 470.176 11.6057   1
   7   5   2 53.6367 1.65814   1
   7   5   3 308.783 8.34628   1
   7   5   4 8.37743  1.0202   1
   7   5   5 11.5563 0.86165   1
   7   5   6 71.5075 2.20823   1
   7   5   7 817.931 24.5099   1
   7   5   8 114.501 3.51647   1
   7   5   9 57.0168 2.24965   1
   7   5  10 84.1425 2.79266   1
   7   5  11  493.79 14.2595   1
   7   5  12 155.267 5.59753   1
   7   5  13 46.4588 2.01046   1
   7   5  14 33.7565 1.88747   1
   7   5  15 191.621 5.45687   1
   7   5  16 24.1275 1.65982   1
   7   5  17 255.068 7.49844   1
   7   5  18 140.075 5.53418   1
   7   5  19 102.374 3.83033   1
   7   5  20 44.5204 3.68767   1
   7   5  21 72.4826 5.09691   1
   7   5  22 22.4682 2.31359   1
   7   6 -22 32.4662 3.55671   1
   7   6 -21 22.0239 2.68767   1
   7   6 -20 161.468 5.76155   1
   7   6 -19 18.1155 2.65318   1
   7   6 -18 9.02451 2.34069   1
   7   6 -17 37.9933 2.39195   1
   7   6 -16 340.592 9.16086   1
   7   6 -15 16.9695 1.60991   1
   7   6 -14 55.2181 2.65368   1
   7   6 -13 5.84019 1.60985   1
   7   6 -12 673.746 17.1253   1
   7   6 -11  31.726 1.68315   1
   7   6 -10 211.616 6.34622   1
   7   6  -9 11.0403 1.28208   1
   7   6  -8 563.058 14.1085   1
   7   6  -7 71.8567 3.30201   1
   7   6  -6 311.616 8.41027   1
   7   6  -5 148.835 4.86545   1
   7   6  -4 175.786 5.32956   1
   7   6  -3   22.21 1.32502   1
   7   6  -2 414.102 10.5572   1
   7   6  -1 29.8985 1.25664   1
   7   6   0   96.27 3.07704   1
   7   6   1 29.2966 1.42092   1
   7   6   2 436.338 10.9394   1
   7   6   3 23.0858 1.16314   1
   7   6   4 170.241 4.55868   1
   7   6   5 143.986 4.47331   1
   7   6   6 309.563 7.86837   1
   7   6   7 74.3158 2.53009   1
   7   6   8 580.383 14.4874   1
   7   6   9 9.78548 1.36917   1
   7   6  10 201.228 5.48757   1
   7   6  11  32.956 2.96601   1
   7   6  12 653.757 17.8326   1
   7   6  13 7.91257 1.23065   1
   7   6  14 55.7327 2.09104   1
   7   6  15 14.5967 1.53995   1
   7   6  16 338.969 10.9201   1
   7   6  17 39.2857 2.37358   1
   7   6  18 4.81731 1.71592   1
   7   6  19 15.2888 2.13546   1
   7   6  20 158.612  6.8365   1
   7   6  21 17.9977 2.87488   1
   7   6  22 29.1169 3.15594   1
   7   7 -22 54.6634 4.02685   1
   7   7 -21 44.6047 3.42869   1
   7   7 -20 67.1018 3.60981   1
   7   7 -19  75.683 3.14366   1
   7   7 -18 39.2355 2.35417   1
   7   7 -17 246.744 8.76125   1
   7   7 -16 12.7271 2.25832   1
   7   7 -15 87.6257 3.01315   1
   7   7 -14 182.024 5.25285   1
   7   7 -13  109.16 3.56685   1
   7   7 -12  16.263 1.68102   1
   7   7 -11 476.722 12.2564   1
   7   7 -10  142.18 4.40192   1
   7   7  -9 71.1735  2.5965   1
   7   7  -8 104.314 3.20656   1
   7   7  -7 840.097 20.4257   1
   7   7  -6 81.7915 2.56776   1
   7   7  -5 30.1282 1.33178   1
   7   7  -4 585.153   14.28   1
   7   7  -3 185.656 4.89387   1
   7   7  -2 83.6113 2.57028   1
   7   7  -1 592.937  14.626   1
   7   7   0 233.964 5.93967   1
   7   7   1 587.348 15.3962   1
   7   7   2 76.3183 2.81262   1
   7   7   3 189.367 5.46534   1
   7   7   4 585.557 14.7448   1
   7   7   5 31.9323 1.28916   1
   7   7   6 82.6244 2.90672   1
   7   7   7 833.409 21.4885   1
   7   7   8 109.049 3.15872   1
   7   7   9 71.0084 2.86352   1
   7   7  10  151.01 4.43249   1
   7   7  11 463.409 11.8795   1
   7   7  12  15.972 1.26875   1
   7   7  13 107.024 3.39119   1
   7   7  14 174.258 6.17772   1
   7   7  15 85.3049 2.97605   1
   7   7  16 12.7851  1.7384   1
   7   7  17 235.758 6.84589   1
   7   7  18 40.6931 2.65025   1
   7   7  19 81.7556 3.49813   1
   7   7  20 69.4522 3.92537   1
   7   7  21 44.5102 3.23075   1
   7   7  22  51.533 3.21577   1
   7   8 -21 23.3954 3.29537   1
   7   8 -20 41.0771 3.45715   1
   7   8 -19 131.725 4.80525   1
   7   8 -18 1.51751 1.92175   1
   7   8 -17 120.345 3.97012   1
   7   8 -16 79.0838 2.92102   1
   7   8 -15 161.934 4.82072   1
   7   8 -14 22.8116 1.84391   1
   7   8 -13 217.086 6.47642   1
   7   8 -12 34.2892 1.80103   1
   7   8 -11  17.614 1.54605   1
   7   8 -10  215.96  5.9131   1
   7   8  -9 545.707 15.8651   1
   7   8  -8 636.815 16.0106   1
   7   8  -7 14.2426 1.49086   1
   7   8  -6 25.4215 1.44683   1
   7   8  -5 366.753  9.5186   1
   7   8  -4 24.5699 1.59125   1
   7   8  -3 122.228 3.41259   1
   7   8  -2   92.09 2.64568   1
   7   8  -1  237.89 6.05344   1
   7   8   0 0.28672 0.82098   1
   7   8   1 236.941 6.44274   1
   7   8   2  101.74 2.86957   1
   7   8   3 123.919 3.42879   1
   7   8   4 26.0477 1.16397   1
   7   8   5 383.342 9.44224   1
   7   8   6 20.4509 1.14027   1
   7   8   7 15.6046 1.24834   1
   7   8   8 638.576 15.8501   1
   7   8   9 548.894  14.187   1
   7   8  10 216.926 6.03222   1
   7   8  11 13.9075 1.81829   1
   7   8  12 38.6393 2.02325   1
   7   8  13 217.388 6.01588   1
   7   8  14 20.4009 1.70893   1
   7   8  15 152.708  4.5856   1
   7   8  16 76.4715 2.99632   1
   7   8  17 118.418 7.40998   1
   7   8  18 3.22318 1.97605   1
   7   8  19 144.253 5.69608   1
   7   8  20 35.4054 3.02918   1
   7   8  21 16.7837 2.72952   1
   7   9 -21 17.6708 3.24284   1
   7   9 -20 8.01592 2.61991   1
   7   9 -19-1.14791 6.55493   1
   7   9 -18 372.718 10.9866   1
   7   9 -17 27.5556 2.51794   1
   7   9 -16 0.32106 1.67032   1
   7   9 -15 46.0271 2.42063   1
   7   9 -14 221.448 8.34759   1
   7   9 -13 23.5553 1.83511   1
   7   9 -12 133.032 4.01121   1
   7   9 -11 24.7674 1.74807   1
   7   9 -10 390.495 10.4422   1
   7   9  -9 29.1479 1.70462   1
   7   9  -8 244.392 6.77519   1
   7   9  -7 47.3851 1.72732   1
   7   9  -6 294.287 8.45535   1
   7   9  -5  91.289 2.89256   1
   7   9  -4 241.213 6.30457   1
   7   9  -3 50.1241  1.9952   1
   7   9  -2  15.735 1.34757   1
   7   9  -1 21.6625 1.19256   1
   7   9   0 793.738 19.1234   1
   7   9   1  22.328 1.55037   1
   7   9   2 15.6951 0.96219   1
   7   9   3 50.4528 1.74325   1
   7   9   4 245.883 6.23418   1
   7   9   5 96.9634 2.95088   1
   7   9   6 305.017 8.06006   1
   7   9   7 42.4535 2.46643   1
   7   9   8 247.259 6.60335   1
   7   9   9 26.6676 1.83714   1
   7   9  10 374.692 9.74985   1
   7   9  11 26.9086 1.60381   1
   7   9  12  130.86 4.74882   1
   7   9  13 23.0214 2.20868   1
   7   9  14 209.883  7.6813   1
   7   9  15 45.0708 2.36489   1
   7   9  16-0.27226 5.02037   1
   7   9  17 24.3812 2.35167   1
   7   9  18 405.112 16.8808   1
   7   9  19 0.47452  2.0654   1
   7   9  20 4.37239 3.08211   1
   7   9  21 14.7945 3.13293   1
   7  10 -20 93.1171 5.14383   1
   7  10 -19 42.4307 3.62599   1
   7  10 -18  3.9335  2.7633   1
   7  10 -17 172.968 6.70901   1
   7  10 -16 129.094 5.64022   1
   7  10 -15 61.0398 3.56614   1
   7  10 -14  6.6206  1.9022   1
   7  10 -13 151.777 5.50278   1
   7  10 -12 13.9397 1.61075   1
   7  10 -11 9.95157 1.69619   1
   7  10 -10 149.088 5.38602   1
   7  10  -9 567.558 14.8249   1
   7  10  -8 23.1394 1.71405   1
   7  10  -7  58.368 2.27535   1
   7  10  -6 70.2913  3.1291   1
   7  10  -5  178.20 5.10338   1
   7  10  -4 18.7114 1.35494   1
   7  10  -3 18.0219 1.63156   1
   7  10  -2 138.271 3.94201   1
   7  10  -1  149.14 5.07799   1
   7  10   0 69.2901 2.57773   1
   7  10   1 145.848  3.9365   1
   7  10   2 146.462 4.04313   1
   7  10   3 18.0811 1.25434   1
   7  10   4  17.569 1.14492   1
   7  10   5 183.293 5.03427   1
   7  10   6 72.3764 2.41618   1
   7  10   7 60.3808 3.18431   1
   7  10   8 24.7826 2.08383   1
   7  10   9 559.672 14.3285   1
   7  10  10 132.589 4.25172   1
   7  10  11 10.1935 1.63649   1
   7  10  12 7.55756 1.55022   1
   7  10  13 156.896 4.68341   1
   7  10  14 5.57722 2.12644   1
   7  10  15 57.8979 3.20353   1
   7  10  16 112.604 4.17781   1
   7  10  17 177.889 5.97286   1
   7  10  18 4.50165 2.67109   1
   7  10  19 53.7635 5.62805   1
   7  10  20 97.4476 5.13012   1
   7  11 -20  20.022 3.61606   1
   7  11 -19 99.8515 7.09222   1
   7  11 -18  76.209 4.43964   1
   7  11 -17 58.9955 4.47442   1
   7  11 -16 25.2011  4.3573   1
   7  11 -15 207.128 6.96383   1
   7  11 -14 59.5378 4.78392   1
   7  11 -13 8.15692 1.94557   1
   7  11 -12 47.0706 2.99137   1
   7  11 -11 328.006 12.2398   1
   7  11 -10 72.7061 3.37233   1
   7  11  -9 21.3826 1.78269   1
   7  11  -8 89.9863 3.19689   1
   7  11  -7 277.251 8.99387   1
   7  11  -6 24.5111  1.9519   1
   7  11  -5 95.6598 2.95799   1
   7  11  -4 9.39987 1.59275   1
   7  11  -3 228.006 6.55547   1
   7  11  -2 19.9626 1.75167   1
   7  11  -1 97.8191 3.52597   1
   7  11   0 22.3553 1.74653   1
   7  11   1 89.7548 3.20077   1
   7  11   2  18.489 1.32675   1
   7  11   3 234.729 6.33539   1
   7  11   4 5.59828 1.27125   1
   7  11   5 86.6165 3.14761   1
   7  11   6 24.0021 1.60832   1
   7  11   7 286.723 9.09742   1
   7  11   8 88.0078 3.57016   1
   7  11   9 18.8534 1.64934   1
   7  11  10 62.4431 2.52422   1
   7  11  11  314.71 10.1489   1
   7  11  12  46.365 2.44281   1
   7  11  13 6.06834 1.57279   1
   7  11  14 63.7475 2.81056   1
   7  11  15 200.507 6.36717   1
   7  11  16 26.0363 2.99152   1
   7  11  17 59.5747 5.01002   1
   7  11  18  84.017 5.83911   1
   7  11  19 93.4897 5.37957   1
   7  11  20 17.9063 3.74836   1
   7  12 -19 18.3782 5.59186   1
   7  12 -18-0.10639  6.1164   1
   7  12 -17 1.90745 3.94923   1
   7  12 -16 239.705 14.6169   1
   7  12 -15 3.07381 2.23645   1
   7  12 -14  27.949 2.63753   1
   7  12 -13 80.2378 4.32933   1
   7  12 -12 236.102 8.45888   1
   7  12 -11 60.7596 3.71641   1
   7  12 -10 142.143 5.65256   1
   7  12  -9 63.1482 2.56603   1
   7  12  -8 139.806 6.81005   1
   7  12  -7 75.0526 2.93851   1
   7  12  -6 208.639 5.94945   1
   7  12  -5 69.9365  2.6727   1
   7  12  -4 43.5706 3.05995   1
   7  12  -3 85.4248 2.97333   1
   7  12  -2 416.648 11.2162   1
   7  12  -1 63.0199 2.27528   1
   7  12   0 16.9286 1.37848   1
   7  12   1 62.4271 2.41779   1
   7  12   2 406.964 10.3537   1
   7  12   3 92.7845 3.78911   1
   7  12   4 48.5419 2.22267   1
   7  12   5 69.7865 2.78545   1
   7  12   6 206.711 5.84659   1
   7  12   7 79.3453 3.03768   1
   7  12   8 139.228 5.06731   1
   7  12   9 60.7319 2.53573   1
   7  12  10 147.154 5.56796   1
   7  12  11 53.5816 2.53778   1
   7  12  12 229.265 8.70435   1
   7  12  13 67.7627 2.87912   1
   7  12  14 25.5481 2.28817   1
   7  12  15 3.97275  2.3146   1
   7  12  16 223.425 13.7231   1
   7  12  17 -1.1675 5.82502   1
   7  12  18-2.57893  6.8434   1
   7  12  19 18.2993 4.49074   1
   7  13 -18 18.6703 2.88736   1
   7  13 -17  82.768 4.33841   1
   7  13 -16 3.22859 2.41056   1
   7  13 -15 88.1132 4.45034   1
   7  13 -14 206.231 11.3544   1
   7  13 -13 44.6246 3.57672   1
   7  13 -12 3.79075  2.8191   1
   7  13 -11 516.766 17.6507   1
   7  13 -10 87.5997 5.53412   1
   7  13  -9 13.6157 2.25774   1
   7  13  -8 86.7427 3.54416   1
   7  13  -7 342.345 11.5148   1
   7  13  -6 38.7342 2.54455   1
   7  13  -5 4.32171 1.86788   1
   7  13  -4 405.854 10.9016   1
   7  13  -3  119.10  4.5871   1
   7  13  -2 91.6977 3.71486   1
   7  13  -1  75.988 3.09649   1
   7  13   0  232.06 6.41469   1
   7  13   1 77.7434 3.59525   1
   7  13   2  86.924 3.49394   1
   7  13   3 128.339 3.78594   1
   7  13   4 428.574 11.4185   1
   7  13   5 3.53311 1.60874   1
   7  13   6 40.4286 2.20416   1
   7  13   7  338.08 9.96527   1
   7  13   8 73.9015 3.08733   1
   7  13   9 15.6868 1.86086   1
   7  13  10 90.1011 4.10998   1
   7  13  11 517.649 14.4326   1
   7  13  12 6.90245 2.13651   1
   7  13  13 44.0986  2.9278   1
   7  13  14 199.857 9.88187   1
   7  13  15 86.4501 3.96471   1
   7  13  16  -1.019 6.40925   1
   7  13  17 84.2011 5.48076   1
   7  13  18  24.569 4.63765   1
   7  14 -17 23.4266 8.34417   1
   7  14 -16 84.4686 6.81321   1
   7  14 -15 108.922 7.50436   1
   7  14 -14 30.5461 4.19978   1
   7  14 -13 107.376 5.59718   1
   7  14 -12 9.24283 2.80489   1
   7  14 -11  61.883 5.27479   1
   7  14 -10  115.60 5.52029   1
   7  14  -9  236.29 8.29074   1
   7  14  -8 248.962 12.0845   1
   7  14  -7 32.5824 2.55876   1
   7  14  -6 10.2125 3.13592   1
   7  14  -5 447.978 12.4013   1
   7  14  -4 19.1764 2.13206   1
   7  14  -3 101.144 4.47005   1
   7  14  -2 68.3633  2.7167   1
   7  14  -1 279.191 9.34471   1
   7  14   0 1.67486  1.5855   1
   7  14   1  275.98  7.5992   1
   7  14   2 66.6395 2.44576   1
   7  14   3 107.941 3.93183   1
   7  14   4 19.7552  2.1474   1
   7  14   5 443.252   13.11   1
   7  14   6 10.2944 2.04102   1
   7  14   7  36.568   2.506   1
   7  14   8 248.986 7.69155   1
   7  14   9 248.476 8.04313   1
   7  14  10 125.899 4.49292   1
   7  14  11 59.1711  3.3514   1
   7  14  12 11.3824 2.99289   1
   7  14  13 107.341 6.20065   1
   7  14  14 31.1503  2.8201   1
   7  14  15 101.443 7.65283   1
   7  14  16 80.6304 4.85547   1
   7  14  17 27.0266 4.10161   1
   7  15 -16 13.7161 4.39047   1
   7  15 -15 2.81353 5.72115   1
   7  15 -14 249.406 20.5028   1
   7  15 -13 2.46252 4.58719   1
   7  15 -12 24.3429 4.77634   1
   7  15 -11 24.2388 5.62299   1
   7  15 -10 234.945   10.64   1
   7  15  -9 20.1891 3.20713   1
   7  15  -8 297.175 9.57944   1
   7  15  -7 17.5788 2.60672   1
   7  15  -6 313.059 9.67153   1
   7  15  -5 99.2217 6.38963   1
   7  15  -4 293.626 11.1405   1
   7  15  -3 15.7838 2.20656   1
   7  15  -2 10.7006 2.51023   1
   7  15  -1-0.37777 5.07126   1
   7  15   0 843.203 22.0762   1
   7  15   1 0.94524 2.08767   1
   7  15   2 8.67115 1.81654   1
   7  15   3 13.1666   2.072   1
   7  15   4 274.255 9.70652   1
   7  15   5 93.0161 4.38242   1
   7  15   6 313.113 9.11156   1
   7  15   7 15.8526 2.18651   1
   7  15   8 301.079 8.81627   1
   7  15   9 18.3276 2.51104   1
   7  15  10 228.308 15.5968   1
   7  15  11 25.3748 3.90569   1
   7  15  12 41.6894 4.08838   1
   7  15  13-0.90045 6.43736   1
   7  15  14 223.924 17.0979   1
   7  15  15 4.09934 3.37964   1
   7  15  16 17.3853 3.46163   1
   7  16 -15 35.6258 7.88007   1
   7  16 -14  23.392 5.31501   1
   7  16 -13 76.6395 6.12144   1
   7  16 -12 52.5709 4.84596   1
   7  16 -11 20.9428 3.54398   1
   7  16 -10  46.372 4.55902   1
   7  16  -9 264.373 10.9007   1
   7  16  -8-0.60508 4.55261   1
   7  16  -7 32.7638 3.06916   1
   7  16  -6 90.4071 5.92861   1
   7  16  -5 243.089 8.59592   1
   7  16  -4 14.2437 2.57588   1
   7  16  -3 33.1442 3.24435   1
   7  16  -2 112.853 3.98286   1
   7  16  -1 92.2735 4.52156   1
   7  16   0 45.2159 2.59356   1
   7  16   1 92.1406 3.35376   1
   7  16   2 122.098 4.16786   1
   7  16   3 34.6119 4.43806   1
   7  16   4 17.0776 5.73852   1
   7  16   5 263.148 12.6179   1
   7  16   6 98.1609 4.25661   1
   7  16   7 35.8772 3.15862   1
   7  16   8 3.76583 3.02586   1
   7  16   9 265.474 11.8775   1
   7  16  10 42.1865 4.99458   1
   7  16  11 32.4221 4.31289   1
   7  16  12 50.8457 4.71029   1
   7  16  13 79.3849 6.96162   1
   7  16  14 25.9528 5.13652   1
   7  16  15 51.4641 4.92839   1
   7  17 -13 11.2719 7.44375   1
   7  17 -12  40.603  7.7834   1
   7  17 -11 108.989 16.0991   1
   7  17 -10  90.071 8.61868   1
   7  17  -9 25.5172 4.48227   1
   7  17  -8 34.6252 4.87059   1
   7  17  -7 122.759 6.92175   1
   7  17  -6 58.1604 11.1779   1
   7  17  -5 127.001 6.99467   1
   7  17  -4 9.67096 2.64607   1
   7  17  -3 230.598 9.43866   1
   7  17  -2 3.70879 2.18106   1
   7  17  -1 102.248 5.71251   1
   7  17   0 53.3817 3.10782   1
   7  17   1 97.2048  3.7741   1
   7  17   2 4.71611 2.34848   1
   7  17   3 228.275 7.46686   1
   7  17   4 6.84066 2.88116   1
   7  17   5 110.258 5.53508   1
   7  17   6 55.5707 4.42662   1
   7  17   7 120.746 7.58809   1
   7  17   8 41.8678 4.84996   1
   7  17   9  26.282 5.56407   1
   7  17  10 88.1597 4.76913   1
   7  17  11  98.733  5.6612   1
   7  17  12 27.7197 3.52129   1
   7  17  13 12.2849 4.52092   1
   7  18 -11 7.80223 4.65156   1
   7  18 -10 48.7381 6.03018   1
   7  18  -9 2.98166 8.29409   1
   7  18  -8  22.414 7.22931   1
   7  18  -7 80.2919 6.04673   1
   7  18  -6 237.174 12.5281   1
   7  18  -5  43.704 4.84022   1
   7  18  -4 46.4067 3.56066   1
   7  18  -3 2.11948 3.05246   1
   7  18  -2 130.547 5.23863   1
   7  18  -1 7.15621  2.8275   1
   7  18   0  2.7937 3.40697   1
   7  18   1 1.96563 3.21688   1
   7  18   2 131.829 7.42888   1
   7  18   3 6.87622 3.65065   1
   7  18   4 46.6404 3.47986   1
   7  18   5 42.8466 3.71276   1
   7  18   6 218.527 7.76143   1
   7  18   7   85.88 4.78385   1
   7  18   8 38.2433 6.94212   1
   7  18   9 9.93415 3.13151   1
   7  18  10 53.8962 4.24033   1
   7  18  11-1.89296 8.24527   1
   7  19  -9 20.1934 5.08543   1
   7  19  -8 53.0762 8.22584   1
   7  19  -7 119.196 7.48229   1
   7  19  -6 18.1649 10.7712   1
   7  19  -5  23.706 4.07663   1
   7  19  -4 348.724 12.3464   1
   7  19  -3 34.9854  3.4564   1
   7  19  -2 69.1475 4.85397   1
   7  19  -1 88.3914 4.09727   1
   7  19   0 95.3687  5.2945   1
   7  19   1 71.9785 6.05528   1
   7  19   2 77.2916 6.62451   1
   7  19   3 41.7757 4.68277   1
   7  19   4 347.168 14.1534   1
   7  19   5 28.0623 3.36177   1
   7  19   6 17.8937  3.1093   1
   7  19   7 102.512 4.91062   1
   7  19   8 49.2888 5.12895   1
   7  19   9 18.6286 4.64185   1
   7  20  -6 2.70689 4.88433   1
   7  20  -5 210.442 10.0339   1
   7  20  -4 13.9925 4.75982   1
   7  20  -3 113.674 5.50474   1
   7  20  -2 1.63404 3.85258   1
   7  20  -1 229.312 8.68558   1
   7  20   0  11.113  3.2391   1
   7  20   1 240.543 8.50236   1
   7  20   2 0.60635 3.68577   1
   7  20   3 99.9781 5.85708   1
   7  20   4 9.76361 5.00972   1
   7  20   5 215.748 16.8177   1
   7  20   6 2.81179 3.47962   1
   8   0   0 99.0124 3.83812   1
   8   0   1 729.149 18.9259   1
   8   0   2 42.6559 2.31814   1
   8   0   3 325.014 8.36264   1
   8   0   4 63.3157 2.31713   1
   8   0   5 161.498  6.8658   1
   8   0   6 236.073 6.58881   1
   8   0   7 137.643  4.4357   1
   8   0   8 79.4873 2.70267   1
   8   0   9 798.377   22.06   1
   8   0  10 210.341 5.92428   1
   8   0  11 46.1776 2.20905   1
   8   0  12 124.391 3.87511   1
   8   0  13   10.31 1.67393   1
   8   0  14 80.8099 3.00932   1
   8   0  15 301.617 9.06656   1
   8   0  16 14.9663 2.22459   1
   8   0  17 65.1023 3.33149   1
   8   0  18 71.1343 3.41824   1
   8   0  19 169.917 5.78952   1
   8   0  20 4.09127 2.48329   1
   8   1 -20 41.1495 3.18034   1
   8   1 -19 55.8178 4.05897   1
   8   1 -18 87.5017 3.65403   1
   8   1 -17 226.364 6.90128   1
   8   1 -16 81.0642 3.89704   1
   8   1 -15 19.8093 2.15694   1
   8   1 -14 124.781 4.14441   1
   8   1 -13 283.513 7.80664   1
   8   1 -12 19.6854 1.88847   1
   8   1 -11 88.3787 3.37766   1
   8   1 -10 172.103 4.94413   1
   8   1  -9 241.457 7.49879   1
   8   1  -8  166.51  6.4224   1
   8   1  -7 36.7157  1.8166   1
   8   1  -6 211.145 6.80275   1
   8   1  -5 166.179 4.54881   1
   8   1  -4 167.786 4.79557   1
   8   1  -3 15.0575 1.34693   1
   8   1  -2 12.9844 1.35153   1
   8   1  -1  141.48  4.0998   1
   8   1   0 789.981 20.0938   1
   8   1   1 152.773 4.62623   1
   8   1   2 9.82734 1.19271   1
   8   1   3 14.3538 1.20063   1
   8   1   4 167.743 5.66235   1
   8   1   5 154.203 4.81733   1
   8   1   6 217.958 6.29856   1
   8   1   7 32.8605 2.81941   1
   8   1   8 172.668  7.5363   1
   8   1   9 244.359 6.81411   1
   8   1  10  151.88 5.00521   1
   8   1  11 93.3686 3.49837   1
   8   1  12 24.1677 2.07374   1
   8   1  13 283.275 8.26292   1
   8   1  14 125.424 4.29824   1
   8   1  15 17.1697   1.935   1
   8   1  16 85.4924 3.63996   1
   8   1  17 217.408 6.95121   1
   8   1  18 89.1784 4.27898   1
   8   1  19 59.8477 4.01373   1
   8   1  20 42.0103 3.31824   1
   8   2 -20 170.344 8.20732   1
   8   2 -19 65.6351 3.62902   1
   8   2 -18 1.77401   2.774   1
   8   2 -17 17.9469 2.49516   1
   8   2 -16  197.03 6.02234   1
   8   2 -15 237.936 6.88761   1
   8   2 -14 69.2832 2.99853   1
   8   2 -13 62.6879   2.724   1
   8   2 -12 25.9211 1.98414   1
   8   2 -11 145.806 5.01538   1
   8   2 -10 213.174 6.78584   1
   8   2  -9 100.883 3.25133   1
   8   2  -8 49.5533 2.68551   1
   8   2  -7 230.231 6.46942   1
   8   2  -6 81.1774 3.07269   1
   8   2  -5 138.508 4.83884   1
   8   2  -4  76.835 2.43689   1
   8   2  -3 231.581  6.3983   1
   8   2  -2 354.655 12.2048   1
   8   2  -1  129.93 3.61833   1
   8   2   0 9.36335 1.41477   1
   8   2   1 126.256 3.45887   1
   8   2   2 346.074 8.80745   1
   8   2   3 222.481 6.64744   1
   8   2   4 77.5576 2.47757   1
   8   2   5 136.968 4.04579   1
   8   2   6 83.1851 3.45644   1
   8   2   7 220.522 6.10648   1
   8   2   8 57.4904 2.29959   1
   8   2   9 106.706 4.32931   1
   8   2  10 203.617 6.48129   1
   8   2  11 142.875 4.35183   1
   8   2  12 28.4623 1.97894   1
   8   2  13  63.187 4.01939   1
   8   2  14 69.6454 2.92522   1
   8   2  15  245.56  7.1016   1
   8   2  16 197.052  7.4628   1
   8   2  17 20.6438 2.59119   1
   8   2  18 3.31731 2.38353   1
   8   2  19 66.4757 3.52877   1
   8   2  20 167.144 6.64701   1
   8   3 -20 78.3887 4.26294   1
   8   3 -19 93.5841 3.99244   1
   8   3 -18 11.0408 2.33038   1
   8   3 -17 205.361 8.71214   1
   8   3 -16 145.809  5.0266   1
   8   3 -15 17.8014 1.97994   1
   8   3 -14 161.265 5.12893   1
   8   3 -13  0.7759 1.77273   1
   8   3 -12 277.595 7.93679   1
   8   3 -11 158.138 5.80675   1
   8   3 -10 116.033 5.03901   1
   8   3  -9 11.2192 1.47961   1
   8   3  -8 133.117 4.32985   1
   8   3  -7 113.385 3.54685   1
   8   3  -6 184.465 5.51107   1
   8   3  -5  22.511 1.72385   1
   8   3  -4 163.342 4.63774   1
   8   3  -3 134.364 3.88846   1
   8   3  -2 57.0402 2.00532   1
   8   3  -1 155.958  4.7429   1
   8   3   0  4.3922 0.95045   1
   8   3   1 153.732 4.55267   1
   8   3   2 51.8666 1.82477   1
   8   3   3 119.935 4.17774   1
   8   3   4  162.90 4.37861   1
   8   3   5 21.4916 1.38054   1
   8   3   6  183.68 5.54684   1
   8   3   7 110.947 3.61586   1
   8   3   8 133.534 4.89511   1
   8   3   9 8.70353 1.53688   1
   8   3  10 117.995 3.78677   1
   8   3  11 162.241  4.8829   1
   8   3  12 278.858 7.80868   1
   8   3  13 0.10071 2.10127   1
   8   3  14 168.484 6.26223   1
   8   3  15  19.664 2.04478   1
   8   3  16 150.448   6.775   1
   8   3  17 201.964 7.51278   1
   8   3  18 6.81194 2.15796   1
   8   3  19 89.4994  3.9077   1
   8   3  20 72.3208 3.65376   1
   8   4 -20 118.073 5.14898   1
   8   4 -19 68.4591 4.42226   1
   8   4 -18 13.1746 2.56674   1
   8   4 -17 16.8757 2.45294   1
   8   4 -16 146.865 5.03906   1
   8   4 -15 145.659  5.5756   1
   8   4 -14 79.7999 3.76758   1
   8   4 -13  187.67  5.7712   1
   8   4 -12 16.7635  2.0833   1
   8   4 -11 258.491 7.17893   1
   8   4 -10 311.631 10.8032   1
   8   4  -9 50.2094 2.36666   1
   8   4  -8 41.6798 1.90987   1
   8   4  -7  197.02 5.46306   1
   8   4  -6 75.4381 2.59693   1
   8   4  -5 63.6717 2.17403   1
   8   4  -4  150.88 4.87302   1
   8   4  -3 93.0642 3.16357   1
   8   4  -2 137.544 3.95076   1
   8   4  -1 66.8998 2.65834   1
   8   4   0 33.9392 1.88035   1
   8   4   1 64.1782  2.5715   1
   8   4   2 143.068 4.44751   1
   8   4   3 90.9728 2.82633   1
   8   4   4 131.142 3.73906   1
   8   4   5 64.3238 2.76297   1
   8   4   6 77.8678 2.56253   1
   8   4   7 204.785 7.48241   1
   8   4   8 41.7515 2.01002   1
   8   4   9 41.0535 2.23326   1
   8   4  10 309.875 9.58007   1
   8   4  11  259.09 7.25233   1
   8   4  12 11.9753 1.94217   1
   8   4  13 182.179 5.73209   1
   8   4  14 81.1684 3.23513   1
   8   4  15 150.061 4.99693   1
   8   4  16 141.894   5.555   1
   8   4  17 20.9751 2.30912   1
   8   4  18 12.9729 2.80177   1
   8   4  19 61.1693 3.35897   1
   8   4  20 116.511 5.18431   1
   8   5 -19 137.387 5.89157   1
   8   5 -18 119.019 6.47381   1
   8   5 -17 125.085 6.46468   1
   8   5 -16 56.8823 2.94901   1
   8   5 -15 7.29485  2.1463   1
   8   5 -14 119.426 4.21834   1
   8   5 -13 227.558 7.97178   1
   8   5 -12 94.6258 3.75605   1
   8   5 -11 25.3193 1.89932   1
   8   5 -10 135.857 4.92999   1
   8   5  -9 205.541 5.68162   1
   8   5  -8 148.665 5.68332   1
   8   5  -7 44.3518 1.94465   1
   8   5  -6 95.8968  4.2511   1
   8   5  -5 212.047 5.88554   1
   8   5  -4 151.945 4.82858   1
   8   5  -3 15.1033  1.4126   1
   8   5  -2 2.31686 1.06746   1
   8   5  -1 205.861 5.89614   1
   8   5   0 474.526 12.2392   1
   8   5   1 197.275 5.20912   1
   8   5   2 4.80788 1.17451   1
   8   5   3 12.2477 1.16337   1
   8   5   4 140.266 4.59094   1
   8   5   5 211.497 6.92432   1
   8   5   6 101.456 3.22169   1
   8   5   7 42.5413  1.8863   1
   8   5   8 139.831 4.10023   1
   8   5   9  205.41 7.19956   1
   8   5  10 139.594 4.26515   1
   8   5  11 25.2654 1.88795   1
   8   5  12 83.2239 2.99023   1
   8   5  13 203.363   5.992   1
   8   5  14 126.279 4.76934   1
   8   5  15 7.76453 2.20921   1
   8   5  16 50.4204 2.96311   1
   8   5  17 124.734 5.66445   1
   8   5  18 126.182 5.17978   1
   8   5  19 144.463 7.38555   1
   8   6 -19 124.403 4.96199   1
   8   6 -18 112.335 4.69669   1
   8   6 -17 48.7112 3.80852   1
   8   6 -16 34.1315 3.11999   1
   8   6 -15 223.938 9.21001   1
   8   6 -14 125.237 4.06361   1
   8   6 -13 46.8837 2.33539   1
   8   6 -12 112.011 4.51589   1
   8   6 -11 1.99235 1.64201   1
   8   6 -10 167.346 4.80221   1
   8   6  -9 487.377 12.8641   1
   8   6  -8 128.432 3.83429   1
   8   6  -7  20.641 1.67699   1
   8   6  -6 180.147 5.40501   1
   8   6  -5 117.263 3.52366   1
   8   6  -4 85.8931  3.1327   1
   8   6  -3 250.214 7.19968   1
   8   6  -2 12.0189 1.11252   1
   8   6  -1  228.16 6.53804   1
   8   6   0 110.264 3.23348   1
   8   6   1 223.884 6.00105   1
   8   6   2 12.3712 1.28909   1
   8   6   3 250.493 6.52837   1
   8   6   4 70.5535 2.73339   1
   8   6   5 115.118 3.45364   1
   8   6   6 179.911  6.4234   1
   8   6   7 21.0363 1.64216   1
   8   6   8  123.40  5.0582   1
   8   6   9  494.98 13.0607   1
   8   6  10 164.245 4.91399   1
   8   6  11 5.73652 1.46638   1
   8   6  12 97.6023 3.31463   1
   8   6  13 45.5629 2.21168   1
   8   6  14 122.678 4.12624   1
   8   6  15 229.628 8.82417   1
   8   6  16 35.0175 2.95547   1
   8   6  17  51.329 4.28844   1
   8   6  18 119.856 11.7417   1
   8   6  19  122.25 5.59301   1
   8   7 -19 15.3585 2.98731   1
   8   7 -18  158.29 6.94404   1
   8   7 -17 103.382 5.72978   1
   8   7 -16 124.101 4.77827   1
   8   7 -15 18.3258 2.13896   1
   8   7 -14 41.2886  2.3846   1
   8   7 -13 193.232 5.90785   1
   8   7 -12 24.3932 2.36215   1
   8   7 -11 52.6263 2.26245   1
   8   7 -10 89.0788 2.98852   1
   8   7  -9 254.787 8.51479   1
   8   7  -8 104.744 3.46968   1
   8   7  -7 145.453 4.68752   1
   8   7  -6  152.86 5.15341   1
   8   7  -5 190.661 6.20537   1
   8   7  -4  168.11 4.70815   1
   8   7  -3 68.0651 2.62084   1
   8   7  -2 123.221 4.35563   1
   8   7  -1 153.666 4.61747   1
   8   7   0 606.605 15.5889   1
   8   7   1 160.922 4.40661   1
   8   7   2 116.878 3.44353   1
   8   7   3  59.426  2.0901   1
   8   7   4 156.602  4.4366   1
   8   7   5 170.993 4.75059   1
   8   7   6 164.227 4.71504   1
   8   7   7 145.713 4.71932   1
   8   7   8 100.286 3.53995   1
   8   7   9 248.232 7.17346   1
   8   7  10 79.9635 3.01317   1
   8   7  11 45.3741 3.01357   1
   8   7  12 20.9783 2.52326   1
   8   7  13 185.247 6.15371   1
   8   7  14 35.5825 2.31504   1
   8   7  15 19.6759 2.45869   1
   8   7  16 123.443 4.70532   1
   8   7  17 99.3423  4.4993   1
   8   7  18 156.493 6.62165   1
   8   7  19 10.5545 3.37138   1
   8   8 -18 8.54095 2.42206   1
   8   8 -17 10.3588 2.76369   1
   8   8 -16 197.746 6.29304   1
   8   8 -15  82.047 3.37258   1
   8   8 -14 64.6381 2.92895   1
   8   8 -13 3.56976 1.90083   1
   8   8 -12 95.5118 3.44371   1
   8   8 -11  163.74 6.02707   1
   8   8 -10 190.107 6.55411   1
   8   8  -9 23.9871 1.82629   1
   8   8  -8 138.977 5.08507   1
   8   8  -7  113.29 3.65706   1
   8   8  -6  124.59 5.23213   1
   8   8  -5  186.33 5.25711   1
   8   8  -4 27.9693 2.48788   1
   8   8  -3 106.296 3.31685   1
   8   8  -2  287.21 7.51797   1
   8   8  -1 103.089 3.79526   1
   8   8   0 23.6054 1.42747   1
   8   8   1  114.25 3.58384   1
   8   8   2 274.842 7.12835   1
   8   8   3 107.341 3.19648   1
   8   8   4 28.1121 1.69733   1
   8   8   5 189.043 5.13956   1
   8   8   6 123.277 4.29147   1
   8   8   7 114.892 3.72067   1
   8   8   8 138.745 4.82051   1
   8   8   9 22.1088 1.99836   1
   8   8  10 175.581 5.41855   1
   8   8  11 175.207 5.91388   1
   8   8  12 97.8262 5.00401   1
   8   8  13 2.97604  2.8971   1
   8   8  14 62.0494 3.09005   1
   8   8  15  81.302 4.72811   1
   8   8  16 195.335  8.3236   1
   8   8  17 9.64581  2.6335   1
   8   8  18 5.29493 2.99064   1
   8   9 -18 8.81181 2.94262   1
   8   9 -17 63.4552 4.44667   1
   8   9 -16 147.193 10.4032   1
   8   9 -15 73.3899 3.81549   1
   8   9 -14 46.2642 2.42771   1
   8   9 -13 29.2272 2.13925   1
   8   9 -12 222.368 6.72314   1
   8   9 -11 135.407 4.36433   1
   8   9 -10 47.1498 2.39736   1
   8   9  -9  1.6594 1.48699   1
   8   9  -8 99.7214 3.32466   1
   8   9  -7 173.572 5.10703   1
   8   9  -6 161.261  5.4171   1
   8   9  -5 29.1733 1.78952   1
   8   9  -4 62.8871 4.48691   1
   8   9  -3 147.495   4.962   1
   8   9  -2 205.303 5.72315   1
   8   9  -1 183.815 5.42747   1
   8   9   0  139.87 4.75058   1
   8   9   1 175.934 5.95725   1
   8   9   2  194.51 5.69637   1
   8   9   3 140.935 4.99768   1
   8   9   4 63.6549 2.54888   1
   8   9   5 27.6126 1.84585   1
   8   9   6 160.381  5.8405   1
   8   9   7 160.292 4.76193   1
   8   9   8 85.8473 3.37355   1
   8   9   9 3.83939 1.71892   1
   8   9  10  47.408 2.52899   1
   8   9  11 121.211 4.39594   1
   8   9  12 229.701   7.184   1
   8   9  13  35.853 3.34119   1
   8   9  14 41.9227 3.46318   1
   8   9  15 71.3108 4.12447   1
   8   9  16  145.05 5.96859   1
   8   9  17 63.9095  4.4253   1
   8   9  18 8.86626 3.68507   1
   8  10 -17 56.6696 5.49901   1
   8  10 -16 89.8273 4.37814   1
   8  10 -15 71.0093  4.2622   1
   8  10 -14 21.9039 3.72264   1
   8  10 -13  121.35 6.60965   1
   8  10 -12 1.30428 2.29633   1
   8  10 -11  175.11 5.86803   1
   8  10 -10  121.14 4.75922   1
   8  10  -9  15.868 1.98079   1
   8  10  -8 159.773 6.82567   1
   8  10  -7  240.04 9.25752   1
   8  10  -6 27.7577 1.85951   1
   8  10  -5  47.237  2.1821   1
   8  10  -4 104.214 3.88933   1
   8  10  -3 110.078   3.715   1
   8  10  -2 231.578 7.47145   1
   8  10  -1-0.37052 4.90322   1
   8  10   0 135.111 4.85543   1
   8  10   1 2.37277 1.65061   1
   8  10   2 237.221 9.41057   1
   8  10   3  105.11 3.80555   1
   8  10   4 91.5234  3.7061   1
   8  10   5 44.9181 2.40454   1
   8  10   6 15.5544 2.36157   1
   8  10   7 238.433 7.08273   1
   8  10   8  161.29  6.0457   1
   8  10   9 13.7312 2.12845   1
   8  10  10 119.532 8.15382   1
   8  10  11 175.433 6.19537   1
   8  10  12 5.14844 2.35327   1
   8  10  13 116.623 5.98543   1
   8  10  14 32.3419 6.33156   1
   8  10  15  64.844 3.88381   1
   8  10  16 87.3215 10.8097   1
   8  10  17 48.0939 4.63317   1
   8  11 -16  28.226 3.99463   1
   8  11 -15 22.1605 4.01795   1
   8  11 -14  66.349 4.47127   1
   8  11 -13 101.203 6.08198   1
   8  11 -12 122.536 6.96311   1
   8  11 -11 37.5873 2.70618   1
   8  11 -10 101.809  3.9555   1
   8  11  -9 238.434  9.5444   1
   8  11  -8 138.656 4.89528   1
   8  11  -7 16.0852 2.97064   1
   8  11  -6 48.5488 2.69944   1
   8  11  -5 134.616 4.29089   1
   8  11  -4 153.576 6.79868   1
   8  11  -3 25.9196 1.88123   1
   8  11  -2 7.94244 1.85387   1
   8  11  -1  194.08 5.70671   1
   8  11   0 43.7213 2.81969   1
   8  11   1 191.846 6.19181   1
   8  11   2 6.95486 1.49309   1
   8  11   3 22.8432 2.54663   1
   8  11   4 143.086 4.91154   1
   8  11   5  124.34 6.68925   1
   8  11   6 48.1951 2.69797   1
   8  11   7 18.7722 2.44102   1
   8  11   8 131.121 4.61637   1
   8  11   9 232.651 7.11709   1
   8  11  10 101.705 4.28439   1
   8  11  11 33.8172 3.68928   1
   8  11  12 123.492 6.25335   1
   8  11  13 98.0161 8.19481   1
   8  11  14  73.401 4.40246   1
   8  11  15 21.1454 3.26686   1
   8  11  16 35.1863 4.79296   1
   8  12 -15 96.2932 5.56732   1
   8  12 -14 92.3789  5.6865   1
   8  12 -13 23.1016  4.3317   1
   8  12 -12 54.6145 5.41585   1
   8  12 -11  21.083 3.36357   1
   8  12 -10 164.496 8.40491   1
   8  12  -9 217.018 7.46421   1
   8  12  -8 93.8454 3.96618   1
   8  12  -7 1.79065 2.17119   1
   8  12  -6  77.405 3.10646   1
   8  12  -5 74.5022 3.30463   1
   8  12  -4 161.956 5.63033   1
   8  12  -3 103.994 6.35824   1
   8  12  -2 17.5552 2.04795   1
   8  12  -1 112.135 4.64086   1
   8  12   0 292.457 8.40356   1
   8  12   1 104.849 4.93576   1
   8  12   2 17.1708 1.90145   1
   8  12   3  107.21 5.36836   1
   8  12   4 155.566 5.20418   1
   8  12   5 73.4963 3.46327   1
   8  12   6 75.4076 3.72354   1
   8  12   7 1.90655  2.1191   1
   8  12   8 85.6525 3.65462   1
   8  12   9 211.342 6.97963   1
   8  12  10 152.702 7.15126   1
   8  12  11 22.7225  3.5282   1
   8  12  12 42.9061 5.36242   1
   8  12  13 30.2648 3.91379   1
   8  12  14   83.28 4.94848   1
   8  12  15 110.073 8.32543   1
   8  13 -14 35.9682 4.82305   1
   8  13 -13 132.643 19.4577   1
   8  13 -12   15.05 3.39438   1
   8  13 -11 70.9446 5.64262   1
   8  13 -10 120.461 5.52926   1
   8  13  -9 238.739 8.86305   1
   8  13  -8 96.4832 9.84909   1
   8  13  -7 153.196  5.9283   1
   8  13  -6 96.3817 4.37941   1
   8  13  -5 122.851 5.31015   1
   8  13  -4 42.5228 2.52256   1
   8  13  -3 83.7872 3.20918   1
   8  13  -2 160.952 6.31969   1
   8  13  -1 80.6575 3.84716   1
   8  13   0 124.479 4.05213   1
   8  13   1 87.6316 3.51931   1
   8  13   2 153.603 4.70603   1
   8  13   3 79.1803 3.54337   1
   8  13   4 40.8796 2.27106   1
   8  13   5 115.558 4.19694   1
   8  13   6 92.0341 4.26286   1
   8  13   7 165.063 7.95487   1
   8  13   8 91.3256 6.06903   1
   8  13   9 220.828 8.47952   1
   8  13  10 107.976 5.46225   1
   8  13  11 64.2528 6.00676   1
   8  13  12 31.0783 4.30662   1
   8  13  13 131.735 14.3275   1
   8  13  14 33.0906 6.49054   1
   8  14 -13 18.5606 3.71666   1
   8  14 -12 217.448 9.32015   1
   8  14 -11  49.078  5.1621   1
   8  14 -10 33.4593 4.28999   1
   8  14  -9 46.6007 4.62754   1
   8  14  -8 172.641 7.39593   1
   8  14  -7 81.7078 5.17099   1
   8  14  -6 145.826 6.28084   1
   8  14  -5 25.3368 2.92165   1
   8  14  -4  47.298  3.4146   1
   8  14  -3  116.63 4.32568   1
   8  14  -2 222.478 9.38175   1
   8  14  -1 160.983 5.40085   1
   8  14   0 67.4851 3.03114   1
   8  14   1 165.898 5.09825   1
   8  14   2 206.233 6.36436   1
   8  14   3 105.168 6.22248   1
   8  14   4 41.9006 4.59206   1
   8  14   5 22.2997 2.88134   1
   8  14   6 154.579  6.7984   1
   8  14   7 71.2628 4.78137   1
   8  14   8 150.076 14.1711   1
   8  14   9 55.0564 7.76201   1
   8  14  10  31.807 5.01975   1
   8  14  11 45.1251  4.1396   1
   8  14  12 225.633 10.7741   1
   8  14  13 15.4489 4.43325   1
   8  15 -11 89.6593 6.71823   1
   8  15 -10   21.68 4.99598   1
   8  15  -9 11.5894 12.7103   1
   8  15  -8 38.1787  9.1961   1
   8  15  -7 222.709 13.0712   1
   8  15  -6 82.6236 5.20633   1
   8  15  -5 12.8408 2.84121   1
   8  15  -4 42.1162  3.4649   1
   8  15  -3  192.68 6.98875   1
   8  15  -2 109.759 7.06288   1
   8  15  -1 79.4441 4.43383   1
   8  15   0 26.9663 2.62575   1
   8  15   1 85.9044 3.69803   1
   8  15   2 99.9253 4.40284   1
   8  15   3 178.548 8.22377   1
   8  15   4 33.6774 6.48433   1
   8  15   5 12.4372 3.64447   1
   8  15   6 88.5502 4.53047   1
   8  15   7  209.32 7.69798   1
   8  15   8 34.4072 3.14765   1
   8  15   9 15.1792  3.1166   1
   8  15  10 28.2801 3.62341   1
   8  15  11 94.2145 11.4663   1
   8  16  -9-1.95689 7.31809   1
   8  16  -8 163.548 19.3517   1
   8  16  -7 92.1586 10.2322   1
   8  16  -6 68.4195 5.00195   1
   8  16  -5 89.6338 4.86245   1
   8  16  -4 50.7525  4.1283   1
   8  16  -3 11.3933 3.13418   1
   8  16  -2  203.21 10.1316   1
   8  16  -1 9.50523 3.79773   1
   8  16   0  29.612 2.55385   1
   8  16   1 10.1648 2.83223   1
   8  16   2 198.708 7.89628   1
   8  16   3 10.1813 3.86026   1
   8  16   4 58.4519 5.64075   1
   8  16   5   97.80 5.43319   1
   8  16   6 65.5289 6.74154   1
   8  16   7 99.1438 10.7533   1
   8  16   8 160.087 26.5533   1
   8  16   9-0.92847 7.03694   1
   8  17  -7 76.8923 8.51217   1
   8  17  -6 11.4107 4.83287   1
   8  17  -5 49.8699 5.35705   1
   8  17  -4 46.9461 5.82521   1
   8  17  -3 66.7609 4.65168   1
   8  17  -2 1.43897 3.71998   1
   8  17  -1 184.431 8.68823   1
   8  17   0 26.3412 3.07737   1
   8  17   1 181.228 7.54435   1
   8  17   2 4.69967  3.7372   1
   8  17   3 61.4529  4.7452   1
   8  17   4 43.6966 4.00923   1
   8  17   5 54.4855  6.8441   1
   8  17   6 6.90978 3.82794   1
   8  17   7 66.9938 6.39808   1
   8  18  -3 23.0235 4.90527   1
   8  18  -2 -1.3973 6.03713   1
   8  18  -1 65.1454 5.20496   1
   8  18   0 126.242 8.11625   1
   8  18   1 58.0055 4.45158   1
   8  18   2 1.02679 3.50203   1
   8  18   3 16.2775 3.76875   1
   9   0   1 207.847 7.14419   1
   9   0   2 43.3291 2.88082   1
   9   0   3 828.654 22.0268   1
   9   0   4 24.9126 1.82467   1
   9   0   5 168.316 5.45209   1
   9   0   6-1.93112  5.2188   1
   9   0   7 317.139 10.8617   1
   9   0   8 84.1626 3.15123   1
   9   0   9 2.85227 1.80818   1
   9   0  10 10.4906 1.88393   1
   9   0  11 64.1345 3.97872   1
   9   0  12 27.0798 2.36253   1
   9   0  13 171.197 7.15684   1
   9   0  14 9.81994 2.29083   1
   9   0  15 105.566 4.22358   1
   9   0  16 26.5376 2.92709   1
   9   1 -16 167.856 5.74128   1
   9   1 -15 14.3091 2.67133   1
   9   1 -14 10.6075 2.42857   1
   9   1 -13 43.3137 2.85463   1
   9   1 -12 124.744 4.40814   1
   9   1 -11 16.9587 1.90215   1
   9   1 -10 24.2055 2.95989   1
   9   1  -9  26.059 1.97295   1
   9   1  -8 29.0449 2.03741   1
   9   1  -7 60.3247 3.60664   1
   9   1  -6 247.374 7.24974   1
   9   1  -5 61.1195 2.71544   1
   9   1  -4 1.07036 1.88979   1
   9   1  -3 33.9166 1.93923   1
   9   1  -2  491.39 13.8034   1
   9   1  -1 116.398 3.70216   1
   9   1   0 0.33787 1.46476   1
   9   1   1 113.912 3.66338   1
   9   1   2 490.335 14.0263   1
   9   1   3 32.2394 2.25739   1
   9   1   4 5.02106 2.47057   1
   9   1   5 69.5187 3.23855   1
   9   1   6 256.189  7.5874   1
   9   1   7 50.8575 2.40429   1
   9   1   8 31.7905 2.16136   1
   9   1   9 28.1734 2.00987   1
   9   1  10 17.6104 2.02852   1
   9   1  11 18.3352 2.12886   1
   9   1  12 132.077 4.56803   1
   9   1  13 45.8739 2.78562   1
   9   1  14 7.68294 2.16252   1
   9   1  15 17.3191 2.51754   1
   9   1  16 179.528 7.79611   1
   9   2 -16 24.9959 2.98574   1
   9   2 -15 13.8605 2.70845   1
   9   2 -14  83.389   4.351   1
   9   2 -13 38.1099 2.47354   1
   9   2 -12 22.7857 2.39592   1
   9   2 -11 45.3172  2.4508   1
   9   2 -10 128.572 4.38892   1
   9   2  -9 18.7121  1.7824   1
   9   2  -8 170.202 6.45142   1
   9   2  -7 134.661 5.55506   1
   9   2  -6 12.5413 2.02286   1
   9   2  -5 51.6891 2.37555   1
   9   2  -4 369.547 10.7782   1
   9   2  -3 97.7387  3.2938   1
   9   2  -2 23.7734 3.04558   1
   9   2  -1 130.006 4.10058   1
   9   2   0 467.849 12.2453   1
   9   2   1  125.09 4.04861   1
   9   2   2 22.7012 1.68535   1
   9   2   3 96.8699 4.10828   1
   9   2   4 364.849 10.2096   1
   9   2   5 59.6456 2.52523   1
   9   2   6 17.5766   2.015   1
   9   2   7 126.913 4.19038   1
   9   2   8 179.089 6.95774   1
   9   2   9 23.6095 2.85239   1
   9   2  10 125.339 5.32749   1
   9   2  11 46.4866  2.8147   1
   9   2  12 16.2507 2.38446   1
   9   2  13 40.0287 2.88993   1
   9   2  14 103.121 4.23663   1
   9   2  15 11.7578 2.30335   1
   9   2  16 26.0904 3.62528   1
   9   3 -16 14.4465 2.42839   1
   9   3 -15 71.7926 4.33497   1
   9   3 -14 10.5097 2.22024   1
   9   3 -13 107.966 4.80789   1
   9   3 -12 12.0976 2.25526   1
   9   3 -11 21.8315 2.24045   1
   9   3 -10  3.8051 1.90642   1
   9   3  -9 150.463 5.30252   1
   9   3  -8 2.80368 1.80815   1
   9   3  -7  128.14 4.58957   1
   9   3  -6 17.0461 2.63942   1
   9   3  -5 244.303 7.10022   1
   9   3  -4 47.2786 4.16531   1
   9   3  -3 156.639 4.67918   1
   9   3  -2  54.449 2.35446   1
   9   3  -1 253.126 7.65683   1
   9   3   0 62.3968 2.50595   1
   9   3   1 252.921 7.01251   1
   9   3   2 57.3995 3.25365   1
   9   3   3 150.332 4.71691   1
   9   3   4 43.6915 2.14489   1
   9   3   5 253.297 7.89304   1
   9   3   6 17.9925 1.87789   1
   9   3   7 126.259 4.47781   1
   9   3   8  3.5886 1.77968   1
   9   3   9 150.656  4.9011   1
   9   3  10 1.97333 3.58826   1
   9   3  11 25.6283 2.63352   1
   9   3  12 14.1233 2.39903   1
   9   3  13 104.987 6.32041   1
   9   3  14 7.42665 2.28707   1
   9   3  15 74.0026 3.70942   1
   9   3  16 16.1848 3.03309   1
   9   4 -16 4.79725 2.65532   1
   9   4 -15  38.374 3.92226   1
   9   4 -14 120.771  4.5267   1
   9   4 -13 39.4681  3.3192   1
   9   4 -12 11.6035 2.23368   1
   9   4 -11 105.514 4.79608   1
   9   4 -10 44.4162 2.64087   1
   9   4  -9 16.2526 2.17068   1
   9   4  -8 142.322  7.4889   1
   9   4  -7 139.276 4.54477   1
   9   4  -6 13.6106 1.89744   1
   9   4  -5 27.8666 2.53157   1
   9   4  -4 332.204 10.2513   1
   9   4  -3 52.7596 2.35524   1
   9   4  -2 3.33931 1.63152   1
   9   4  -1 92.1001 4.01225   1
   9   4   0 269.994 7.49751   1
   9   4   1 97.5352 4.60036   1
   9   4   2  3.3539 1.45575   1
   9   4   3 56.7131 2.95231   1
   9   4   4 346.176 9.58937   1
   9   4   5 25.9125 2.24095   1
   9   4   6 13.2997 1.90743   1
   9   4   7 137.034  4.5691   1
   9   4   8 143.096 5.16915   1
   9   4   9 14.3472 2.03383   1
   9   4  10 44.6779 3.25376   1
   9   4  11 101.341 4.97813   1
   9   4  12 14.6159 2.26456   1
   9   4  13 40.8883 2.95328   1
   9   4  14 118.028 4.77802   1
   9   4  15  31.867 2.71994   1
   9   4  16  2.5822 2.75109   1
   9   5 -15  7.4729 2.64461   1
   9   5 -14 0.50028 2.27362   1
   9   5 -13 18.4466 2.20979   1
   9   5 -12 152.745 5.39618   1
   9   5 -11 2.49912 1.77867   1
   9   5 -10 68.2417 4.01657   1
   9   5  -9 1.40279 1.86292   1
   9   5  -8 58.0809 2.77924   1
   9   5  -7  77.326 3.18084   1
   9   5  -6  337.34 9.51414   1
   9   5  -5 74.3095 3.49161   1
   9   5  -4  18.158 1.70497   1
   9   5  -3 46.0934 2.99768   1
   9   5  -2 312.868 8.78688   1
   9   5  -1  47.052 2.02902   1
   9   5   0 25.5649  1.8247   1
   9   5   1 50.2777 2.85854   1
   9   5   2 306.696  8.8687   1
   9   5   3  43.725 2.05458   1
   9   5   4 16.3848 1.74083   1
   9   5   5 68.8563 2.72558   1
   9   5   6 304.102 10.4258   1
   9   5   7 79.6025 3.69874   1
   9   5   8 70.2545 3.01182   1
   9   5   9 4.77304 2.63521   1
   9   5  10   66.28 5.01078   1
   9   5  11 0.83024 2.19101   1
   9   5  12  146.50 5.35446   1
   9   5  13 20.5401 3.00885   1
   9   5  14-1.09805 5.66799   1
   9   5  15 6.40344 3.30956   1
   9   6 -15  101.52 4.46447   1
   9   6 -14 1.02736 2.36788   1
   9   6 -13 112.851 6.51121   1
   9   6 -12 9.17261 2.23747   1
   9   6 -11 144.396  5.3848   1
   9   6 -10 82.1379 8.64324   1
   9   6  -9 4.19062  1.8638   1
   9   6  -8 25.9373 2.39866   1
   9   6  -7 193.593 7.94728   1
   9   6  -6   68.68 2.91487   1
   9   6  -5 176.597 6.74297   1
   9   6  -4 4.77286 1.56779   1
   9   6  -3 384.379 10.4566   1
   9   6  -2 27.7557 2.11365   1
   9   6  -1 142.048 4.22545   1
   9   6   0 7.58917 1.56594   1
   9   6   1 142.362 4.14697   1
   9   6   2 24.1461  1.8828   1
   9   6   3 378.732 9.97074   1
   9   6   4 5.17777 1.48558   1
   9   6   5 178.734 6.16863   1
   9   6   6 63.3738 3.15941   1
   9   6   7 201.233  7.8566   1
   9   6   8 25.4898 2.09251   1
   9   6   9 4.90583 1.89597   1
   9   6  10 80.8581 3.90089   1
   9   6  11 129.901 5.12008   1
   9   6  12 10.2993 2.83905   1
   9   6  13 120.655 7.72479   1
   9   6  14 1.66388 2.53725   1
   9   6  15 91.9269 4.71605   1
   9   7 -14 16.1262 2.84486   1
   9   7 -13 76.2247 3.47016   1
   9   7 -12 90.6336  4.7959   1
   9   7 -11 31.7129 2.68776   1
   9   7 -10 8.51143 2.27101   1
   9   7  -9 98.3172 4.15612   1
   9   7  -8 12.1334 1.92579   1
   9   7  -7  45.203 3.81784   1
   9   7  -6 268.346 9.90513   1
   9   7  -5 89.0909  3.2326   1
   9   7  -4 33.7125 2.24374   1
   9   7  -3 43.9113 2.27991   1
   9   7  -2 392.811  10.584   1
   9   7  -1 79.8544 3.12656   1
   9   7   0 5.07792 1.57192   1
   9   7   1 76.0236  2.8406   1
   9   7   2 384.675 10.6787   1
   9   7   3 37.4926 2.30202   1
   9   7   4 35.3996 2.13978   1
   9   7   5 95.3071 3.45015   1
   9   7   6 259.836 7.52608   1
   9   7   7 42.3595 3.40342   1
   9   7   8 8.18941 2.61466   1
   9   7   9 103.679 4.00304   1
   9   7  10 8.66238  2.5275   1
   9   7  11 29.0293  2.6881   1
   9   7  12 82.9643 4.23277   1
   9   7  13 68.7107 6.15604   1
   9   7  14 16.2366 3.18541   1
   9   8 -14 116.871 6.04028   1
   9   8 -13 23.3838 3.15196   1
   9   8 -12 5.56605 2.77923   1
   9   8 -11 3.63763 2.68987   1
   9   8 -10 114.561 6.76555   1
   9   8  -9 24.0364 2.60027   1
   9   8  -8 231.591 9.82373   1
   9   8  -7 65.2244 3.05917   1
   9   8  -6 72.7589 3.03846   1
   9   8  -5 13.9383 1.65909   1
   9   8  -4 205.012  6.1132   1
   9   8  -3 76.8694  3.3915   1
   9   8  -2 85.0768 3.29983   1
   9   8  -1 232.008 6.71431   1
   9   8   0 257.726 7.98762   1
   9   8   1 216.964 6.86972   1
   9   8   2 80.3272  3.0578   1
   9   8   3  76.631 3.12593   1
   9   8   4 187.094 5.65459   1
   9   8   5 8.08441 2.11023   1
   9   8   6 71.9155  3.0349   1
   9   8   7 56.6971 2.70885   1
   9   8   8 233.057 11.2724   1
   9   8   9 24.9325 2.55759   1
   9   8  10 114.617 4.86843   1
   9   8  11 8.06318 3.19995   1
   9   8  12 10.0908 2.71563   1
   9   8  13 22.5909 3.32853   1
   9   8  14 121.534 8.79721   1
   9   9 -13 77.5828 7.12812   1
   9   9 -12 3.94996 5.10513   1
   9   9 -11 13.7411 3.51784   1
   9   9 -10 38.3332 7.91314   1
   9   9  -9 134.141 5.65604   1
   9   9  -8 25.4391 2.71552   1
   9   9  -7 38.3414  3.1251   1
   9   9  -6 38.3411 2.70304   1
   9   9  -5 189.382 7.32317   1
   9   9  -4-0.00761 4.73733   1
   9   9  -3 128.391 5.39969   1
   9   9  -2 63.4534 2.81882   1
   9   9  -1 259.776 8.75519   1
   9   9   0  13.487  1.7848   1
   9   9   1 239.901 10.2681   1
   9   9   2 70.4643 3.48419   1
   9   9   3 126.633 4.58723   1
   9   9   4-1.20548  5.6915   1
   9   9   5 179.508 8.36961   1
   9   9   6 33.7617 2.72428   1
   9   9   7 42.3851 4.11223   1
   9   9   8 24.4193 2.99907   1
   9   9   9 151.946 7.03399   1
   9   9  10 31.3904 3.03857   1
   9   9  11 11.6542 3.78724   1
   9   9  12 -1.2965  5.4192   1
   9   9  13 86.0418 4.73575   1
   9  10 -12 7.65951  2.8423   1
   9  10 -11  103.99 6.41304   1
   9  10 -10 24.2348 3.46873   1
   9  10  -9 29.4242  3.8048   1
   9  10  -8 86.1249 4.61546   1
   9  10  -7 53.5031 4.46948   1
   9  10  -6 9.38431 3.29887   1
   9  10  -5 3.14924 2.42128   1
   9  10  -4 300.034 11.3354   1
   9  10  -3 33.3642 2.73012   1
   9  10  -2 32.9312 2.74115   1
   9  10  -1 18.7132 2.10861   1
   9  10   0 211.209 6.58292   1
   9  10   1 22.0979 2.86761   1
   9  10   2 34.1761 3.42704   1
   9  10   3 35.0572 3.29902   1
   9  10   4 314.615 9.80591   1
   9  10   5 2.88855 2.37059   1
   9  10   6 7.77832 3.06889   1
   9  10   7 50.2053 4.11752   1
   9  10   8 76.3856 5.36906   1
   9  10   9 29.4349 3.54604   1
   9  10  10 25.6969 4.50703   1
   9  10  11 99.2716 6.70333   1
   9  10  12 10.0532 3.52431   1
   9  11 -11 1.61358 3.81682   1
   9  11 -10 77.1762 8.50975   1
   9  11  -9 2.91189  4.0789   1
   9  11  -8 130.066  8.3071   1
   9  11  -7 40.9506 4.03447   1
   9  11  -6 124.141 6.04244   1
   9  11  -5 39.0188 3.35679   1
   9  11  -4 34.6436  3.4538   1
   9  11  -3  57.678 4.22708   1
   9  11  -2 190.465 7.36817   1
   9  11  -1  63.448 5.23104   1
   9  11   0 6.27381 2.23738   1
   9  11   1 68.6147 4.21005   1
   9  11   2 192.779 13.6404   1
   9  11   3 55.7748 7.30488   1
   9  11   4 28.3498 3.28844   1
   9  11   5 43.5534 3.66844   1
   9  11   6 110.242 5.75048   1
   9  11   7 41.1377 3.52355   1
   9  11   8 120.251 5.33959   1
   9  11   9 1.17076 3.00106   1
   9  11  10 70.2179 4.30234   1
   9  11  11   4.427  3.1984   1
   9  12  -9  1.1426 4.46755   1
   9  12  -8 7.39678 5.48873   1
   9  12  -7 112.843 7.69054   1
   9  12  -6 108.591 7.42656   1
   9  12  -5 128.021  5.4665   1
   9  12  -4  8.3593 2.64829   1
   9  12  -3 269.917 10.7289   1
   9  12  -2-1.17733 5.77475   1
   9  12  -1 101.077 4.36172   1
   9  12   0 16.9332 2.70734   1
   9  12   1 104.699 4.82525   1
   9  12   2 2.14218 3.11964   1
   9  12   3 247.906 13.0944   1
   9  12   4 7.98564 3.31024   1
   9  12   5 115.889 5.94035   1
   9  12   6 102.715 5.58985   1
   9  12   7 101.857 5.60613   1
   9  12   8 11.4651    2.86   1
   9  12   9 1.57597 3.11967   1
   9  13  -8 10.4097 3.49297   1
   9  13  -7 7.57234 3.25719   1
   9  13  -6 135.607 9.50812   1
   9  13  -5 141.661 6.97222   1
   9  13  -4 50.2946 4.63509   1
   9  13  -3-0.05232 6.31241   1
   9  13  -2 160.719 5.90941   1
   9  13  -1 60.4029  3.8485   1
   9  13   0 0.54076 3.26268   1
   9  13   1 55.8875 3.89547   1
   9  13   2 168.206 7.25423   1
   9  13   3-2.34406 7.02095   1
   9  13   4 61.2607 3.76165   1
   9  13   5 130.099 5.42981   1
   9  13   6 125.639 9.22682   1
   9  13   7 4.12256 4.75803   1
   9  13   8 15.0527 4.41698   1
   9  14  -5 69.3467  7.0152   1
   9  14  -4 143.119 6.57571   1
   9  14  -3  36.521 3.78021   1
   9  14  -2 16.0716 4.08671   1
   9  14  -1 66.2176 5.59373   1
   9  14   0 211.103 12.9526   1
   9  14   1 64.9415 5.13157   1
   9  14   2 17.4064 3.91821   1
   9  14   3 31.3117 4.15705   1
   9  14   4 140.497 10.1696   1
   9  14   5 68.5041 5.84269   1
  10   0   0 65.8218 4.23861   1
  10   0   1 51.1604  3.4181   1
  10   0   2 76.2588 3.57576   1
  10   0   3 6.21637 2.42516   1
  10   0   4 105.257 4.12781   1
  10   0   5 72.2283 4.23946   1
  10   0   6 144.795 6.73463   1
  10   0   7 37.8431 4.08245   1
  10   0   8 105.163 7.94443   1
  10   0   9 3.25734 4.42432   1
  10   0  10 342.845 16.3669   1
  10   0  11 7.41244 3.38877   1
  10   1 -10 17.6027 2.78336   1
  10   1  -9 207.434 7.07489   1
  10   1  -8 39.9951  3.0267   1
  10   1  -7 0.87109  2.0242   1
  10   1  -6 14.0001 2.65016   1
  10   1  -5 206.636 8.99291   1
  10   1  -4 42.2138 3.00944   1
  10   1  -3 34.6149 2.46088   1
  10   1  -2 19.7912 2.72463   1
  10   1  -1 73.3169 3.75728   1
  10   1   0 15.2083 2.06179   1
  10   1   1 83.0432 3.82396   1
  10   1   2 15.3128 2.23193   1
  10   1   3 41.2755 3.03614   1
  10   1   4 47.2294 2.99177   1
  10   1   5 201.944 6.75343   1
  10   1   6 15.8387 2.52259   1
  10   1   7 0.23289 2.17316   1
  10   1   8 35.0196 2.97993   1
  10   1   9 216.517  7.3891   1
  10   1  10 19.7115 2.50226   1
  10   2 -10 101.937  6.1455   1
  10   2  -9 11.9917 2.60505   1
  10   2  -8 28.0997  2.6598   1
  10   2  -7 149.042 5.76154   1
  10   2  -6 128.348 5.31003   1
  10   2  -5  15.294 2.50533   1
  10   2  -4 70.8006 3.58486   1
  10   2  -3 85.5225 3.72217   1
  10   2  -2 89.4952 3.88942   1
  10   2  -1 12.6702 3.13011   1
  10   2   0 4.33916 2.28927   1
  10   2   1 10.2679  1.9618   1
  10   2   2 99.2036 4.11351   1
  10   2   3 88.0357 3.73902   1
  10   2   4 71.1144 4.55789   1
  10   2   5 17.4888 2.29693   1
  10   2   6 140.653 5.20635   1
  10   2   7 156.568  6.5512   1
  10   2   8 23.8009 3.03208   1
  10   2   9 9.77823 2.42547   1
  10   2  10  120.02 4.74299   1
  10   3 -10 33.2712 2.78533   1
  10   3  -9 3.24265 2.70786   1
  10   3  -8 46.1725 3.23983   1
  10   3  -7 63.6359 4.51846   1
  10   3  -6 149.571 6.09641   1
  10   3  -5 21.1769 2.73679   1
  10   3  -4 72.5524 3.79066   1
  10   3  -3 85.1183 3.86242   1
  10   3  -2 19.3934 2.59191   1
  10   3  -1  55.045 3.97098   1
  10   3   0 2.63871 2.37546   1
  10   3   1 54.2968 3.35066   1
  10   3   2 24.1467  2.8317   1
  10   3   3  69.595 5.77869   1
  10   3   4 73.4509 4.42933   1
  10   3   5  17.566  3.3614   1
  10   3   6 138.929 5.11233   1
  10   3   7 68.1001 4.87481   1
  10   3   8 57.8964 3.56063   1
  10   3   9 -1.0938 6.22909   1
  10   3  10 34.4595 2.68028   1
  10   4 -10 47.8282 4.63646   1
  10   4  -9 34.7158 3.76428   1
  10   4  -8 23.7892 2.99383   1
  10   4  -7 124.634 7.67875   1
  10   4  -6 88.0563 3.89371   1
  10   4  -5 15.6873 2.35824   1
  10   4  -4 53.9652 3.31361   1
  10   4  -3 129.688 4.91113   1
  10   4  -2 70.7076 3.53307   1
  10   4  -1 13.8682 4.25406   1
  10   4   0 67.0312 5.14828   1
  10   4   1 19.9843 3.54903   1
  10   4   2 79.3633 5.04616   1
  10   4   3 125.921 6.26908   1
  10   4   4 51.2189 3.75247   1
  10   4   5 12.1315 3.05608   1
  10   4   6  85.915 5.13848   1
  10   4   7 125.353 5.26213   1
  10   4   8 23.1529 2.93785   1
  10   4   9 35.3222 5.33984   1
  10   4  10 51.8979 12.2642   1
  10   5  -9 169.214 6.67976   1
  10   5  -8 56.4483  3.5562   1
  10   5  -7 5.23292 2.38324   1
  10   5  -6 5.94233 2.42233   1
  10   5  -5 182.861 6.31274   1
  10   5  -4 122.398 8.42874   1
  10   5  -3 118.926 5.39905   1
  10   5  -2 18.0525 2.83785   1
  10   5  -1 72.7021 3.69702   1
  10   5   0 31.7449 3.29243   1
  10   5   1 75.1634 4.08101   1
  10   5   2 19.9009 2.81399   1
  10   5   3 117.545  5.1219   1
  10   5   4 120.149 9.72472   1
  10   5   5 199.324 7.98713   1
  10   5   6  1.6786 2.49144   1
  10   5   7 2.27283 2.84427   1
  10   5   8 51.0945 3.29156   1
  10   5   9 175.049 8.39061   1
  10   6  -8 138.848 5.31172   1
  10   6  -7 30.6637 2.94755   1
  10   6  -6 148.472 6.53089   1
  10   6  -5 87.1566 3.91787   1
  10   6  -4 116.745  6.5435   1
  10   6  -3 16.6663  2.6498   1
  10   6  -2 7.15004 2.68141   1
  10   6  -1 58.9328 3.11367   1
  10   6   0  173.15 10.6004   1
  10   6   1  64.777 5.05348   1
  10   6   2 11.5901 2.48822   1
  10   6   3 8.14581 3.32149   1
  10   6   4 123.923 5.62673   1
  10   6   5 99.0264 8.18292   1
  10   6   6 135.271 5.61063   1
  10   6   7 30.0525 3.28888   1
  10   6   8 124.452 5.31889   1
  10   7  -7 20.0232 2.68502   1
  10   7  -6 41.5517 4.04993   1
  10   7  -5 203.386 8.39041   1
  10   7  -4 50.0497 3.44249   1
  10   7  -3 15.0537 2.73779   1
  10   7  -2 84.7649 5.37655   1
  10   7  -1   25.72 3.51321   1
  10   7   0 30.1894 3.81235   1
  10   7   1 25.7384 5.79364   1
  10   7   2 81.6302 4.62548   1
  10   7   3   24.74 6.62143   1
  10   7   4 54.0624 4.06269   1
  10   7   5 192.998  17.135   1
  10   7   6 33.8802 3.98504   1
  10   7   7 15.3665 6.64902   1
  10   8  -6 113.011 5.18482   1
  10   8  -5 26.5941 3.99408   1
  10   8  -4 51.0586 4.75167   1
  10   8  -3 133.536 9.55582   1
  10   8  -2 91.3535 4.19545   1
  10   8  -1 39.9553 4.19201   1
  10   8   0 4.99519 3.58999   1
  10   8   1 40.2622 4.48279   1
  10   8   2 91.0793 5.10294   1
  10   8   3 125.471  6.5417   1
  10   8   4 51.2358 5.82277   1
  10   8   5 25.5844 3.83962   1
  10   8   6 103.587 5.84573   1
  10   9  -4 31.3231 7.69754   1
  10   9  -3  55.981 6.60364   1
  10   9  -2 56.8085 3.98132   1
  10   9  -1 32.1085 4.11846   1
  10   9   0 4.87092 3.93689   1
  10   9   1 26.6937 6.12874   1
  10   9   2 59.4571 5.96614   1
  10   9   3 65.5968 4.80718   1
  10   9   4 29.2177 3.72233   1
   0   0   0    0.00    0.00   1
;
loop_
_symmetry_equiv_pos_as_xyz
'x, y, z'
'-x+1/2, -y, z+1/2'
'x+1/2, -y+1/2, -z'
'-x, y+1/2, -z+1/2'
loop_
_atom_site_label
_atom_site_type_symbol
_atom_site_fract_x
_atom_site_fract_y
_atom_site_fract_z
_atom_site_U_iso_or_equiv
_atom_site_adp_type
_atom_site_occupancy
_atom_site_calc_flag
Ru1 Ru 0.60859(2) 0.83491(2) 0.61008(2) 0.01146(3) Uani 1 d
S1 S 0.46410(6) 0.81937(2) 0.72310(2) 0.01507(6) Uani 1 d
S2 S 1.01829(7) 0.50123(3) 0.77396(2) 0.02358(8) Uani 1 d
Cl1 Cl 0.59406(6) 0.69499(2) 0.59494(2) 0.01749(6) Uani 1 d
Cl2 Cl 0.94574(5) 0.81690(2) 0.65578(2) 0.01818(7) Uani 1 d
O1 O 0.6909(2) 0.59684(8) 0.82628(7) 0.0238(2) Uani 1 d
N1 N 0.7147(2) 0.69905(8) 0.74994(7) 0.0157(2) Uani 1 d
N2 N 0.4430(2) 0.71654(8) 0.82387(7) 0.0167(2) Uani 1 d
C1 C 0.5439(2) 0.73997(9) 0.76842(8) 0.0143(2) Uani 1 d
C2 C 0.7783(2) 0.62884(9) 0.77774(8) 0.0168(3) Uani 1 d
C3 C 0.9596(2) 0.59422(9) 0.74685(8) 0.0172(3) Uani 1 d
C4 C 1.1009(3) 0.62357(9) 0.70018(8) 0.0205(3) Uani 1 d
H4 H 1.0942 0.6739 0.6796 0.051(9) Uiso 1 calc
C5 C 1.2560(3) 0.56819(10) 0.68761(9) 0.0227(3) Uani 1 d
H5 H 1.3665 0.5775 0.6575 0.033(7) Uiso 1 calc
C6 C 1.2296(3) 0.49955(10) 0.72363(9) 0.0223(3) Uani 1 d
H6 H 1.3189 0.4562 0.7208 0.023(6) Uiso 1 calc
C7 C 0.2589(3) 0.75352(9) 0.84985(8) 0.0179(3) Uani 1 d
H7 H 0.1625 0.7604 0.8106 0.015(5) Uiso 1 calc
C8 C 0.1647(3) 0.69726(11) 0.90236(10) 0.0267(4) Uani 1 d
H8A H 0.2598 0.6886 0.9403 0.020(6) Uiso 1 calc
H8B H 0.1347 0.6473 0.8799 0.034(7) Uiso 1 calc
H8C H 0.0395 0.7199 0.9204 0.071(12) Uiso 1 calc
C10 C 0.3472(2) 0.86280(10) 0.54621(8) 0.0183(3) Uani 1 d
H10 H 0.2221 0.8361 0.5416 0.026(6) Uiso 1 calc
C11 C 0.5122(3) 0.84431(11) 0.50233(8) 0.0203(3) Uani 1 d
H11 H 0.4959 0.8055 0.4677 0.028(7) Uiso 1 calc
C12 C 0.6997(3) 0.88254(10) 0.50931(9) 0.0213(3) Uani 1 d
H12 H 0.8091 0.8701 0.4795 0.026(6) Uiso 1 calc
C13 C 0.7227(3) 0.94053(10) 0.56210(9) 0.0205(3) Uani 1 d
H13 H 0.8501 0.9651 0.5685 0.027(6) Uiso 1 calc
C14 C 0.5589(2) 0.96157(9) 0.60467(9) 0.0182(3) Uani 1 d
H14 H 0.5733 1.0019 0.638 0.033(7) Uiso 1 calc
C15 C 0.3715(2) 0.92165(9) 0.59707(8) 0.0176(3) Uani 1 d
H15 H 0.2615 0.9345 0.6264 0.030(7) Uiso 1 calc
C111 C 0.3002(2) 0.83300(9) 0.88191(7) 0.0176(2) Uani 1 d
C112 C 0.4838(3) 0.85042(10) 0.91350(9) 0.0233(3) Uani 1 d
H112 H 0.5874 0.812 0.9151 0.030(7) Uiso 1 calc
C113 C 0.5164(3) 0.92381(11) 0.94276(10) 0.0274(4) Uani 1 d
H113 H 0.6425 0.9354 0.9638 0.040(8) Uiso 1 calc
C114 C 0.3652(3) 0.97988(11) 0.94114(10) 0.0283(4) Uani 1 d
H114 H 0.3873 1.0298 0.9612 0.051(9) Uiso 1 calc
C115 C 0.1815(4) 0.96292(12) 0.91011(12) 0.0324(4) Uani 1 d
H115 H 0.0776 1.0012 0.909 0.049(9) Uiso 1 calc
C116 C 0.1494(3) 0.88947(11) 0.88040(11) 0.0267(4) Uani 1 d
H116 H 0.0236 0.8781 0.8591 0.037(8) Uiso 1 calc
H1 H 0.780(4) 0.7153(14) 0.7150(13) 0.023(6) Uiso 1 d
H2 H 0.485(4) 0.6750(15) 0.8447(13) 0.024(6) Uiso 1 d
loop_
_atom_site_aniso_label
_atom_site_aniso_U_11
_atom_site_aniso_U_22
_atom_site_aniso_U_33
_atom_site_aniso_U_23
_atom_site_aniso_U_13
_atom_site_aniso_U_12
Ru1 0.01078(4) 0.01175(4) 0.01186(4) 0.00105(4) 0.00120(3) 0.00049(4)
S1 0.01694(14) 0.01566(15) 0.01261(13) 0.00141(11) 0.00251(11) 0.00316(12)
S2 0.02721(19) 0.01678(16) 0.02676(19) 0.00664(15) 0.00298(16) 0.00548(15)
Cl1 0.02347(15) 0.01392(13) 0.01506(13) -0.00201(10) -0.00068(12) -0.00276(13)
Cl2 0.01161(12) 0.01490(14) 0.02804(17) 0.00609(12) -0.00221(11) -0.00174(11)
O1 0.0280(6) 0.0186(5) 0.0247(6) 0.0088(5) 0.0072(5) 0.0022(5)
N1 0.0185(5) 0.0143(5) 0.0143(5) 0.0028(4) 0.0023(4) 0.0019(4)
N2 0.0206(6) 0.0148(5) 0.0146(5) 0.0006(4) 0.0034(4) -0.0003(4)
C1 0.0179(6) 0.0127(5) 0.0124(5) -0.0010(4) -0.0002(5) -0.0011(5)
C2 0.0197(6) 0.0145(6) 0.0161(6) 0.0022(5) -0.0007(5) -0.0007(5)
C3 0.0206(7) 0.0130(6) 0.0182(6) 0.0027(5) -0.0013(5) 0.0022(5)
C4 0.0250(7) 0.0156(6) 0.0209(6) -0.0012(5) -0.0037(6) 0.0072(6)
C5 0.0240(7) 0.0204(7) 0.0238(7) 0.0019(6) 0.0015(6) 0.0017(6)
C6 0.0224(7) 0.0194(7) 0.0251(7) 0.0034(6) 0.0009(6) 0.0065(6)
C7 0.0191(6) 0.0184(7) 0.0163(6) -0.0012(5) 0.0036(5) -0.0023(5)
C8 0.0309(8) 0.0249(8) 0.0243(8) 0.0003(6) 0.0101(7) -0.0079(7)
C10 0.0160(6) 0.0238(7) 0.0152(6) 0.0029(5) -0.0021(5) 0.0026(5)
C11 0.0245(7) 0.0237(8) 0.0126(5) 0.0024(5) 0.0002(5) 0.0069(6)
C12 0.0210(7) 0.0253(8) 0.0177(7) 0.0082(6) 0.0065(5) 0.0060(6)
C13 0.0178(6) 0.0182(7) 0.0254(7) 0.0094(6) 0.0022(6) 0.0004(5)
C14 0.0203(6) 0.0125(5) 0.0219(7) 0.0030(5) 0.0001(5) 0.0029(5)
C15 0.0162(6) 0.0188(6) 0.0177(6) 0.0031(5) 0.0016(5) 0.0057(5)
C111 0.0206(6) 0.0172(6) 0.0149(6) 0.0002(5) 0.0027(5) 0.0003(5)
C112 0.0243(7) 0.0214(7) 0.0240(7) -0.0060(6) -0.0049(6) 0.0040(6)
C113 0.0310(9) 0.0239(8) 0.0272(8) -0.0079(7) -0.0038(7) 0.0002(7)
C114 0.0392(11) 0.0189(7) 0.0266(8) -0.0037(6) 0.0016(8) 0.0018(7)
C115 0.0347(10) 0.0237(8) 0.0387(10) -0.0040(7) -0.0008(8) 0.0099(8)
C116 0.0241(8) 0.0241(8) 0.0319(9) -0.0023(7) -0.0020(6) 0.0055(6)
loop_
_atom_type_symbol
_atom_type_description
_atom_type_scat_dispersion_real
_atom_type_scat_dispersion_imag
_atom_type_scat_source
Ru Ru -1.2594 0.8363 'International Tables Vol C Tables 4.2.6.8 and 6.1.1.4'
S S 0.1246 0.1234 'International Tables Vol C Tables 4.2.6.8 and 6.1.1.4'
Cl Cl 0.1484 0.1585 'International Tables Vol C Tables 4.2.6.8 and 6.1.1.4'
O O 0.0106 0.006 'International Tables Vol C Tables 4.2.6.8 and 6.1.1.4'
N N 0.0061 0.0033 'International Tables Vol C Tables 4.2.6.8 and 6.1.1.4'
C C 0.0033 0.0016 'International Tables Vol C Tables 4.2.6.8 and 6.1.1.4'
H H 0 0 'International Tables Vol C Tables 4.2.6.8 and 6.1.1.4'
loop_
_exptl_crystal_face_index_h
_exptl_crystal_face_index_k
_exptl_crystal_face_index_l
_exptl_crystal_face_perp_dist
0 1 -1 0.076
0 -1 1 0.076
0 -1 -1 0.124
0 1 1 0.124
-1 0 0 0.4
1 0 0 0.4
loop_
_geom_angle_atom_site_label_1
_geom_angle_atom_site_label_2
_geom_angle_atom_site_label_3
_geom_angle
C13 Ru1 C15 68.47(6)
C13 Ru1 C10 81.38(6)
C15 Ru1 C10 38.04(6)
C13 Ru1 C11 68.33(7)
C15 Ru1 C11 68.23(6)
C10 Ru1 C11 37.90(6)
C13 Ru1 C14 37.72(6)
C15 Ru1 C14 38.03(6)
C10 Ru1 C14 68.77(6)
C11 Ru1 C14 80.69(7)
C13 Ru1 C12 38.30(7)
C15 Ru1 C12 80.92(6)
C10 Ru1 C12 68.38(6)
C11 Ru1 C12 37.41(7)
C14 Ru1 C12 68.49(7)
C13 Ru1 S1 128.44(5)
C15 Ru1 S1 83.95(4)
C10 Ru1 S1 103.12(4)
C11 Ru1 S1 139.60(5)
C14 Ru1 S1 95.34(5)
C12 Ru1 S1 163.43(5)
C13 Ru1 Cl1 141.99(5)
C15 Ru1 Cl1 129.34(5)
C10 Ru1 Cl1 96.66(5)
C11 Ru1 Cl1 86.84(5)
C14 Ru1 Cl1 165.37(5)
C12 Ru1 Cl1 105.64(5)
S1 Ru1 Cl1 89.178(13)
C13 Ru1 Cl2 86.68(5)
C15 Ru1 Cl2 142.61(5)
C10 Ru1 Cl2 165.27(4)
C11 Ru1 Cl2 128.83(5)
C14 Ru1 Cl2 106.34(4)
C12 Ru1 Cl2 96.89(5)
S1 Ru1 Cl2 91.047(14)
Cl1 Ru1 Cl2 87.431(14)
C1 S1 Ru1 115.82(5)
C6 S2 C3 91.47(8)
C1 N1 C2 126.16(14)
C1 N1 H1 117.2(17)
C2 N1 H1 116.2(17)
C1 N2 C7 124.60(14)
C1 N2 H2 117.8(17)
C7 N2 H2 117.5(17)
N2 C1 N1 118.06(14)
N2 C1 S1 120.20(12)
N1 C1 S1 121.73(11)
O1 C2 N1 122.74(15)
O1 C2 C3 121.11(15)
N1 C2 C3 116.14(14)
C4 C3 C2 131.96(14)
C4 C3 S2 112.32(12)
C2 C3 S2 115.68(12)
C3 C4 C5 110.89(14)
C3 C4 H4 124.6
C5 C4 H4 124.6
C6 C5 C4 112.98(16)
C6 C5 H5 123.5
C4 C5 H5 123.5
C5 C6 S2 112.33(13)
C5 C6 H6 123.8
S2 C6 H6 123.8
N2 C7 C111 112.23(13)
N2 C7 C8 107.23(14)
C111 C7 C8 111.24(13)
N2 C7 H7 108.7
C111 C7 H7 108.7
C8 C7 H7 108.7
C7 C8 H8A 109.5
C7 C8 H8B 109.5
H8A C8 H8B 109.5
C7 C8 H8C 109.5
H8A C8 H8C 109.5
H8B C8 H8C 109.5
C15 C10 C11 119.21(15)
C15 C10 Ru1 70.72(9)
C11 C10 Ru1 71.49(9)
C15 C10 H10 120.4
C11 C10 H10 120.4
Ru1 C10 H10 129.8
C12 C11 C10 121.07(15)
C12 C11 Ru1 71.71(10)
C10 C11 Ru1 70.61(9)
C12 C11 H11 119.5
C10 C11 H11 119.5
Ru1 C11 H11 131
C11 C12 C13 118.89(15)
C11 C12 Ru1 70.89(9)
C13 C12 Ru1 69.55(9)
C11 C12 H12 120.6
C13 C12 H12 120.6
Ru1 C12 H12 131.7
C14 C13 C12 120.89(16)
C14 C13 Ru1 72.12(9)
C12 C13 Ru1 72.15(9)
C14 C13 H13 119.6
C12 C13 H13 119.6
Ru1 C13 H13 128.5
C13 C14 C15 119.14(15)
C13 C14 Ru1 70.17(9)
C15 C14 Ru1 70.23(8)
C13 C14 H14 120.4
C15 C14 H14 120.4
Ru1 C14 H14 132
C10 C15 C14 120.74(14)
C10 C15 Ru1 71.24(9)
C14 C15 Ru1 71.74(9)
C10 C15 H15 119.6
C14 C15 H15 119.6
Ru1 C15 H15 129.9
C116 C111 C112 119.14(15)
C116 C111 C7 118.97(15)
C112 C111 C7 121.88(15)
C111 C112 C113 120.46(17)
C111 C112 H112 119.8
C113 C112 H112 119.8
C114 C113 C112 120.09(18)
C114 C113 H113 120
C112 C113 H113 120
C113 C114 C115 119.86(18)
C113 C114 H114 120.1
C115 C114 H114 120.1
C114 C115 C116 120.00(18)
C114 C115 H115 120
C116 C115 H115 120
C111 C116 C115 120.45(18)
C111 C116 H116 119.8
C115 C116 H116 119.8
loop_
_geom_bond_atom_site_label_1
_geom_bond_atom_site_label_2
_geom_bond_distance
Ru1 C13 2.1680(16)
Ru1 C15 2.1736(15)
Ru1 C10 2.1805(15)
Ru1 C11 2.1919(15)
Ru1 C14 2.1934(15)
Ru1 C12 2.2025(16)
Ru1 S1 2.4072(4)
Ru1 Cl1 2.4129(4)
Ru1 Cl2 2.4205(4)
S1 C1 1.7017(15)
S2 C6 1.7058(19)
S2 C3 1.7194(15)
O1 C2 1.2335(19)
N1 C1 1.376(2)
N1 C2 1.382(2)
N1 H1 0.85(3)
N2 C1 1.3287(19)
N2 C7 1.462(2)
N2 H2 0.86(3)
C2 C3 1.466(2)
C3 C4 1.395(2)
C4 C5 1.417(2)
C4 H4 0.95
C5 C6 1.377(2)
C5 H5 0.95
C6 H6 0.95
C7 C111 1.520(2)
C7 C8 1.534(2)
C7 H7 1
C8 H8A 0.98
C8 H8B 0.98
C8 H8C 0.98
C10 C15 1.419(2)
C10 C11 1.420(2)
C10 H10 0.95
C11 C12 1.409(3)
C11 H11 0.95
C12 C13 1.434(3)
C12 H12 0.95
C13 C14 1.410(2)
C13 H13 0.95
C14 C15 1.423(2)
C14 H14 0.95
C15 H15 0.95
C111 C116 1.389(2)
C111 C112 1.393(2)
C112 C113 1.394(3)
C112 H112 0.95
C113 C114 1.386(3)
C113 H113 0.95
C114 C115 1.387(3)
C114 H114 0.95
C115 C116 1.398(3)
C115 H115 0.95
C116 H116 0.95
loop_
_geom_torsion_atom_site_label_1
_geom_torsion_atom_site_label_2
_geom_torsion_atom_site_label_3
_geom_torsion_atom_site_label_4
_geom_torsion
C7 N2 C1 N1 -179.68(14)
C7 N2 C1 S1 1.3(2)
C2 N1 C1 N2 9.5(2)
C2 N1 C1 S1 -171.50(13)
Ru1 S1 C1 N2 -165.12(11)
Ru1 S1 C1 N1 15.93(14)
C1 N1 C2 O1 -4.2(3)
C1 N1 C2 C3 176.68(14)
O1 C2 C3 C4 -168.63(18)
N1 C2 C3 C4 10.5(3)
O1 C2 C3 S2 9.0(2)
N1 C2 C3 S2 -171.84(12)
C6 S2 C3 C4 -0.34(14)
C6 S2 C3 C2 -178.46(14)
C2 C3 C4 C5 177.77(17)
S2 C3 C4 C5 0.05(19)
C3 C4 C5 C6 0.4(2)
C4 C5 C6 S2 -0.6(2)
C3 S2 C6 C5 0.54(15)
C1 N2 C7 C111 -71.36(19)
C1 N2 C7 C8 166.19(15)
C15 C10 C11 C12 1.0(2)
Ru1 C10 C11 C12 -53.10(14)
C15 C10 C11 Ru1 54.12(13)
C10 C11 C12 C13 0.4(2)
Ru1 C11 C12 C13 -52.16(14)
C10 C11 C12 Ru1 52.60(14)
C11 C12 C13 C14 -2.6(2)
Ru1 C12 C13 C14 -55.36(14)
C11 C12 C13 Ru1 52.78(14)
C12 C13 C14 C15 3.2(2)
Ru1 C13 C14 C15 -52.22(13)
C12 C13 C14 Ru1 55.37(14)
C11 C10 C15 C14 -0.4(2)
Ru1 C10 C15 C14 54.06(13)
C11 C10 C15 Ru1 -54.48(13)
C13 C14 C15 C10 -1.6(2)
Ru1 C14 C15 C10 -53.83(13)
C13 C14 C15 Ru1 52.18(13)
N2 C7 C111 C116 151.06(15)
C8 C7 C111 C116 -88.8(2)
N2 C7 C111 C112 -29.8(2)
C8 C7 C111 C112 90.4(2)
C116 C111 C112 C113 -0.5(3)
C7 C111 C112 C113 -179.66(17)
C111 C112 C113 C114 0.6(3)
C112 C113 C114 C115 -0.3(3)
C113 C114 C115 C116 -0.1(3)
C112 C111 C116 C115 0.1(3)
C7 C111 C116 C115 179.28(18)
C114 C115 C116 C111 0.2(3)
