#------------------------------------------------------------------------------
#$Date: 2015-12-09 10:40:27 +0200 (Wed, 09 Dec 2015) $
#$Revision: 170918 $
#$URL: svn://www.crystallography.net/cod/cif/1/52/07/1520740.cif $
#------------------------------------------------------------------------------
#
# This file is available in the Crystallography Open Database (COD),
# http://www.crystallography.net/
#
# All data on this site have been placed in the public domain by the
# contributors.
#
data_1520740
loop_
_publ_author_name
'Mary Sheeba, Mani'
'Preethi, Sankaranarayanan'
'Nijamudheen, A.'
'Muthu Tamizh, Manoharan'
'Datta, Ayan'
'Farrugia, Louis J.'
'Karvembu, Ramasamy'
_publ_section_title
;
 Half-sandwich Ru(\h6-C6H6) complexes with chiral aroylthioureas for
 enhanced asymmetric transfer hydrogenation of ketones -- experimental and
 theoretical studies
;
_journal_issue                   10
_journal_name_full               'Catal. Sci. Technol.'
_journal_page_first              4790
_journal_paper_doi               10.1039/C5CY00774G
_journal_volume                  5
_journal_year                    2015
_chemical_absolute_configuration ad
_chemical_compound_source        'as described'
_chemical_formula_moiety         'C20 H20 Cl2 N2 O2 Ru S'
_chemical_formula_sum            'C20 H20 Cl2 N2 O2 Ru S'
_chemical_formula_weight         524.41
_chemical_name_systematic
;
 ?
;
_space_group_IT_number           19
_symmetry_cell_setting           orthorhombic
_symmetry_Int_Tables_number      19
_symmetry_space_group_name_Hall  'P 2ac 2ab'
_symmetry_space_group_name_H-M   'P 21 21 21'
_atom_sites_solution_hydrogens   mixed
_atom_sites_solution_primary     direct
_atom_sites_solution_secondary   direct
_audit_conform_dict_location     ftp://ftp.iucr.org/pub/cif_core.dic
_audit_conform_dict_name         cif_core.dic
_audit_conform_dict_version      2.4.3
_audit_creation_date             2013-11-11T13:39:41-00:00
_audit_creation_method           'WinGX routine CIF_UPDATE'
_audit_update_record
;
2014-11-05 deposited with the CCDC.
2015-07-03 downloaded from the CCDC.
;
_cell_angle_alpha                90
_cell_angle_beta                 90
_cell_angle_gamma                90
_cell_formula_units_Z            4
_cell_length_a                   6.50300(10)
_cell_length_b                   10.28670(10)
_cell_length_c                   31.8305(4)
_cell_measurement_reflns_used    5150
_cell_measurement_temperature    100(2)
_cell_measurement_theta_max      34.97
_cell_measurement_theta_min      2
_cell_measurement_wavelength     0.71073
_cell_volume                     2129.28(5)
_computing_cell_refinement       'HKL Scalepack (Otwinowski & Minor 1997)'
_computing_data_collection       'Collect (Bruker AXS BV, 1997-2004)'
_computing_data_reduction
'HKL Denzo and Scalepack (Otwinowski & Minor 1997)'
_computing_molecular_graphics    'ORTEP-3 for Windows (Farrugia, 2012)'
_computing_publication_material  'WinGX publication routines (Farrugia, 2012)'
_computing_structure_refinement  'SHELXL-2013 (Sheldrick, 2013)'
_computing_structure_solution    'SIR-92 (Altomare et al., 1994)'
_diffrn_ambient_temperature      100(2)
_diffrn_detector                 'CCD plate'
_diffrn_detector_area_resol_mean 9
_diffrn_measured_fraction_theta_full 0.998
_diffrn_measured_fraction_theta_max 0.999
_diffrn_measurement_device       '95mm CCD camera on \k-goniostat'
_diffrn_measurement_device_type  KappaCCD
_diffrn_measurement_method       'CCD rotation images, thick slices'
_diffrn_orient_matrix_UB_11      -0.037978
_diffrn_orient_matrix_UB_12      -0.091779
_diffrn_orient_matrix_UB_13      -0.00686
_diffrn_orient_matrix_UB_21      0.112654
_diffrn_orient_matrix_UB_22      -0.003345
_diffrn_orient_matrix_UB_23      -0.021357
_diffrn_orient_matrix_UB_31      0.097538
_diffrn_orient_matrix_UB_32      -0.031873
_diffrn_orient_matrix_UB_33      0.021996
_diffrn_radiation_monochromator  'horizonally mounted graphite crystal'
_diffrn_radiation_probe          x-ray
_diffrn_radiation_type           MoK\a
_diffrn_radiation_wavelength     0.71073
_diffrn_reflns_av_R_equivalents  0.024
_diffrn_reflns_laue_measured_fraction_full 0.998
_diffrn_reflns_laue_measured_fraction_max 0.999
_diffrn_reflns_limit_h_max       10
_diffrn_reflns_limit_h_min       -10
_diffrn_reflns_limit_k_max       16
_diffrn_reflns_limit_k_min       -16
_diffrn_reflns_limit_l_max       51
_diffrn_reflns_limit_l_min       -51
_diffrn_reflns_number            72807
_diffrn_reflns_point_group_measured_fraction_full 0.998
_diffrn_reflns_point_group_measured_fraction_max 0.998
_diffrn_reflns_reduction_process
;
        Scaled and merged with Sortav
        R.H. Blessing, (1987) Cryst. Rev. 1, 3-58
        R.H. Blessing, (1989) J. Appl. Cryst. 22, 396-397
;
_diffrn_reflns_theta_full        25.242
_diffrn_reflns_theta_max         34.991
_diffrn_reflns_theta_min         2.081
_diffrn_source                   'Enraf Nonius FR590'
_exptl_absorpt_coefficient_mu    1.104
_exptl_absorpt_correction_T_max  0.838
_exptl_absorpt_correction_T_min  0.549
_exptl_absorpt_correction_type   gaussian
_exptl_absorpt_process_details
;
        P. Coppens, L. Leiserowitz, D Rabinovich, Acta Cryst.
        (1965), 18, 1035-1038
;
_exptl_crystal_colour            orange
_exptl_crystal_density_diffrn    1.636
_exptl_crystal_density_method    'not measured'
_exptl_crystal_description       plate
_exptl_crystal_F_000             1056
_exptl_crystal_size_max          0.516
_exptl_crystal_size_mid          0.513
_exptl_crystal_size_min          0.178
_refine_diff_density_max         0.56
_refine_diff_density_min         -0.642
_refine_diff_density_rms         0.053
_refine_ls_abs_structure_details
;
 Flack x determined using 3963 quotients [(I+)-(I-)]/[(I+)+(I-)]
 (Parsons and Flack (2004), Acta Cryst. A60, s61).
;
_refine_ls_abs_structure_Flack   0.014(6)
_refine_ls_extinction_coef       0.0023(2)
_refine_ls_extinction_expression Fc^*^=kFc[1+0.001xFc^2^\l^3^/sin(2\q)]^-1/4^
_refine_ls_extinction_method     SHELXL
_refine_ls_goodness_of_fit_ref   1.058
_refine_ls_hydrogen_treatment    refU
_refine_ls_matrix_type           full
_refine_ls_number_constraints    0
_refine_ls_number_parameters     281
_refine_ls_number_reflns         9381
_refine_ls_number_restraints     0
_refine_ls_restrained_S_all      1.058
_refine_ls_R_factor_all          0.0155
_refine_ls_R_factor_gt           0.0148
_refine_ls_shift/su_max          0.01
_refine_ls_shift/su_mean         0
_refine_ls_structure_factor_coef Fsqd
_refine_ls_weighting_details
'w=1/[\s^2^(Fo^2^)+0.2505P] where P=(Fo^2^+2Fc^2^)/3'
_refine_ls_weighting_scheme      calc
_refine_ls_wR_factor_gt          0.0375
_refine_ls_wR_factor_ref         0.0376
_reflns_number_gt                9202
_reflns_number_total             9381
_reflns_threshold_expression     'I > 2\s(I)'
_iucr_refine_instructions_details
;
TITL C20 H20 Cl2 O2 Ru S code RFTC (svc_43) in P 21 21 21
CELL  0.71073   6.5030  10.2867  31.8305   90.000   90.000   90.000
ZERR     4.00   0.0001   0.0001   0.0004    0.000    0.000    0.000
LATT  -1
SYMM  1/2 - X, - Y, 1/2 + Z
SYMM  1/2 + X, 1/2 - Y, - Z
SYMM  - X, 1/2 + Y, 1/2 - Z
SFAC  RU   S    CL   O    N    C    H
UNIT  4    4    8    8    8    80   80
MERG   2
FMAP   2
PLAN    5
SIZE     0.178   0.513   0.516
ACTA
BOND   $H
CONF
L.S.  10
TEMP  -173.00
WGHT    0.000000    0.250500
EXTI    0.002251
FVAR       0.43434
RU1   1    0.185855    0.658730    0.736473    11.00000    0.01007    0.00879 =
         0.00940   -0.00047   -0.00021    0.00011
S1    2    0.316041    0.506416    0.685801    11.00000    0.01642    0.01322 =
         0.01062   -0.00200   -0.00246    0.00472
CL1   3    0.248764    0.831302    0.686235    11.00000    0.02142    0.01121 =
         0.01364    0.00083    0.00058   -0.00302
CL2   3   -0.158885    0.642260    0.708440    11.00000    0.01064    0.01919 =
         0.01430    0.00192   -0.00085   -0.00103
O1    4    0.080987    0.578628    0.552747    11.00000    0.02822    0.02450 =
         0.01204   -0.00176   -0.00205    0.00931
O2    4   -0.226062    0.749827    0.541814    11.00000    0.03141    0.03231 =
         0.01213    0.00132   -0.00426    0.01547
N1    5    0.092901    0.615447    0.623930    11.00000    0.02092    0.01441 =
         0.01108   -0.00219   -0.00332    0.00539
N2    5    0.300254    0.442240    0.605492    11.00000    0.02397    0.01719 =
         0.01098   -0.00185   -0.00134    0.00722
C1    6    0.232892    0.521802    0.635251    11.00000    0.01500    0.01250 =
         0.01171   -0.00133   -0.00139    0.00111
C2    6    0.013440    0.634036    0.584043    11.00000    0.02043    0.01458 =
         0.01211    0.00027   -0.00273    0.00217
C3    6   -0.161928    0.722280    0.581830    11.00000    0.02352    0.01828 =
         0.01172    0.00085   -0.00408    0.00626
C4    6   -0.290850    0.777907    0.610369    11.00000    0.03084    0.02703 =
         0.01392    0.00115   -0.00253    0.01325
AFIX  43
H4    7   -0.280202    0.773229    0.640097    11.00000    0.02978
AFIX   0
C5    6   -0.444331    0.844279    0.586958    11.00000    0.03219    0.03531 =
         0.01827    0.00142   -0.00150    0.01875
AFIX  43
H5    7   -0.556697    0.892743    0.597841    11.00000    0.03384
AFIX   0
C6    6   -0.397847    0.824398    0.545851    11.00000    0.03300    0.03732 =
         0.01704    0.00242   -0.00489    0.01828
AFIX  43
H6    7   -0.474986    0.858067    0.522959    11.00000    0.04502
AFIX   0
C7    6    0.433836    0.328022    0.611872    11.00000    0.02133    0.01834 =
         0.01366   -0.00199   -0.00087    0.00798
AFIX  13
H7    7    0.417832    0.298656    0.641641    11.00000    0.01878
AFIX   0
C8    6    0.658225    0.365078    0.605078    11.00000    0.02149    0.03553 =
         0.02718   -0.00512   -0.00083    0.00547
AFIX 137
H8A   7    0.698765    0.430437    0.625891    11.00000    0.04008
H8B   7    0.675341    0.400881    0.576762    11.00000    0.03871
H8C   7    0.744901    0.287749    0.608212    11.00000    0.03739
AFIX   0
C10   6    0.440599    0.716127    0.776611    11.00000    0.01335    0.02039 =
         0.01348   -0.00315   -0.00214   -0.00058
AFIX  43
H10   7    0.568339    0.755011    0.769417    11.00000    0.02292
AFIX   0
C11   6    0.267086    0.795425    0.786282    11.00000    0.01855    0.01273 =
         0.01313   -0.00256   -0.00126   -0.00029
AFIX  43
H11   7    0.280243    0.887393    0.785861    11.00000    0.02783
AFIX   0
C12   6    0.077028    0.738859    0.796417    11.00000    0.01633    0.01925 =
         0.01156   -0.00230    0.00129    0.00282
AFIX  43
H12   7   -0.037931    0.792055    0.803020    11.00000    0.02552
AFIX   0
C13   6    0.058143    0.600187    0.796705    11.00000    0.02036    0.02097 =
         0.01275    0.00058    0.00156   -0.00603
AFIX  43
H13   7   -0.071258    0.561463    0.802641    11.00000    0.02724
AFIX   0
C14   6    0.229775    0.520485    0.788261    11.00000    0.02965    0.01248 =
         0.01323    0.00132   -0.00313   -0.00016
AFIX  43
H14   7    0.217810    0.428528    0.789535    11.00000    0.02173
AFIX   0
C15   6    0.421380    0.579527    0.777795    11.00000    0.02129    0.01886 =
         0.01264   -0.00194   -0.00423    0.00798
AFIX  43
H15   7    0.537035    0.526497    0.771569    11.00000    0.02040
AFIX   0
C111  6    0.349783    0.221654    0.583393    11.00000    0.02380    0.01652 =
         0.01460   -0.00251   -0.00062    0.00745
C112  6    0.176979    0.152436    0.596229    11.00000    0.03064    0.02657 =
         0.02844   -0.00417    0.00368    0.00027
AFIX  43
H112  7    0.119903    0.168869    0.623185    11.00000    0.04652
AFIX   0
C113  6    0.086008    0.059604    0.570387    11.00000    0.03895    0.02711 =
         0.04923   -0.00567   -0.00705   -0.00259
AFIX  43
H113  7   -0.031953    0.013286    0.579655    11.00000    0.03905
AFIX   0
C114  6    0.168797    0.035254    0.531039    11.00000    0.05135    0.02385 =
         0.03952   -0.01169   -0.02022    0.01064
AFIX  43
H114  7    0.107815   -0.027817    0.513148    11.00000    0.05437
AFIX   0
C115  6    0.339639    0.102897    0.518058    11.00000    0.05110    0.03209 =
         0.01958   -0.01072   -0.00764    0.01617
AFIX  43
H115  7    0.396344    0.085876    0.491108    11.00000    0.04762
AFIX   0
C116  6    0.430949    0.195969    0.543769    11.00000    0.03684    0.02592 =
         0.01509   -0.00347    0.00242    0.00837
AFIX  43
H116  7    0.548750    0.241997    0.534268    11.00000    0.04009
AFIX   0
H2A   7    0.258904    0.463105    0.580433    11.00000    0.03262
H1A   7    0.044208    0.664845    0.644783    11.00000    0.02469
HKLF    4
REM  C20 H20 Cl2 O2 Ru S code RFTC (svc_43) in P 21 21 21
REM R1 =  0.0148 for    9202 Fo > 4sig(Fo)  and  0.0155 for all    9381 data
REM    281 parameters refined using      0 restraints
END
;
_cod_data_source_file            c5cy00774g2.cif
_cod_data_source_block           comp_5
_cod_depositor_comments
'Adding full bibliography for 1520736--1520740.cif.'
_cod_database_code               1520740
_audit_block_doi                 10.5517/cc13npzf
_shelx_estimated_absorpt_t_min   0.6
_shelx_estimated_absorpt_t_max   0.828
_iucr_refine_reflections_details
;
   0   0   4 3368.56 84.1558   1
   0   0   6 8318.42 376.333   1
   0   0   8 488.346 12.0092   1
   0   0  10 2272.22  53.289   1
   0   0  12 1503.65 36.1061   1
   0   0  14 935.353 21.2106   1
   0   0  16 11.4298  1.6969   1
   0   0  18 213.007 5.98657   1
   0   0  20 1.84566 2.26029   1
   0   0  22 947.068 22.0688   1
   0   0  24 159.943 6.11303   1
   0   0  26  611.40 15.7918   1
   0   0  28 157.741 5.18787   1
   0   0  30 13.4071 1.07055   1
   0   0  32 846.034 24.0794   1
   0   0  34 511.174 12.7392   1
   0   0  36 1346.46 40.6544   1
   0   0  38 2744.47 72.1438   1
   0   0  40 1934.21 56.5327   1
   0   0  42 352.519 12.6657   1
   0   0  44 38.8098 3.02554   1
   0   0  46 33.7724 2.63067   1
   0   0  48 103.532 6.08849   1
   0   0  50 1.67118 2.36599   1
   0   1   1 393.742 8.80947   1
   0   1   2 1372.19 30.3337   1
   0   1   3 573.237 12.7955   1
   0   1   4  803.95 17.9859   1
   0   1   5 864.296 19.2239   1
   0   1   6 484.132 10.8415   1
   0   1   7 1031.27 23.1699   1
   0   1   8 808.884 18.3463   1
   0   1   9 48.1295 1.48243   1
   0   1  10 365.451 8.31197   1
   0   1  11 872.405 19.9408   1
   0   1  12 356.957 8.35163   1
   0   1  13 337.957 8.04146   1
   0   1  14 17.0135 0.98323   1
   0   1  15 725.407 16.3476   1
   0   1  16 1338.15 30.2973   1
   0   1  17 2010.70 45.0672   1
   0   1  18 904.708 20.7095   1
   0   1  19 2830.55 63.6993   1
   0   1  20 569.029 13.3962   1
   0   1  21 2625.73 61.1296   1
   0   1  22 865.987 19.7943   1
   0   1  23  388.45 9.15518   1
   0   1  24 218.239 5.58257   1
   0   1  25 1266.21 28.7838   1
   0   1  26 252.883 7.01095   1
   0   1  27 387.753 10.6958   1
   0   1  28 173.347 5.23469   1
   0   1  29   91.29 2.61712   1
   0   1  30 240.305 12.8425   1
   0   1  31 536.708 12.6971   1
   0   1  32 217.175  5.6394   1
   0   1  33 438.537 12.2631   1
   0   1  34 49.6809 2.44287   1
   0   1  35 175.215 4.40069   1
   0   1  36 123.134 3.30952   1
   0   1  37 45.1576 1.93704   1
   0   1  38 6.70239 1.06694   1
   0   1  39 37.2557 2.08348   1
   0   1  40 281.264 7.60907   1
   0   1  41  295.75 8.33966   1
   0   1  42 93.9481 2.95846   1
   0   1  43 433.431   12.44   1
   0   1  44 177.459 6.33281   1
   0   1  45 409.173 12.3756   1
   0   1  46  179.22 5.98856   1
   0   1  47  347.97 11.2081   1
   0   1  48 71.3469 3.63186   1
   0   1  49 98.2663 4.58265   1
   0   1  50 31.2061 2.40385   1
   0   1  51 54.5917 3.45233   1
   0   2   0 2659.47  58.098   1
   0   2   1 7150.23 155.495   1
   0   2   2 371.211 8.28067   1
   0   2   3 4308.56 96.5311   1
   0   2   4 593.213 13.2743   1
   0   2   5 7943.88 190.472   1
   0   2   6 2652.31 58.7993   1
   0   2   7 1345.83 29.9421   1
   0   2   8 212.058 4.84901   1
   0   2   9 1825.47 40.5123   1
   0   2  10 113.373  2.8363   1
   0   2  11 510.874  11.548   1
   0   2  12 14.9204 0.89443   1
   0   2  13 435.366 9.87782   1
   0   2  14  98.285  2.4259   1
   0   2  15  583.22 13.3477   1
   0   2  16 371.048 8.47654   1
   0   2  17 31.4496 1.23779   1
   0   2  18 4.72398 0.80728   1
   0   2  19 6.29521 0.80492   1
   0   2  20 49.0807 1.47418   1
   0   2  21 29.4612 1.34321   1
   0   2  22 44.5046  1.7956   1
   0   2  23 95.2219 2.72268   1
   0   2  24 231.468 5.56874   1
   0   2  25 145.363 4.09749   1
   0   2  26 357.223 8.75539   1
   0   2  27 413.304 10.3937   1
   0   2  28 130.513 5.34828   1
   0   2  29 1169.08  26.486   1
   0   2  30 48.6907 1.72355   1
   0   2  31 811.764 21.4276   1
   0   2  32 627.569 15.0827   1
   0   2  33 1478.48 36.2426   1
   0   2  34 238.781 6.18386   1
   0   2  35 1309.08 34.6923   1
   0   2  36  123.45 3.88623   1
   0   2  37 802.754 23.8815   1
   0   2  38 12.2374 1.89231   1
   0   2  39 210.715 6.38352   1
   0   2  40 116.125 3.22008   1
   0   2  41 165.256 5.39923   1
   0   2  42 22.4837 3.01982   1
   0   2  43 277.868 9.36261   1
   0   2  44 25.9991  2.1888   1
   0   2  45 140.406  6.8401   1
   0   2  46 183.585 7.35467   1
   0   2  47 33.4225  2.2052   1
   0   2  48 4.03158 1.95445   1
   0   2  49 128.736 5.93436   1
   0   2  50 28.7892 2.68159   1
   0   3   1 186.352 4.39496   1
   0   3   2 229.946 5.59721   1
   0   3   3 488.829 10.9661   1
   0   3   4 75.2184  1.8681   1
   0   3   5  263.13 6.24926   1
   0   3   6 382.488 8.87505   1
   0   3   7 241.817 5.65871   1
   0   3   8 4320.50 96.1803   1
   0   3   9 0.51278 0.82199   1
   0   3  10 6586.53 149.235   1
   0   3  11 373.604 8.47312   1
   0   3  12 5976.60 135.085   1
   0   3  13 118.464 2.93122   1
   0   3  14 3350.00 75.3652   1
   0   3  15 222.591 5.13344   1
   0   3  16  534.40 12.2223   1
   0   3  17  35.694  1.1746   1
   0   3  18 192.969 4.68475   1
   0   3  19 24.6762 1.28813   1
   0   3  20 76.1308 2.15853   1
   0   3  21 48.0725  1.7529   1
   0   3  22 63.7083 2.31667   1
   0   3  23 66.6721 2.46784   1
   0   3  24 2386.64 54.1276   1
   0   3  25 77.2234 3.13114   1
   0   3  26 2046.60 48.0369   1
   0   3  27 348.636 9.72374   1
   0   3  28 2591.31 60.9681   1
   0   3  29 21.0669  3.4917   1
   0   3  30 1437.92 32.5812   1
   0   3  31 40.5894 1.49482   1
   0   3  32 483.019 11.7174   1
   0   3  33 183.659 5.26155   1
   0   3  34 3.07327 0.86438   1
   0   3  35 5.63628 1.00643   1
   0   3  36 167.409 4.99106   1
   0   3  37 1.78903 0.97562   1
   0   3  38  46.463 2.21124   1
   0   3  39  24.524 2.10147   1
   0   3  40 94.2602 2.83861   1
   0   3  41  6.5253 1.12729   1
   0   3  42 3.15193 1.45095   1
   0   3  43 28.9629 5.40272   1
   0   3  44 79.5126 3.66114   1
   0   3  45 60.6334 5.28666   1
   0   3  46 346.764 11.8338   1
   0   3  47 5.94101 1.68147   1
   0   3  48 451.585 16.4202   1
   0   3  49  17.862 2.16409   1
   0   3  50 600.693 19.8916   1
   0   4   0 1620.85 35.3743   1
   0   4   1 138.006 3.42147   1
   0   4   2 1371.55 31.5689   1
   0   4   3 1718.68 38.9297   1
   0   4   4 769.479 17.2635   1
   0   4   5 1413.73  31.782   1
   0   4   6 1836.25 40.8628   1
   0   4   7 4030.52  90.194   1
   0   4   8 1485.82 33.4682   1
   0   4   9 891.479 20.0414   1
   0   4  10 3.19962 0.77782   1
   0   4  11 992.852 22.3412   1
   0   4  12 204.944 4.88628   1
   0   4  13  469.04 10.7924   1
   0   4  14 0.80686 0.58601   1
   0   4  15 215.103 5.11125   1
   0   4  16 2.46596 0.89528   1
   0   4  17 79.2337 2.22444   1
   0   4  18 41.4301 1.35905   1
   0   4  19 27.5058 1.20656   1
   0   4  20 24.8097 1.34602   1
   0   4  21 8.63723 1.29897   1
   0   4  22 105.314 2.98867   1
   0   4  23 19.1564 1.69328   1
   0   4  24-2.30383 11.1782   1
   0   4  25 6.16687 1.12712   1
   0   4  26 5.84366 1.94228   1
   0   4  27 277.931 6.87372   1
   0   4  28 641.339 14.9292   1
   0   4  29 600.624 15.1104   1
   0   4  30 348.202 8.48534   1
   0   4  31 1160.05 27.6522   1
   0   4  32 491.729 11.8228   1
   0   4  33  679.87 16.5692   1
   0   4  34 784.841 19.1897   1
   0   4  35 640.786 15.8358   1
   0   4  36 539.701  13.243   1
   0   4  37 261.284 6.71161   1
   0   4  38 232.324 6.52616   1
   0   4  39 99.3253 3.26715   1
   0   4  40 72.6102 2.86348   1
   0   4  41 58.7597 2.90142   1
   0   4  42 187.526 7.00316   1
   0   4  43 156.681 5.33887   1
   0   4  44 172.592  5.8254   1
   0   4  45 349.988 12.2849   1
   0   4  46 49.9524 2.99652   1
   0   4  47 55.7877 3.33417   1
   0   4  48  26.209 2.37516   1
   0   4  49  49.322   3.334   1
   0   5   1 311.892 7.15004   1
   0   5   2 74.8561 2.08027   1
   0   5   3 1724.70 38.2489   1
   0   5   4 837.694 19.0771   1
   0   5   5 3181.88 73.7493   1
   0   5   6 15.6053 0.92071   1
   0   5   7 4233.85 95.0467   1
   0   5   8 39.7177 1.23078   1
   0   5   9 2217.32 51.9909   1
   0   5  10 8.97962 0.81055   1
   0   5  11 651.046 14.6568   1
   0   5  12 17.2421 0.96245   1
   0   5  13 1570.14 35.4101   1
   0   5  14 315.789 7.25789   1
   0   5  15 514.998 11.6592   1
   0   5  16 9.68429 0.76429   1
   0   5  17 381.295  8.7102   1
   0   5  18 573.841 13.0329   1
   0   5  19 1739.97   39.23   1
   0   5  20 175.797 4.47092   1
   0   5  21  525.15 12.0748   1
   0   5  22  203.49 5.16874   1
   0   5  23 743.035 17.1357   1
   0   5  24 72.0983 2.46458   1
   0   5  25 869.651  19.715   1
   0   5  26  20.108  0.9406   1
   0   5  27 570.864 12.9619   1
   0   5  28 44.8435 1.56436   1
   0   5  29 344.974   8.083   1
   0   5  30 4.54926 0.78302   1
   0   5  31  356.87 8.53714   1
   0   5  32 2.60664 0.86164   1
   0   5  33 517.042 12.6753   1
   0   5  34 14.6916 1.18442   1
   0   5  35  66.102 2.02976   1
   0   5  36 11.5156 1.25103   1
   0   5  37 3.62842 0.95455   1
   0   5  38 10.3802 1.12353   1
   0   5  39  90.785 2.84579   1
   0   5  40 3.13175 1.18274   1
   0   5  41 213.185 6.09386   1
   0   5  42  48.038 2.43084   1
   0   5  43 260.147 8.35839   1
   0   5  44 13.1067   1.654   1
   0   5  45 351.294 12.8589   1
   0   5  46  6.2816 2.07753   1
   0   5  47 291.121 11.0304   1
   0   5  48-3.42992 4.80355   1
   0   6   0 4519.10 98.5813   1
   0   6   1 478.048 10.8991   1
   0   6   2 5277.37 119.139   1
   0   6   3  425.85  9.9167   1
   0   6   4 975.555 21.9848   1
   0   6   5 2.71087 0.75277   1
   0   6   6  235.79 5.44678   1
   0   6   7 418.984 9.59341   1
   0   6   8 109.847   2.768   1
   0   6   9  26.604 1.13888   1
   0   6  10 3.10192 0.74526   1
   0   6  11  204.07 4.96969   1
   0   6  12 604.642 13.7899   1
   0   6  13 1.79006 1.07345   1
   0   6  14 1024.69 23.3714   1
   0   6  15 13.0093 0.97623   1
   0   6  16 645.724 14.8622   1
   0   6  17  6.8913 1.05008   1
   0   6  18 338.585 7.99777   1
   0   6  19 10.8375 1.02846   1
   0   6  20 24.0331 1.91471   1
   0   6  21 277.668 6.65917   1
   0   6  22 722.789 16.3057   1
   0   6  23 44.0124 1.61515   1
   0   6  24 731.207 16.5715   1
   0   6  25 22.7295 1.20189   1
   0   6  26 412.689 9.53234   1
   0   6  27 2.47439 1.26088   1
   0   6  28 71.5559  2.2513   1
   0   6  29 33.6706 1.22539   1
   0   6  30 37.1112  1.7546   1
   0   6  31 72.8024 2.25159   1
   0   6  32 35.2441 1.64451   1
   0   6  33  164.34 4.46155   1
   0   6  34 438.669 11.1839   1
   0   6  35 252.323 6.77844   1
   0   6  36 1042.05 26.0823   1
   0   6  37 196.117 5.78771   1
   0   6  38 1489.28 38.6369   1
   0   6  39 60.9987 3.79133   1
   0   6  40 1720.45 62.3474   1
   0   6  41 77.3753 3.33959   1
   0   6  42 819.974 24.1314   1
   0   6  43 40.6491 3.13864   1
   0   6  44 69.3312 4.30909   1
   0   6  45 20.3109 2.01232   1
   0   6  46 9.71303 1.89697   1
   0   6  47-0.98725 5.35827   1
   0   7   1 14.5382 1.01275   1
   0   7   2 488.766 11.5198   1
   0   7   3 569.957 13.1345   1
   0   7   4 1052.28 23.6939   1
   0   7   5 1451.59 32.6136   1
   0   7   6 909.995 20.6276   1
   0   7   7 298.915 6.99961   1
   0   7   8 1040.53 23.3315   1
   0   7   9 103.894 2.83511   1
   0   7  10 948.085 21.5343   1
   0   7  11 0.88636 2.04989   1
   0   7  12 456.027 10.7809   1
   0   7  13 398.433 9.29196   1
   0   7  14 350.858 8.23562   1
   0   7  15 122.141 3.60025   1
   0   7  16 313.074 7.54323   1
   0   7  17 602.841  14.272   1
   0   7  18 759.702  17.491   1
   0   7  19 1472.42 34.1338   1
   0   7  20 533.894 12.2846   1
   0   7  21 1205.29 27.6266   1
   0   7  22 265.089 6.50154   1
   0   7  23 543.614 12.9558   1
   0   7  24 614.303 14.6466   1
   0   7  25 24.3707 1.40165   1
   0   7  26 203.768 4.89976   1
   0   7  27  127.15 3.24333   1
   0   7  28 145.113 3.76017   1
   0   7  29 7.10256  1.4322   1
   0   7  30 294.908 9.43724   1
   0   7  31  35.879 1.76618   1
   0   7  32 109.247 3.00122   1
   0   7  33 39.0673 1.91698   1
   0   7  34  35.305 2.00742   1
   0   7  35 53.6711 1.92596   1
   0   7  36 3.75861 1.14809   1
   0   7  37 10.1025  1.7584   1
   0   7  38 8.83793 1.19025   1
   0   7  39 19.3107 2.61296   1
   0   7  40 76.8003 4.21404   1
   0   7  41 123.032 4.23307   1
   0   7  42  262.36 9.10802   1
   0   7  43 152.972 7.92411   1
   0   7  44 47.8842 3.50843   1
   0   7  45 53.3505 3.38828   1
   0   7  46 48.2963 3.16498   1
   0   8   0 57.2005 2.60628   1
   0   8   1 1291.00 29.1431   1
   0   8   2 44.2486 1.83757   1
   0   8   3 2169.24 49.3687   1
   0   8   4 23.8104 1.52233   1
   0   8   5 860.509  19.711   1
   0   8   6 102.906 3.44998   1
   0   8   7 1287.74 29.2762   1
   0   8   8 48.8265  2.0606   1
   0   8   9 1008.65 22.9797   1
   0   8  10  295.69 7.30412   1
   0   8  11 196.255 5.13232   1
   0   8  12 50.6348 2.16538   1
   0   8  13 25.2917 1.42615   1
   0   8  14 40.1503 2.54351   1
   0   8  15 3.36302  1.4719   1
   0   8  16  1.3802 1.58225   1
   0   8  17 10.6952  1.0171   1
   0   8  18 179.714 4.58571   1
   0   8  19 1.13264 0.66067   1
   0   8  20 2.80092 0.66812   1
   0   8  21 3.62443 0.74387   1
   0   8  22 15.1934 0.98249   1
   0   8  23 2.48662 0.91207   1
   0   8  24 149.433 3.90341   1
   0   8  25 31.6722 2.86614   1
   0   8  26 33.9141 1.46062   1
   0   8  27 3.34192 0.90234   1
   0   8  28 4.74779 1.73281   1
   0   8  29 418.942 10.5277   1
   0   8  30 5.32099 1.04719   1
   0   8  31 777.193 19.6394   1
   0   8  32 3.39713 1.11417   1
   0   8  33 512.764 12.9313   1
   0   8  34 16.8077 1.33704   1
   0   8  35 1038.32 28.2092   1
   0   8  36 39.9329 2.25839   1
   0   8  37 679.177 21.9793   1
   0   8  38 0.76549 2.23749   1
   0   8  39 638.807 18.7924   1
   0   8  40 7.36178 1.59447   1
   0   8  41 517.269 18.8776   1
   0   8  42 25.7449 3.89017   1
   0   8  43 355.435 12.1284   1
   0   8  44 9.51928 2.42969   1
   0   9   1 82.1077 2.74006   1
   0   9   2 86.2207 2.81128   1
   0   9   3 245.404 6.02339   1
   0   9   4 18.3982  1.7987   1
   0   9   5 298.703   7.154   1
   0   9   6 14.2496  0.7021   1
   0   9   7 323.621 7.99665   1
   0   9   8 694.835 16.1812   1
   0   9   9 333.693 7.86351   1
   0   9  10 2000.76 45.5609   1
   0   9  11 249.303 5.96115   1
   0   9  12 1494.00 35.1676   1
   0   9  13 154.994 4.27302   1
   0   9  14 1411.83 32.5953   1
   0   9  15  32.317 1.28009   1
   0   9  16 764.091 19.3242   1
   0   9  17 15.9272 1.04427   1
   0   9  18 50.8984 1.61818   1
   0   9  19 174.538 4.90766   1
   0   9  20 7.62166 1.09301   1
   0   9  21  44.461 2.01712   1
   0   9  22 449.875 10.7418   1
   0   9  23 2.32147 1.08754   1
   0   9  24 800.755 20.2655   1
   0   9  25 136.848 9.27919   1
   0   9  26 759.132 18.8708   1
   0   9  27 55.6295 2.97446   1
   0   9  28 880.303 22.0728   1
   0   9  29 59.1782 2.10585   1
   0   9  30 649.258 16.3435   1
   0   9  31 141.576 5.45913   1
   0   9  32 25.3824 1.77905   1
   0   9  33 29.9563 1.82431   1
   0   9  34 164.414 4.89111   1
   0   9  35 30.3997 1.91247   1
   0   9  36 104.729  3.4079   1
   0   9  37 1.46987 1.65193   1
   0   9  38 25.7467 2.85719   1
   0   9  39 0.40763 1.74333   1
   0   9  40 24.7492 2.42077   1
   0   9  41  82.981 5.81667   1
   0   9  42 1.27213 2.11589   1
   0   9  43 62.7138 3.62947   1
   0  10   0 989.351 22.5818   1
   0  10   1 67.6484 1.93394   1
   0  10   2  574.48 13.6561   1
   0  10   3 210.379 4.92967   1
   0  10   4 542.991 13.2713   1
   0  10   5 417.544 10.0152   1
   0  10   6 1122.38 25.2453   1
   0  10   7 540.384 12.1498   1
   0  10   8 414.263 9.47508   1
   0  10   9 772.719  18.076   1
   0  10  10  126.87 4.22864   1
   0  10  11 430.359 9.99999   1
   0  10  12  150.83 5.36956   1
   0  10  13 16.6001 1.00279   1
   0  10  14 44.2581 1.98729   1
   0  10  15 3.95413 0.72856   1
   0  10  16 26.7106 1.16408   1
   0  10  17 174.173  4.3062   1
   0  10  18 3.74565 1.05957   1
   0  10  19 64.6227 2.92052   1
   0  10  20   30.83  6.4297   1
   0  10  21  75.828 2.45354   1
   0  10  22 5.41638 1.29655   1
   0  10  23 30.4946 2.74607   1
   0  10  24   8.442 1.63785   1
   0  10  25 34.1781  1.8072   1
   0  10  26 66.2873   2.762   1
   0  10  27 24.0337 1.81474   1
   0  10  28 97.8484 5.00924   1
   0  10  29 323.485 8.54434   1
   0  10  30 532.272 14.4089   1
   0  10  31 286.767 9.63837   1
   0  10  32 498.147  17.228   1
   0  10  33 116.298 3.83653   1
   0  10  34 500.635  22.614   1
   0  10  35 59.0892  3.2042   1
   0  10  36 318.037 13.1187   1
   0  10  37 10.6153   1.836   1
   0  10  38 293.424 11.5514   1
   0  10  39 6.65339 3.08873   1
   0  10  40 200.368 10.1435   1
   0  11   1  33.084 1.11654   1
   0  11   2 7.73754 0.77208   1
   0  11   3 32.8881  1.7047   1
   0  11   4 21.0021   0.934   1
   0  11   5 934.201 21.6887   1
   0  11   6  57.552 1.66114   1
   0  11   7 807.531 18.8708   1
   0  11   8 63.6066 2.35843   1
   0  11   9 224.848 5.75571   1
   0  11  10 22.7356 1.38681   1
   0  11  11 616.068  14.572   1
   0  11  12 4.30089 0.80232   1
   0  11  13 427.185 10.8645   1
   0  11  14 2.98662 1.13542   1
   0  11  15 629.113 18.4518   1
   0  11  16 50.7171 1.98762   1
   0  11  17 336.944 11.0251   1
   0  11  18 88.1243 3.67692   1
   0  11  19  436.14 12.0738   1
   0  11  20 22.3984 1.79091   1
   0  11  21 667.731  16.141   1
   0  11  22  18.444  1.6018   1
   0  11  23 249.528  7.7853   1
   0  11  24 2.42806 1.20485   1
   0  11  25 384.786 9.85048   1
   0  11  26 48.3021 3.53606   1
   0  11  27 259.249 8.82604   1
   0  11  28 28.5665 1.93422   1
   0  11  29 91.5246 4.45407   1
   0  11  30 58.1421 4.85281   1
   0  11  31 248.781 8.15091   1
   0  11  32 13.2115 1.64416   1
   0  11  33 120.267 4.53505   1
   0  11  34 3.94402 2.44847   1
   0  11  35  65.091 5.22505   1
   0  11  36  7.8487 3.34694   1
   0  11  37 1.99757 2.07863   1
   0  11  38 13.7608 2.87792   1
   0  12   2 969.727 37.8698   1
   0  12   3 352.482 8.53412   1
   0  12   4 506.799 26.2216   1
   0  12   5 497.886 13.1832   1
   0  12   6 30.5069 1.49865   1
   0  12   7 173.949 4.41879   1
   0  12   8 1.63967 0.89772   1
   0  12   9   0.053 0.86606   1
   0  12  10 86.4275 2.57557   1
   0  12  11 133.631  3.5412   1
   0  12  12 121.439 3.17225   1
   0  12  13 2.62632  0.8226   1
   0  12  14 496.173 12.0107   1
   0  12  15 45.9256 1.59988   1
   0  12  16 412.788 10.1839   1
   0  12  17 1.38567 0.98445   1
   0  12  18 32.0036 1.84002   1
   0  12  19 2.27007 1.28223   1
   0  12  20 2.23044 1.02591   1
   0  12  21 3.56186 1.14315   1
   0  12  22 318.665 8.74799   1
   0  12  23 9.47897 1.46492   1
   0  12  24 553.237 15.4396   1
   0  12  25 2.37073 1.90168   1
   0  12  26 288.958 8.86143   1
   0  12  27 74.6848 3.39537   1
   0  12  28 130.946  4.7063   1
   0  12  29 55.5395 2.95359   1
   0  12  30 21.7925 2.49892   1
   0  12  31 55.3588 4.55627   1
   0  12  32 30.6864  2.9558   1
   0  12  33  211.16 8.57392   1
   0  12  34 64.7689 4.05986   1
   0  12  35 143.991  5.8113   1
   0  13   1  36.769 1.53839   1
   0  13   2 16.5613   1.216   1
   0  13   3 66.9282 2.39043   1
   0  13   4 92.6105 2.98344   1
   0  13   5 40.7622  1.8085   1
   0  13   6  422.41 10.2819   1
   0  13   7  6.7429 1.09084   1
   0  13   8 64.6481 2.45755   1
   0  13   9 16.6523 1.23535   1
   0  13  10 181.392 4.75611   1
   0  13  11 3.55508 0.91746   1
   0  13  12  227.02 5.86796   1
   0  13  13 4.41779 1.08041   1
   0  13  14 216.932 5.98078   1
   0  13  15 139.195 3.85259   1
   0  13  16 380.283 12.1606   1
   0  13  17 417.071 12.2046   1
   0  13  18  338.34 13.6109   1
   0  13  19 451.297 15.3038   1
   0  13  20 406.142 11.1705   1
   0  13  21 476.831 13.0177   1
   0  13  22 425.174 12.5735   1
   0  13  23 37.1802 2.53653   1
   0  13  24 276.064 8.44752   1
   0  13  25 17.9729 1.81403   1
   0  13  26 186.945 6.67742   1
   0  13  27 69.8226 4.72041   1
   0  13  28  127.09 5.74571   1
   0  13  29 12.8969 4.54797   1
   0  13  30 174.989 9.69354   1
   0  13  31 18.7686 2.85295   1
   0  14   0  154.70 5.06623   1
   0  14   1 649.712 18.2971   1
   0  14   2  107.17 3.22472   1
   0  14   3 578.745 15.7584   1
   0  14   4   25.42 1.49881   1
   0  14   5 467.063 11.9677   1
   0  14   6 116.211 3.38143   1
   0  14   7 408.798 10.5303   1
   0  14   8  6.5994 1.12079   1
   0  14   9 224.705 6.02192   1
   0  14  10 23.0205 1.42152   1
   0  14  11 91.7839 2.84488   1
   0  14  12 11.0262 1.20568   1
   0  14  13 29.5186 1.56878   1
   0  14  14 28.9494 1.58101   1
   0  14  15 2.48308 1.16937   1
   0  14  16 23.9822 1.62045   1
   0  14  17 5.13842 1.61149   1
   0  14  18 3.74185 1.70847   1
   0  14  19 0.52334 1.64066   1
   0  14  20 1.76533 1.59689   1
   0  14  21 8.20282 1.74467   1
   0  14  22  4.2674 1.82677   1
   0  14  23 41.6786 2.36375   1
   0  14  24   0.809 1.87224   1
   0  14  25 23.8637 2.43208   1
   0  14  26 1.35322  2.1179   1
   0  14  27 21.4431 2.57742   1
   0  15   1 20.8025 1.66294   1
   0  15   2 99.6062 3.29999   1
   0  15   3 40.8124 2.02472   1
   0  15   4 79.3177 3.24242   1
   0  15   5  40.891 2.24243   1
   0  15   6 52.8799 2.93149   1
   0  15   7 71.7819 3.46198   1
   0  15   8 11.1321 1.56491   1
   0  15   9 58.4056  2.9701   1
   0  15  10 259.963 8.09924   1
   0  15  11 42.6045 2.11956   1
   0  15  12 646.558 19.3399   1
   0  15  13  77.178 2.89879   1
   0  15  14  376.01 10.9675   1
   0  15  15 63.4605 2.83584   1
   0  15  16 307.727 9.25506   1
   0  15  17  127.50 5.15462   1
   0  15  18 153.504 9.52011   1
   0  15  19 125.646 6.60995   1
   0  15  20 53.9206 3.26761   1
   0  15  21 158.597  8.1599   1
   0  16   0 377.121  16.924   1
   0  16   1 64.7012 3.15128   1
   0  16   2  339.10 11.9418   1
   0  16   3 4.06127  1.9325   1
   0  16   4 346.678 14.7393   1
   0  16   5 31.9242 2.09359   1
   0  16   6 320.339 10.5358   1
   0  16   7 115.238 4.69839   1
   0  16   8 228.172 6.80339   1
   0  16   9 130.094 5.62884   1
   0  16  10 103.602 4.46872   1
   0  16  11 42.6891  2.5077   1
   0  16  12 63.8436 2.88905   1
   0  16  13 3.47228 1.92215   1
   1   0   1 1053.57 23.4198   1
   1   0   2 1674.47 37.2201   1
   1   0   3 776.858 17.2886   1
   1   0   4 337.435 7.58636   1
   1   0   5 590.239 13.2694   1
   1   0   6  2.3636 0.54393   1
   1   0   7 29.8353 1.05206   1
   1   0   8 150.059 3.62243   1
   1   0   9 10.2909 0.93906   1
   1   0  10 55.3957 1.60112   1
   1   0  11 147.838 3.58581   1
   1   0  12 11.9177 1.05583   1
   1   0  13 555.217  12.525   1
   1   0  14 1371.39 30.7693   1
   1   0  15 32.2348 1.72984   1
   1   0  16 3378.64 75.3889   1
   1   0  17 446.894 10.9008   1
   1   0  18 9746.73  218.32   1
   1   0  19 125.652 5.49567   1
   1   0  20 7101.98 160.279   1
   1   0  21 170.443 7.56916   1
   1   0  22 4705.48 105.672   1
   1   0  23 398.974 9.60035   1
   1   0  24 740.194 17.0533   1
   1   0  25 161.926 4.82676   1
   1   0  26 9.87241 3.16701   1
   1   0  27 26.1244 2.71357   1
   1   0  28 8.11961 2.19327   1
   1   0  29 510.271 17.1517   1
   1   0  30 144.694 7.46011   1
   1   0  31 271.288 7.94647   1
   1   0  32 67.1347 2.83484   1
   1   0  33 525.034 13.9602   1
   1   0  34 245.342 7.45366   1
   1   0  35 633.831 16.8128   1
   1   0  36 321.223 9.53842   1
   1   0  38 46.2002 4.06879   1
   1   0  39 133.104 4.12747   1
   1   0  40 59.1459 2.13168   1
   1   0  41 4.35647 1.33493   1
   1   0  42 149.645 4.76619   1
   1   0  43 166.503 5.20423   1
   1   0  44 386.207 10.7453   1
   1   0  45 11.7844 1.53956   1
   1   0  46 176.509 6.07326   1
   1   0  47 3.53146 1.57387   1
   1   0  48 51.8731 2.55953   1
   1   0  49 25.5201 2.10019   1
   1   0  50 90.6222 3.88944   1
   1   0  51 1.97237  2.0742   1
   1   1 -51 41.6238 5.58803   1
   1   1 -50 27.3325 2.15864   1
   1   1 -49 107.067  4.5947   1
   1   1 -48 68.3564 3.39846   1
   1   1 -47 83.0864 3.37495   1
   1   1 -46 153.008 5.47733   1
   1   1 -45 63.2989 3.57323   1
   1   1 -44 67.4327 3.15324   1
   1   1 -43 505.084 14.0016   1
   1   1 -42 97.5372 3.98094   1
   1   1 -41 287.176 8.39948   1
   1   1 -40 213.417 6.53024   1
   1   1 -39 483.817 13.0543   1
   1   1 -38 287.447 8.35189   1
   1   1 -37 455.279 13.7598   1
   1   1 -36 96.9219 3.76487   1
   1   1 -35 352.823 10.5786   1
   1   1 -34 57.5262 1.80368   1
   1   1 -33 64.3941 2.89269   1
   1   1 -32 184.393 5.79847   1
   1   1 -31 116.453 4.13815   1
   1   1 -30 134.685 4.45479   1
   1   1 -29 581.807  13.349   1
   1   1 -28 162.355 4.93686   1
   1   1 -27 539.459 13.1544   1
   1   1 -26 297.283 7.76523   1
   1   1 -25 986.157 22.5239   1
   1   1 -24 315.444  7.6759   1
   1   1 -23 992.707 22.5051   1
   1   1 -22 427.215 9.91575   1
   1   1 -21 205.662 5.18979   1
   1   1 -20 113.141 2.85936   1
   1   1 -19 208.514 5.19293   1
   1   1 -18 289.427 6.81364   1
   1   1 -17 640.103 14.3973   1
   1   1 -16  975.20 21.8601   1
   1   1 -15 925.921 20.8416   1
   1   1 -14 697.726 15.7661   1
   1   1 -13 764.537 17.3019   1
   1   1 -12 733.969 16.4701   1
   1   1 -11 2002.44 45.6643   1
   1   1 -10 1777.68 40.3926   1
   1   1  -9 665.416 15.3601   1
   1   1  -8 1274.95 28.7008   1
   1   1  -7 861.475 19.8182   1
   1   1  -6 986.333 23.6203   1
   1   1  -5 177.672  4.0667   1
   1   1  -4  64.866 1.90387   1
   1   1  -3 8595.59  263.10   1
   1   1  -2 3465.36 76.5327   1
   1   1  -1 3180.07 69.9736   1
   1   1   0 1961.55 44.0473   1
   1   1   1 3222.71 72.1712   1
   1   1   2 3402.64 76.6285   1
   1   1   4 75.8195 2.00675   1
   1   1   5 186.905  4.2434   1
   1   1   6 974.544 21.8609   1
   1   1   7 876.001 19.5481   1
   1   1   8 1248.55 27.9529   1
   1   1   9 670.051 14.9925   1
   1   1  10 1733.72 38.7432   1
   1   1  11 2048.92 46.4896   1
   1   1  12 684.466 15.7732   1
   1   1  13 816.236 18.8771   1
   1   1  14 693.818 15.9118   1
   1   1  15 925.368  20.827   1
   1   1  16 978.402 22.3753   1
   1   1  17 641.107 14.5168   1
   1   1  18 281.802  6.4338   1
   1   1  19 219.109 5.51853   1
   1   1  20 114.641 3.20792   1
   1   1  21 203.739 5.01043   1
   1   1  22 408.424 9.48947   1
   1   1  23 1064.97 24.4195   1
   1   1  24 304.352 7.80745   1
   1   1  25 984.026 22.8901   1
   1   1  26 285.825  11.789   1
   1   1  27 515.009 14.7936   1
   1   1  28 136.371 4.98091   1
   1   1  29 619.582 15.4252   1
   1   1  30 143.909   3.774   1
   1   1  31 101.632 2.77589   1
   1   1  32 187.326 5.28412   1
   1   1  33   58.43  1.9711   1
   1   1  34 55.7494 2.00765   1
   1   1  35 363.474 10.2997   1
   1   1  36 108.144  3.4333   1
   1   1  37 447.227 22.7057   1
   1   1  38 296.629 8.58814   1
   1   1  39 485.096 13.4396   1
   1   1  40 211.917 8.46018   1
   1   1  41 285.534 9.14535   1
   1   1  42 96.7283 3.06686   1
   1   1  43 495.923 13.0596   1
   1   1  44 71.5727 2.76421   1
   1   1  45 63.7693 2.77553   1
   1   1  46 151.096 5.02592   1
   1   1  47 87.6622 4.61378   1
   1   1  48 68.9768  3.0931   1
   1   1  49 107.666 4.43313   1
   1   1  50  28.776 2.48083   1
   1   1  51  40.206 3.73156   1
   1   2 -50   80.46 3.69669   1
   1   2 -49 301.003 11.2518   1
   1   2 -48 45.2516 3.30316   1
   1   2 -47 162.094 6.72912   1
   1   2 -46 34.1006  3.0973   1
   1   2 -45  23.042 1.88629   1
   1   2 -44 54.3263 3.57403   1
   1   2 -43 9.35872 1.76862   1
   1   2 -42 33.9246 2.43721   1
   1   2 -41 34.1045   3.057   1
   1   2 -40 109.231 5.68309   1
   1   2 -39 56.5664 1.95851   1
   1   2 -38 297.414 8.05086   1
   1   2 -37 97.9924 3.19611   1
   1   2 -36 190.851 5.57624   1
   1   2 -35 70.2472 2.92077   1
   1   2 -34 457.833 10.9262   1
   1   2 -33 10.0843 1.00631   1
   1   2 -32 337.278 8.14781   1
   1   2 -31  67.336 1.92002   1
   1   2 -30 71.1936 2.52881   1
   1   2 -29 175.212 4.87367   1
   1   2 -28 266.302 6.58899   1
   1   2 -27 906.663 21.0521   1
   1   2 -26  291.49 7.14386   1
   1   2 -25 761.334 17.5081   1
   1   2 -24  262.58 6.38869   1
   1   2 -23 735.364 17.0917   1
   1   2 -22 223.192 5.61991   1
   1   2 -21 1186.25  27.001   1
   1   2 -20 229.605 5.45306   1
   1   2 -19 1491.51 33.5663   1
   1   2 -18 463.908 10.8841   1
   1   2 -17 2048.32  46.302   1
   1   2 -16 146.216  3.6394   1
   1   2 -15 2952.69 66.1491   1
   1   2 -14 908.865 20.4046   1
   1   2 -13 2599.31 58.4102   1
   1   2 -12 841.982  19.043   1
   1   2 -11 2673.75 61.6866   1
   1   2 -10 64.5445 1.94492   1
   1   2  -9 979.979 22.2007   1
   1   2  -8 451.862 10.2357   1
   1   2  -7 46.6474 1.62509   1
   1   2  -6 2255.83 50.3904   1
   1   2  -5 853.106 19.0123   1
   1   2  -4 478.428 10.7227   1
   1   2  -3 2214.06 49.2667   1
   1   2  -2 1670.54 36.9011   1
   1   2  -1 980.024 22.1202   1
   1   2   0 7224.90 191.954   1
   1   2   1 936.445 20.8096   1
   1   2   2 1564.45 34.6289   1
   1   2   3 2235.04 49.3305   1
   1   2   4  529.27 11.8885   1
   1   2   5 868.938  19.742   1
   1   2   6 2205.18 49.6911   1
   1   2   7 52.7826 1.70964   1
   1   2   8 482.046 10.9688   1
   1   2   9 928.533 20.7965   1
   1   2  10 78.6516 2.05924   1
   1   2  11 2654.44 59.3201   1
   1   2  12 854.959 19.4142   1
   1   2  13 2625.97 58.8986   1
   1   2  14 921.205 20.8085   1
   1   2  15 2889.27 69.4438   1
   1   2  16  137.38 3.66549   1
   1   2  17 2091.77 46.6242   1
   1   2  18 456.326   10.57   1
   1   2  19 1514.00 33.8079   1
   1   2  20 209.297 5.52416   1
   1   2  21 1197.74 26.9347   1
   1   2  22  210.03 5.09561   1
   1   2  23 736.857 16.7159   1
   1   2  24 245.801 6.13103   1
   1   2  25 785.283 18.5797   1
   1   2  26 287.441 7.12065   1
   1   2  27 923.273 21.2033   1
   1   2  28 268.224 7.01447   1
   1   2  29 167.597 4.74024   1
   1   2  30  78.338 2.60814   1
   1   2  31  68.249 2.43605   1
   1   2  32 332.711 11.3281   1
   1   2  33 7.50289 2.11919   1
   1   2  34 466.879 12.5784   1
   1   2  35 73.1435  2.3672   1
   1   2  36 193.739 11.3741   1
   1   2  37 93.3115 4.17393   1
   1   2  38 299.322 8.70012   1
   1   2  39 62.7897 2.32446   1
   1   2  40 102.668  3.2908   1
   1   2  41 35.9785 1.75488   1
   1   2  42 27.3606 1.66783   1
   1   2  43  11.112  1.3818   1
   1   2  44 59.2438 2.37397   1
   1   2  45 25.1759 1.75371   1
   1   2  46 35.5728  2.1774   1
   1   2  47 157.254 5.93801   1
   1   2  48  42.427 2.67022   1
   1   2  49 314.365 11.3809   1
   1   2  50 93.5692 4.37646   1
   1   3 -50 138.641 6.02116   1
   1   3 -49 6.62231 2.95784   1
   1   3 -48 564.825 24.8936   1
   1   3 -47  122.77 4.42457   1
   1   3 -46  693.97 22.6003   1
   1   3 -45 79.2387 3.42172   1
   1   3 -44 377.932 10.7656   1
   1   3 -43 69.6997  3.4292   1
   1   3 -42 164.126 5.49045   1
   1   3 -41 63.0401 2.52105   1
   1   3 -40 6.48823 1.24459   1
   1   3 -39 22.8438 1.22873   1
   1   3 -38 4.69859 1.05378   1
   1   3 -37 2.71769 1.22856   1
   1   3 -36 133.531 4.40196   1
   1   3 -35 56.0554  2.1509   1
   1   3 -34 975.578 23.4418   1
   1   3 -33 99.5739 4.54297   1
   1   3 -32 1462.68  34.896   1
   1   3 -31 169.255 4.91808   1
   1   3 -30 1646.08 38.4333   1
   1   3 -29 11.6118 2.16734   1
   1   3 -28 1245.76 28.3911   1
   1   3 -27 367.388 9.29286   1
   1   3 -26 693.069 16.1092   1
   1   3 -25 272.319 6.78302   1
   1   3 -24 23.5984 1.77382   1
   1   3 -23 37.1875 2.23951   1
   1   3 -22 61.0705 2.25497   1
   1   3 -21 508.139 11.9606   1
   1   3 -20 147.948 4.09963   1
   1   3 -19 644.061 14.5777   1
   1   3 -18 216.201 5.43349   1
   1   3 -17 34.9004 1.27505   1
   1   3 -16 62.9276 1.78094   1
   1   3 -15 458.096 10.3609   1
   1   3 -14 250.559 5.75342   1
   1   3 -13 331.689 7.61204   1
   1   3 -12 1042.02 23.4925   1
   1   3 -11 469.686 10.7871   1
   1   3 -10 6473.03 149.068   1
   1   3  -9 243.345 5.66408   1
   1   3  -8 6492.74 145.335   1
   1   3  -7 1506.65 33.9971   1
   1   3  -6 3995.14 88.4903   1
   1   3  -5 640.304 14.3464   1
   1   3  -4 2677.08 59.0853   1
   1   3  -3  415.77 9.37691   1
   1   3  -2 64.8366  2.0209   1
   1   3  -1 1315.30 29.2395   1
   1   3   0 517.882 11.6306   1
   1   3   1 1293.65 29.0471   1
   1   3   2 90.4952 2.37409   1
   1   3   3 389.227 8.84803   1
   1   3   4 2699.21 60.2245   1
   1   3   5 644.958 14.4778   1
   1   3   6 3950.30 88.0085   1
   1   3   7 1493.29 33.0281   1
   1   3   8 6564.64 148.728   1
   1   3   9 258.665 5.92584   1
   1   3  10 6514.10  145.17   1
   1   3  11  481.27 10.9341   1
   1   3  12 1040.84 23.4666   1
   1   3  13 316.929 7.35366   1
   1   3  14 239.407 5.51411   1
   1   3  15 487.891 11.0181   1
   1   3  16 62.8486 1.62807   1
   1   3  17  32.595  1.1182   1
   1   3  18 223.602  5.1977   1
   1   3  19 663.119 15.1646   1
   1   3  20 155.442 3.78515   1
   1   3  21 481.451 11.0435   1
   1   3  22  59.142 1.98248   1
   1   3  23 27.5294 1.54097   1
   1   3  24 27.2894 1.88921   1
   1   3  25 281.967 7.14827   1
   1   3  26 688.554 16.1178   1
   1   3  27 351.984 8.24773   1
   1   3  28 1253.36 29.9124   1
   1   3  29 15.5803 1.35058   1
   1   3  30 1656.08 38.4577   1
   1   3  31 173.066 5.22409   1
   1   3  32 1475.85  34.474   1
   1   3  33 96.3888 4.84615   1
   1   3  34 990.617 26.1366   1
   1   3  35  57.806 2.29967   1
   1   3  36 125.957 4.77623   1
   1   3  37 2.71713 1.16359   1
   1   3  38 8.92277 1.78408   1
   1   3  39 27.5113 2.67021   1
   1   3  40 13.1355 4.20984   1
   1   3  41 65.0126  2.6858   1
   1   3  42 159.205 5.23852   1
   1   3  43 65.7027 3.22793   1
   1   3  44 389.196 12.4873   1
   1   3  45 83.8299 3.46287   1
   1   3  46 690.477 23.5508   1
   1   3  47 121.192 4.91199   1
   1   3  48  570.75 20.1724   1
   1   3  49 9.84554 2.30284   1
   1   3  50 142.394 6.75421   1
   1   4 -49 190.945  7.7097   1
   1   4 -48 102.138 4.44432   1
   1   4 -47 202.374 7.12078   1
   1   4 -46 127.397 6.72005   1
   1   4 -45 8.59075 2.22681   1
   1   4 -44 7.91429 1.62031   1
   1   4 -43 43.7152 2.41153   1
   1   4 -42 30.6226 2.11211   1
   1   4 -41 32.2224 1.84021   1
   1   4 -40 172.086 5.26527   1
   1   4 -39  111.55  3.6518   1
   1   4 -38 66.4058 2.14637   1
   1   4 -37 169.523 4.76842   1
   1   4 -36   51.44 1.94367   1
   1   4 -35  134.57 3.64841   1
   1   4 -34 106.758 3.41016   1
   1   4 -33 51.3718 2.06761   1
   1   4 -32 84.9028  2.8084   1
   1   4 -31 135.609 3.56263   1
   1   4 -30 64.4736 2.62918   1
   1   4 -29 473.709 10.8379   1
   1   4 -28 68.3664 2.50307   1
   1   4 -27  476.57 11.4138   1
   1   4 -26 469.806 10.8158   1
   1   4 -25 619.912 14.4151   1
   1   4 -24 418.248 9.78676   1
   1   4 -23 384.937 9.22338   1
   1   4 -22 422.142 10.0866   1
   1   4 -21 433.573  10.389   1
   1   4 -20 419.311 9.89691   1
   1   4 -19 20.7954 1.17342   1
   1   4 -18 610.152 14.0882   1
   1   4 -17 569.351 13.1961   1
   1   4 -16 1443.36 32.7327   1
   1   4 -15 2212.03 52.3957   1
   1   4 -14 914.691 20.8031   1
   1   4 -13 1543.05 34.7475   1
   1   4 -12 872.857 19.7081   1
   1   4 -11 1278.88 29.2377   1
   1   4 -10 1028.39 23.1483   1
   1   4  -9 1958.80 43.7672   1
   1   4  -8 684.726 15.4937   1
   1   4  -7  505.41   11.45   1
   1   4  -6  235.23 5.42887   1
   1   4  -5 335.302 7.65945   1
   1   4  -4 213.386 4.96432   1
   1   4  -3  438.50 10.0546   1
   1   4  -2 666.874 15.0287   1
   1   4  -1 1279.69 28.5242   1
   1   4   0 302.127 7.08601   1
   1   4   1 1279.50 28.7096   1
   1   4   2 652.529 15.0392   1
   1   4   3 444.817 10.4243   1
   1   4   4 232.644 5.43395   1
   1   4   5 309.716  7.0714   1
   1   4   6 234.281 5.37678   1
   1   4   7 504.449 11.4098   1
   1   4   8 711.757 16.0015   1
   1   4   9 1933.31 43.5491   1
   1   4  10 1002.68 22.5296   1
   1   4  11 1283.82 28.8033   1
   1   4  12 905.865 20.2747   1
   1   4  13 1571.56 35.7475   1
   1   4  14 923.824 20.7892   1
   1   4  15 2225.72  50.305   1
   1   4  16 1433.43 32.3546   1
   1   4  17 565.561 12.8725   1
   1   4  18 620.013 14.0907   1
   1   4  19 21.9495 1.50344   1
   1   4  20 406.595 9.34784   1
   1   4  21 458.742  10.726   1
   1   4  22 428.948 9.93756   1
   1   4  23 386.733 8.93366   1
   1   4  24  428.43 10.0613   1
   1   4  25 607.384 14.1742   1
   1   4  26 474.467 11.1575   1
   1   4  27 492.464 11.4589   1
   1   4  28 69.8204 2.10026   1
   1   4  29 476.315  11.182   1
   1   4  30 68.1003 1.95806   1
   1   4  31 127.396 3.23031   1
   1   4  32 84.2741 3.34619   1
   1   4  33 55.2785 1.97142   1
   1   4  34  103.13  3.3207   1
   1   4  35 140.061 4.42838   1
   1   4  36 49.0579 2.18656   1
   1   4  37 166.339 6.06002   1
   1   4  38 59.6861 2.87499   1
   1   4  39 109.193 3.40638   1
   1   4  40 182.592 5.43534   1
   1   4  41 29.7847 2.17495   1
   1   4  42 29.4521 2.46788   1
   1   4  43 36.9129 2.86744   1
   1   4  44 12.0354 1.59874   1
   1   4  45 8.62185 1.80374   1
   1   4  46 109.422 4.78831   1
   1   4  47 207.426 7.26714   1
   1   4  48 101.281   5.224   1
   1   4  49 200.014 7.52063   1
   1   5 -48 32.8499 2.28466   1
   1   5 -47 82.1127 4.44811   1
   1   5 -46 44.2903 2.37979   1
   1   5 -45 400.228 12.6074   1
   1   5 -44 61.4394 2.84194   1
   1   5 -43 266.157 7.92223   1
   1   5 -42 106.837  3.3484   1
   1   5 -41 306.016 8.81975   1
   1   5 -40 162.735 4.46908   1
   1   5 -39 496.242 13.1751   1
   1   5 -38 83.9895  2.9859   1
   1   5 -37 356.794 9.26686   1
   1   5 -36 87.1798 2.67133   1
   1   5 -35 169.554 4.57394   1
   1   5 -34 61.0663 2.78495   1
   1   5 -33 233.036 5.98072   1
   1   5 -32 156.031 3.93257   1
   1   5 -31 344.425 8.12897   1
   1   5 -30 296.731 7.00305   1
   1   5 -29 256.047 6.00953   1
   1   5 -28 226.529 5.88213   1
   1   5 -27 746.873 16.5915   1
   1   5 -26 110.704 2.93572   1
   1   5 -25 1613.73 36.6977   1
   1   5 -24 636.146 15.1812   1
   1   5 -23 454.503 10.8454   1
   1   5 -22 88.9743 3.26263   1
   1   5 -21 375.634 9.37781   1
   1   5 -20 13.5809 1.50617   1
   1   5 -19 3.29545 1.56205   1
   1   5 -18 167.614   4.375   1
   1   5 -17 148.072 3.79279   1
   1   5 -16 69.8916 2.04101   1
   1   5 -15 1204.54 27.2515   1
   1   5 -14  64.922    1.97   1
   1   5 -13 2044.15 45.4738   1
   1   5 -12 35.4761 1.28117   1
   1   5 -11 953.123 21.4681   1
   1   5 -10 266.824 6.17684   1
   1   5  -9 963.252 21.9506   1
   1   5  -8 534.094 12.0474   1
   1   5  -7 1075.46 23.9923   1
   1   5  -6 105.492 2.58326   1
   1   5  -5 1406.38 31.6303   1
   1   5  -4 545.268 12.5951   1
   1   5  -3 367.636 8.31242   1
   1   5  -2 505.412  11.456   1
   1   5  -1 1801.92  41.106   1
   1   5   0 357.355 8.29134   1
   1   5   1 1826.26 41.4464   1
   1   5   2 511.283 11.5358   1
   1   5   3 391.882 9.01858   1
   1   5   4 567.375 13.0804   1
   1   5   5 1417.69 31.8657   1
   1   5   6 117.857 2.86983   1
   1   5   7 1038.75 23.4601   1
   1   5   8 534.946 12.0954   1
   1   5   9 973.392  21.985   1
   1   5  10 273.121 6.22609   1
   1   5  11 957.729 21.4793   1
   1   5  12 33.6443 1.19973   1
   1   5  13 2067.21 50.9587   1
   1   5  14 56.7895 1.57534   1
   1   5  15 1211.63 27.1861   1
   1   5  16 59.0969 1.54581   1
   1   5  17 159.884 3.90747   1
   1   5  18  169.41 4.33264   1
   1   5  19 1.38951 1.46319   1
   1   5  20 14.1591 0.84726   1
   1   5  21 377.874 8.84023   1
   1   5  22  86.014 2.48386   1
   1   5  23 461.349 10.6921   1
   1   5  24 665.879 15.3633   1
   1   5  25 1629.69 37.2006   1
   1   5  26 104.779 2.90711   1
   1   5  27 761.912 17.3922   1
   1   5  28 212.688 5.31495   1
   1   5  29 272.281 6.78896   1
   1   5  30  289.86 6.93062   1
   1   5  31 349.434   8.261   1
   1   5  32 153.328 4.18464   1
   1   5  33 219.673 5.55197   1
   1   5  34 51.1759 2.00097   1
   1   5  35 167.892 4.69974   1
   1   5  36 88.2884 3.21661   1
   1   5  37 348.073 9.47699   1
   1   5  38  84.476 2.87225   1
   1   5  39 497.923 15.2724   1
   1   5  40 164.024 5.50871   1
   1   5  41 308.397 10.0922   1
   1   5  42 110.711 6.36901   1
   1   5  43 258.276 8.42952   1
   1   5  44  66.376 4.54351   1
   1   5  45 392.309 15.5574   1
   1   5  46 49.0463 3.10128   1
   1   5  47 78.4366 4.17298   1
   1   5  48 42.5629 3.33676   1
   1   6 -47  24.941  2.3868   1
   1   6 -46 81.0221 3.69407   1
   1   6 -45 82.6666 3.93549   1
   1   6 -44 189.927 6.31963   1
   1   6 -43 80.5176 3.66265   1
   1   6 -42  297.63 8.41008   1
   1   6 -41 62.8853 2.35288   1
   1   6 -40 38.3138 1.79725   1
   1   6 -39  51.069 2.03998   1
   1   6 -38 40.4812 1.97674   1
   1   6 -37 45.1262  2.0172   1
   1   6 -36 126.323 3.46848   1
   1   6 -35 88.6705 2.91359   1
   1   6 -34 289.609 7.40953   1
   1   6 -33 49.4359 1.73359   1
   1   6 -32 19.2257 1.35035   1
   1   6 -31 94.5507 2.64978   1
   1   6 -30 11.9552  0.9925   1
   1   6 -29 114.579 2.96857   1
   1   6 -28 35.8373  1.1419   1
   1   6 -27 19.7904  1.2076   1
   1   6 -26 16.2491 1.06966   1
   1   6 -25 55.6582 1.58359   1
   1   6 -24 588.303 13.7507   1
   1   6 -23 159.139 4.45191   1
   1   6 -22 1534.15 37.3618   1
   1   6 -21 200.941 8.14715   1
   1   6 -20 4029.23 103.733   1
   1   6 -19 187.839 6.18907   1
   1   6 -18 2711.08 65.5145   1
   1   6 -17 346.684 8.37055   1
   1   6 -16 1795.04 40.9573   1
   1   6 -15 603.329 14.5525   1
   1   6 -14 357.305 8.28203   1
   1   6 -13 294.199 6.95152   1
   1   6 -12 48.1648 1.67289   1
   1   6 -11  73.823 2.11267   1
   1   6 -10 135.159 3.36118   1
   1   6  -9 424.554 9.64004   1
   1   6  -8 234.183 5.49336   1
   1   6  -7  633.56 14.3496   1
   1   6  -6 952.726 21.7013   1
   1   6  -5 281.008 6.61759   1
   1   6  -4 1393.70 31.3486   1
   1   6  -3 888.212  20.241   1
   1   6  -2 1042.66 23.4519   1
   1   6  -1 102.641 2.50286   1
   1   6   0 494.573 11.1843   1
   1   6   1 107.084 2.57934   1
   1   6   2 1044.54 23.3769   1
   1   6   3 891.505 20.2308   1
   1   6   4 1415.63 31.8306   1
   1   6   5 303.167 7.10601   1
   1   6   6 941.242 21.2675   1
   1   6   7 642.301  14.571   1
   1   6   8 233.794 5.62724   1
   1   6   9 420.509 9.56912   1
   1   6  10 150.574 3.65492   1
   1   6  11 82.5611 2.17339   1
   1   6  12 54.1868 1.63092   1
   1   6  13 306.644 7.32199   1
   1   6  14 365.221 8.39908   1
   1   6  15 575.478  13.127   1
   1   6  16 1838.87 41.7397   1
   1   6  17 347.155 8.38129   1
   1   6  18 2681.23 64.4233   1
   1   6  19 178.928 4.58625   1
   1   6  20 4065.54 110.054   1
   1   6  21 196.795 5.24473   1
   1   6  22 1597.81 36.1237   1
   1   6  23 157.425 3.92971   1
   1   6  24 555.921 12.9587   1
   1   6  25  54.047 2.09018   1
   1   6  26 16.4509 0.88492   1
   1   6  27 23.3688 1.02248   1
   1   6  28 43.2655 1.56967   1
   1   6  29 107.878 3.20553   1
   1   6  30 9.80203 0.87739   1
   1   6  31  86.639 2.40441   1
   1   6  32 18.3016 1.15155   1
   1   6  33 41.5442 2.29708   1
   1   6  34 283.076 7.31296   1
   1   6  35 84.9969 3.96693   1
   1   6  36 128.427 5.87885   1
   1   6  37 41.1502 1.78763   1
   1   6  38 38.8238  1.8273   1
   1   6  39 48.1326 2.32574   1
   1   6  40 37.2229 2.52409   1
   1   6  41  68.492 3.82297   1
   1   6  42 319.348 10.2449   1
   1   6  43 86.8828 3.78296   1
   1   6  44 199.515 8.28005   1
   1   6  45  80.294 4.06041   1
   1   6  46 81.2105 4.43089   1
   1   6  47 24.4932 2.83643   1
   1   7 -46 105.229 5.57153   1
   1   7 -45  55.775 4.67431   1
   1   7 -44 142.899 5.52478   1
   1   7 -43 70.7047 4.98676   1
   1   7 -42 263.581 7.66035   1
   1   7 -41 474.906 13.8482   1
   1   7 -40  352.60 9.89933   1
   1   7 -39 523.983 14.8881   1
   1   7 -38 236.499 6.66306   1
   1   7 -37 391.337 10.8251   1
   1   7 -36 177.799 5.19197   1
   1   7 -35  135.29  4.2874   1
   1   7 -34 174.652 4.67266   1
   1   7 -33 106.089 3.39534   1
   1   7 -32 82.0532 2.88585   1
   1   7 -31 92.7908  2.6402   1
   1   7 -30  140.13 9.50445   1
   1   7 -29 270.431 6.95534   1
   1   7 -28 396.372 9.79388   1
   1   7 -27 455.954 10.7978   1
   1   7 -26 382.375  8.7428   1
   1   7 -25 454.536 11.5681   1
   1   7 -24 220.266 5.75108   1
   1   7 -23 452.936 11.0213   1
   1   7 -22 497.773 11.5399   1
   1   7 -21  184.21 4.99879   1
   1   7 -20 304.921 7.40604   1
   1   7 -19 41.2348 1.68457   1
   1   7 -18 229.578 5.77323   1
   1   7 -17 287.393  7.0982   1
   1   7 -16 284.938 6.89239   1
   1   7 -15 164.509 4.32022   1
   1   7 -14  98.801 2.97817   1
   1   7 -13 354.854 8.37974   1
   1   7 -12 786.064 17.9783   1
   1   7 -11 182.371 4.61286   1
   1   7 -10 865.474 19.6869   1
   1   7  -9 236.029  5.7139   1
   1   7  -8 347.728 8.03525   1
   1   7  -7 53.1688 2.04643   1
   1   7  -6 378.209 8.91742   1
   1   7  -5 255.554 5.95313   1
   1   7  -4 843.873 19.1947   1
   1   7  -3 1231.11 27.7224   1
   1   7  -2 537.804 12.3265   1
   1   7  -1 1459.60  32.664   1
   1   7   0 657.513 15.2897   1
   1   7   1 1438.15 32.2862   1
   1   7   2 549.091 12.5587   1
   1   7   3 1250.64 28.2649   1
   1   7   4 813.015 18.4027   1
   1   7   5 256.648 6.14515   1
   1   7   6 389.164 8.96599   1
   1   7   7 64.7412 1.97685   1
   1   7   8 332.347 7.72995   1
   1   7   9  247.91 5.88886   1
   1   7  10 868.323  19.688   1
   1   7  11 176.528 4.45988   1
   1   7  12 791.683 18.1407   1
   1   7  13 363.835 8.59904   1
   1   7  14 105.688 3.16158   1
   1   7  15 150.308 4.02941   1
   1   7  16 302.221 7.54523   1
   1   7  17 277.446 6.87215   1
   1   7  18 248.559  6.2361   1
   1   7  19 41.3301 1.32402   1
   1   7  20 284.025 7.20409   1
   1   7  21 199.294 4.63098   1
   1   7  22 495.095 11.4997   1
   1   7  23 453.496 11.1773   1
   1   7  24 233.603 5.75348   1
   1   7  25 436.154 10.3115   1
   1   7  26 374.408  8.8077   1
   1   7  27 441.556 10.4239   1
   1   7  28 410.223  9.7765   1
   1   7  29 256.264  6.7343   1
   1   7  30 157.969 4.29643   1
   1   7  31 84.6402 2.80592   1
   1   7  32 80.9483 2.52055   1
   1   7  33  89.805 2.65659   1
   1   7  34 165.109 5.17033   1
   1   7  35 134.338 3.93498   1
   1   7  36 177.746 5.63184   1
   1   7  37 403.047 11.5917   1
   1   7  38 230.232 6.87707   1
   1   7  39 526.188 14.8347   1
   1   7  40 353.912 14.2125   1
   1   7  41 458.718 13.9502   1
   1   7  42  253.15 8.12931   1
   1   7  43 75.4745 5.23064   1
   1   7  44 145.563 7.66736   1
   1   7  45 49.3798 4.09897   1
   1   7  46 113.977 6.86481   1
   1   8 -44 14.1033 2.05434   1
   1   8 -43 15.1798 1.99572   1
   1   8 -42 45.9121 2.85748   1
   1   8 -41 6.19258 1.79713   1
   1   8 -40 135.391 4.74531   1
   1   8 -39 23.2483 2.36293   1
   1   8 -38 46.0334 2.68928   1
   1   8 -37 19.2156 1.63964   1
   1   8 -36 41.5013 3.00525   1
   1   8 -35 18.7535 1.81849   1
   1   8 -34 55.2383  2.3128   1
   1   8 -33  13.823 1.69829   1
   1   8 -32 76.9827 2.38824   1
   1   8 -31 8.36445 1.03444   1
   1   8 -30 170.408 4.76833   1
   1   8 -29 260.246 6.83152   1
   1   8 -28 86.6028 2.95807   1
   1   8 -27  367.90 14.1139   1
   1   8 -26 53.5246  2.0688   1
   1   8 -25 612.028 13.9626   1
   1   8 -24 66.6727 2.09769   1
   1   8 -23 637.694 15.1258   1
   1   8 -22 40.7493 1.80873   1
   1   8 -21 1060.23 25.3001   1
   1   8 -20 41.7892 1.72518   1
   1   8 -19 1295.26 30.0865   1
   1   8 -18 115.019 3.02454   1
   1   8 -17  869.61 19.6066   1
   1   8 -16 131.345 3.97635   1
   1   8 -15 1414.18 32.6229   1
   1   8 -14 6.27352  1.2774   1
   1   8 -13 1482.19 33.4825   1
   1   8 -12 49.2767 2.11081   1
   1   8 -11 1017.35 23.4155   1
   1   8 -10 66.1067 2.96511   1
   1   8  -9 292.179 7.11003   1
   1   8  -8 272.999 6.62347   1
   1   8  -7 92.6285 2.66095   1
   1   8  -6 516.957 12.0578   1
   1   8  -5 3.29038 1.14535   1
   1   8  -4 299.561 7.17937   1
   1   8  -3 11.5935 1.34915   1
   1   8  -2 238.751 5.82329   1
   1   8  -1 36.6813 1.71291   1
   1   8   0 711.158 16.3119   1
   1   8   1 38.1137  1.5818   1
   1   8   2 257.018 6.13392   1
   1   8   3 13.5578 1.70303   1
   1   8   4 283.012 6.73817   1
   1   8   5 4.62362 1.24376   1
   1   8   6  529.41 12.4473   1
   1   8   7 84.8884 2.71652   1
   1   8   8 285.145   7.077   1
   1   8   9 289.148  7.0085   1
   1   8  10 68.4065 2.62145   1
   1   8  11 1046.68 23.9488   1
   1   8  12 45.9306 2.08902   1
   1   8  13 1492.19 34.4287   1
   1   8  14 6.49339 1.62882   1
   1   8  15 1414.65 32.8565   1
   1   8  16 131.664 3.71644   1
   1   8  17 890.692 20.9943   1
   1   8  18 115.746 3.86828   1
   1   8  19 1271.06 29.0498   1
   1   8  20 46.2133 2.31861   1
   1   8  21 1063.46 26.4781   1
   1   8  22 43.2167 2.02307   1
   1   8  23 604.817 14.1885   1
   1   8  24  66.279 2.08606   1
   1   8  25 596.961 14.4587   1
   1   8  26  53.115 1.95692   1
   1   8  27 390.307 11.6447   1
   1   8  28 78.3899 2.91249   1
   1   8  29 261.077 6.80036   1
   1   8  30 157.907 4.51631   1
   1   8  31 11.5935 1.39103   1
   1   8  32 82.3341 4.36492   1
   1   8  33 16.1609 2.63201   1
   1   8  34 62.2274 2.52871   1
   1   8  35 20.0808 2.01543   1
   1   8  36 44.8198 2.29232   1
   1   8  37 21.7381 1.89839   1
   1   8  38 49.2055 3.09646   1
   1   8  39 16.1595 2.55639   1
   1   8  40 139.333 6.99839   1
   1   8  41 0.40138 3.16313   1
   1   8  42 43.3653 3.83349   1
   1   8  43 17.0034 3.54688   1
   1   8  44  13.017  2.9198   1
   1   9 -42 48.5213 2.89326   1
   1   9 -41 61.3213 3.02249   1
   1   9 -40 51.0505 2.42739   1
   1   9 -39 65.3303 2.81951   1
   1   9 -38 68.8763 3.95079   1
   1   9 -37 43.8245 3.29695   1
   1   9 -36 97.4804 4.48824   1
   1   9 -35 17.5194 2.53942   1
   1   9 -34 401.928 12.1603   1
   1   9 -33 77.6075 3.35903   1
   1   9 -32 1093.52 29.7169   1
   1   9 -31 89.5002 2.86009   1
   1   9 -30 610.083 15.6309   1
   1   9 -29 111.885 4.60489   1
   1   9 -28 406.483 11.0122   1
   1   9 -27 152.643 5.48969   1
   1   9 -26  114.31 3.47725   1
   1   9 -25 177.048 5.11739   1
   1   9 -24 84.2674 4.39698   1
   1   9 -23 186.816 5.74921   1
   1   9 -22 16.8285 1.19132   1
   1   9 -21 312.961 8.24054   1
   1   9 -20  4.9244 1.01463   1
   1   9 -19  68.814 2.01565   1
   1   9 -18 76.4112 1.99876   1
   1   9 -17 160.824 4.67319   1
   1   9 -16 251.814  6.0076   1
   1   9 -15  160.44 4.39618   1
   1   9 -14 32.3875 1.39147   1
   1   9 -13 192.792 4.51302   1
   1   9 -12 371.843 8.74937   1
   1   9 -11 237.939 6.10122   1
   1   9 -10  875.90 19.9311   1
   1   9  -9 188.574 4.43464   1
   1   9  -8 1611.91 36.2889   1
   1   9  -7 364.489 8.51273   1
   1   9  -6 1877.45 42.9862   1
   1   9  -5  336.15 8.04458   1
   1   9  -4 787.042 18.1019   1
   1   9  -3 105.106 2.86558   1
   1   9  -2 75.3311 2.35223   1
   1   9  -1 90.9379 2.58288   1
   1   9   0 88.9079 2.78281   1
   1   9   1 96.7268  3.0117   1
   1   9   2 75.7975 2.31327   1
   1   9   3 95.3622  2.6656   1
   1   9   4 792.658 18.2256   1
   1   9   5 317.283 7.55568   1
   1   9   6 1858.87  43.026   1
   1   9   7  353.47 8.36556   1
   1   9   8 1599.10  36.189   1
   1   9   9 200.627 5.11493   1
   1   9  10 862.971  19.833   1
   1   9  11 237.172 5.48387   1
   1   9  12 359.543 8.33954   1
   1   9  13 204.391 4.81765   1
   1   9  14  35.868 1.48374   1
   1   9  15 160.962 3.99969   1
   1   9  16 257.199 6.23027   1
   1   9  17 171.538 5.19518   1
   1   9  18 79.8429 2.53616   1
   1   9  19 62.5343 1.95011   1
   1   9  20 2.17047 0.80771   1
   1   9  21 319.757 8.01418   1
   1   9  22 16.7346 1.18659   1
   1   9  23  180.52  6.4679   1
   1   9  24 84.0378 4.14753   1
   1   9  25 176.683 6.17798   1
   1   9  26 109.806 3.43807   1
   1   9  27 161.644 4.48011   1
   1   9  28 402.421 10.8201   1
   1   9  29 111.474 5.63709   1
   1   9  30 599.493 15.8002   1
   1   9  31 87.9948 3.52047   1
   1   9  32 1103.23 32.5988   1
   1   9  33 72.7173  5.0904   1
   1   9  34 406.085 12.8533   1
   1   9  35 18.4814 2.37329   1
   1   9  36 108.668  4.4032   1
   1   9  37  44.908 2.49104   1
   1   9  38 68.8116 3.19003   1
   1   9  39 64.6101 3.15336   1
   1   9  40 56.4416 6.20317   1
   1   9  41 58.1843 5.71318   1
   1   9  42 51.6333 4.75184   1
   1  10 -40 21.1123 2.20728   1
   1  10 -39 64.0637 3.09809   1
   1  10 -38 13.6302 2.14347   1
   1  10 -37 166.227 5.68746   1
   1  10 -36 3.39407 1.70154   1
   1  10 -35 81.0493  3.1884   1
   1  10 -34  4.6501 1.37379   1
   1  10 -33 25.7868 1.75012   1
   1  10 -32 23.6417 1.53225   1
   1  10 -31 102.408 3.72718   1
   1  10 -30  41.756 3.10193   1
   1  10 -29 174.531 5.62604   1
   1  10 -28 216.783 7.32209   1
   1  10 -27 493.864  11.974   1
   1  10 -26  120.12 4.03441   1
   1  10 -25  339.72 12.9241   1
   1  10 -24 437.795 11.1281   1
   1  10 -23 49.3993  1.9378   1
   1  10 -22  439.86 11.6019   1
   1  10 -21 20.6476 1.45175   1
   1  10 -20 306.317 9.44597   1
   1  10 -19 12.6814 1.22653   1
   1  10 -18 504.189 11.8342   1
   1  10 -17 8.50905 1.17103   1
   1  10 -16 652.215 16.6204   1
   1  10 -15 122.609 3.44361   1
   1  10 -14 909.734 20.7675   1
   1  10 -13 657.318 15.1915   1
   1  10 -12 544.143 13.6219   1
   1  10 -11 605.436 14.9311   1
   1  10 -10 393.552 9.26804   1
   1  10  -9 143.792 3.51037   1
   1  10  -8 359.306 8.40236   1
   1  10  -7 206.345  5.1067   1
   1  10  -6 31.2742 1.10956   1
   1  10  -5  235.00 6.21101   1
   1  10  -4 39.2858 1.19322   1
   1  10  -3 312.302 7.86896   1
   1  10  -2 6.57172 1.02013   1
   1  10  -1 412.869 10.3567   1
   1  10   0 40.0708 1.39269   1
   1  10   1 394.512 9.14979   1
   1  10   2 5.59588 0.70231   1
   1  10   3 291.386 6.83789   1
   1  10   4 42.6816 1.26097   1
   1  10   5 234.867 5.60889   1
   1  10   6 34.8322 1.52278   1
   1  10   7  223.93 5.45919   1
   1  10   8 349.909 8.71179   1
   1  10   9 149.407 3.64617   1
   1  10  10 398.567 9.29212   1
   1  10  11 614.445 14.2591   1
   1  10  12 543.682 12.4817   1
   1  10  13 666.347 15.5088   1
   1  10  14 906.155 20.8806   1
   1  10  15 126.045 3.19928   1
   1  10  16 661.243 15.6529   1
   1  10  17 6.51654 0.91031   1
   1  10  18 487.366 12.8381   1
   1  10  19 9.18948  1.2035   1
   1  10  20  312.32 10.7917   1
   1  10  21 22.2767 2.01024   1
   1  10  22 428.012 10.5983   1
   1  10  23 60.1049 2.99771   1
   1  10  24 419.225 12.4933   1
   1  10  25 330.156  8.6943   1
   1  10  26 112.693 3.53394   1
   1  10  27 494.755 13.5103   1
   1  10  28 218.904 7.18256   1
   1  10  29  161.61 4.90847   1
   1  10  30 41.2788 2.32611   1
   1  10  31 98.2231 4.31551   1
   1  10  32 27.4457 3.07195   1
   1  10  33 27.1046 2.15065   1
   1  10  34 3.63644 1.77791   1
   1  10  35 81.3313 4.10478   1
   1  10  36  4.4756 3.81014   1
   1  10  37 167.117 7.15259   1
   1  10  38 14.2668 3.03928   1
   1  10  39 68.1317 3.69785   1
   1  10  40 18.1507 2.87726   1
   1  11 -38 17.8696 2.75977   1
   1  11 -37 149.129  5.9888   1
   1  11 -36 9.64868 1.79308   1
   1  11 -35 188.462 6.83924   1
   1  11 -34 12.4964 2.82042   1
   1  11 -33 312.549 9.31548   1
   1  11 -32 24.2694 3.46474   1
   1  11 -31 177.311 5.65754   1
   1  11 -30 48.6769 2.64035   1
   1  11 -29  256.16 15.2422   1
   1  11 -28 47.7831  2.4184   1
   1  11 -27 454.873 16.8709   1
   1  11 -26 14.8123 2.08938   1
   1  11 -25 384.059 16.4085   1
   1  11 -24  121.01 3.87891   1
   1  11 -23 172.993  5.4504   1
   1  11 -22 138.217 4.03231   1
   1  11 -21 55.0478 1.80295   1
   1  11 -20 49.3471 1.65629   1
   1  11 -19 14.5872 1.16225   1
   1  11 -18 78.0368 2.60467   1
   1  11 -17 128.268 3.81605   1
   1  11 -16 174.347   4.651   1
   1  11 -15  186.36 5.27802   1
   1  11 -14 77.8477 2.43262   1
   1  11 -13 425.039 10.4171   1
   1  11 -12  72.184 2.57515   1
   1  11 -11 487.082 12.0644   1
   1  11 -10 102.026 4.35964   1
   1  11  -9 318.397 8.00131   1
   1  11  -8 111.024 3.30286   1
   1  11  -7 251.026 6.24043   1
   1  11  -6 87.0748 2.54286   1
   1  11  -5 545.641 12.9014   1
   1  11  -4 91.5877 3.05748   1
   1  11  -3 813.046  19.823   1
   1  11  -2  14.173 1.01247   1
   1  11  -1 428.622 10.3197   1
   1  11   0 115.287 3.53073   1
   1  11   1 428.887 10.5097   1
   1  11   2 13.3589 0.86662   1
   1  11   3 833.124 19.6344   1
   1  11   4 92.9823 2.43519   1
   1  11   5 552.013 12.9847   1
   1  11   6   84.71 2.23581   1
   1  11   7 262.652 6.36545   1
   1  11   8 120.024 2.99254   1
   1  11   9  334.07 8.28252   1
   1  11  10 106.688 2.73232   1
   1  11  11 465.287 10.8962   1
   1  11  12 74.3354 2.35884   1
   1  11  13 415.996 9.88017   1
   1  11  14 85.6389 2.57505   1
   1  11  15 183.806 4.70581   1
   1  11  16 179.415 5.41558   1
   1  11  17 125.235 6.48864   1
   1  11  18 73.4632 2.93327   1
   1  11  19 12.7999 1.47243   1
   1  11  20 49.3422 1.97854   1
   1  11  21 54.5481 2.22541   1
   1  11  22 140.971 3.98661   1
   1  11  23 181.656 8.15098   1
   1  11  24  110.15 4.24409   1
   1  11  25 384.725 13.3175   1
   1  11  26 12.4767  2.0581   1
   1  11  27 459.288 12.6222   1
   1  11  28 42.4066 3.39935   1
   1  11  29  271.71 9.93342   1
   1  11  30 49.3761 2.79172   1
   1  11  31 152.841 6.06473   1
   1  11  32 27.6589 2.59819   1
   1  11  33 299.125 10.1584   1
   1  11  34 14.6611 2.43305   1
   1  11  35 189.669 9.47167   1
   1  11  36 6.10964 2.55773   1
   1  11  37 151.914 9.16149   1
   1  11  38 18.2358 2.98193   1
   1  12 -35 29.0346 2.19894   1
   1  12 -34 122.911 4.88011   1
   1  12 -33 39.9476 3.29327   1
   1  12 -32 156.783 7.71442   1
   1  12 -31 94.6511 4.43623   1
   1  12 -30 15.7018 2.55284   1
   1  12 -29 60.8104 3.29109   1
   1  12 -28 5.18971 1.90872   1
   1  12 -27 49.7825 2.79727   1
   1  12 -26  4.5028 1.45284   1
   1  12 -25 113.222 4.31849   1
   1  12 -24 124.602 4.59941   1
   1  12 -23 190.713 5.45735   1
   1  12 -22 567.533 14.7394   1
   1  12 -21 148.861 5.49118   1
   1  12 -20 590.486 16.1368   1
   1  12 -19 129.707 4.40244   1
   1  12 -18 730.066 19.4748   1
   1  12 -17 262.674 6.60241   1
   1  12 -16 343.986 8.53783   1
   1  12 -15 256.509 6.28963   1
   1  12 -14 82.4825 2.65693   1
   1  12 -13 229.534 7.06275   1
   1  12 -12 30.0672 1.22429   1
   1  12 -11 90.2358 2.49168   1
   1  12 -10 12.0282 0.95571   1
   1  12  -9 118.566  3.2096   1
   1  12  -8  280.98 7.82041   1
   1  12  -7 72.5244 2.97186   1
   1  12  -6 428.847 10.9372   1
   1  12  -5 108.886 3.03726   1
   1  12  -4 647.487 15.4985   1
   1  12  -3 96.2306 4.82058   1
   1  12  -2 233.002  9.5271   1
   1  12  -1 29.1771 2.49091   1
   1  12   0 165.859 5.18676   1
   1  12   1 32.2787 1.49996   1
   1  12   2 238.983 7.67622   1
   1  12   3 98.8387 4.87083   1
   1  12   4 652.413  15.861   1
   1  12   5 115.163 3.18339   1
   1  12   6 420.887 10.0862   1
   1  12   7 69.1171 2.36051   1
   1  12   8 283.796 7.15557   1
   1  12   9 121.853 3.15291   1
   1  12  10 14.5799 0.98446   1
   1  12  11 95.4355 2.82119   1
   1  12  12  24.693 1.19908   1
   1  12  13 220.324 6.09169   1
   1  12  14 79.2555 2.30191   1
   1  12  15 253.208 7.05388   1
   1  12  16 344.331 8.93032   1
   1  12  17 239.115 6.33057   1
   1  12  18 716.519 19.8363   1
   1  12  19 133.494 4.53505   1
   1  12  20 587.217  14.497   1
   1  12  21 162.571 5.00363   1
   1  12  22 582.832 21.1032   1
   1  12  23 187.673 5.33939   1
   1  12  24 124.744 4.43954   1
   1  12  25 120.358 5.16227   1
   1  12  26 2.67702 1.99315   1
   1  12  27 48.0084 2.53867   1
   1  12  28 4.53028  2.1229   1
   1  12  29 61.6986 3.74743   1
   1  12  30 14.6257    2.23   1
   1  12  31 88.6154 4.24849   1
   1  12  32 160.604 7.24232   1
   1  12  33 44.3503 3.57476   1
   1  12  34 125.735 6.93732   1
   1  12  35  24.979 3.12886   1
   1  13 -31  24.235 2.31911   1
   1  13 -30 101.916 7.21887   1
   1  13 -29 19.1113 2.83716   1
   1  13 -28 110.616 4.66717   1
   1  13 -27 37.9763 2.79789   1
   1  13 -26 148.801   8.859   1
   1  13 -25 65.1846 4.10727   1
   1  13 -24  207.76 7.87757   1
   1  13 -23 74.3235 3.03705   1
   1  13 -22 93.1122  4.0281   1
   1  13 -21 30.2983 1.91986   1
   1  13 -20 8.39874 1.43549   1
   1  13 -19 30.5901 1.73749   1
   1  13 -18 76.0783 2.93856   1
   1  13 -17 129.145 4.02738   1
   1  13 -16 100.133 3.56363   1
   1  13 -15 120.249 3.58691   1
   1  13 -14 174.215 5.55994   1
   1  13 -13 186.021 5.00193   1
   1  13 -12 119.098 3.81392   1
   1  13 -11 85.1634 3.42243   1
   1  13 -10 235.904 5.92015   1
   1  13  -9 151.637 4.81912   1
   1  13  -8 202.988 5.81119   1
   1  13  -7 97.4846 3.06794   1
   1  13  -6 216.548  5.6221   1
   1  13  -5 16.6895 1.37772   1
   1  13  -4 510.386 12.5392   1
   1  13  -3 170.921 4.49527   1
   1  13  -2 436.309 10.7665   1
   1  13  -1 658.669 15.7387   1
   1  13   0 476.204 11.5808   1
   1  13   1 645.906 15.4847   1
   1  13   2 442.143 13.2052   1
   1  13   3  166.43 5.24195   1
   1  13   4 526.213 13.0052   1
   1  13   5 18.4757 1.12387   1
   1  13   6 233.751 5.85414   1
   1  13   7 95.4205 3.09713   1
   1  13   8 206.449  6.3822   1
   1  13   9 160.665 4.11874   1
   1  13  10 233.574 6.90018   1
   1  13  11 89.6836 2.75969   1
   1  13  12 118.484  3.2298   1
   1  13  13 195.708 5.26949   1
   1  13  14 176.794 4.73727   1
   1  13  15 126.279 4.95457   1
   1  13  16 93.4202 3.83584   1
   1  13  17  122.75 3.99488   1
   1  13  18 73.8539 2.65884   1
   1  13  19 28.9258 1.69558   1
   1  13  20 9.85718 1.34175   1
   1  13  21 32.6249 2.00912   1
   1  13  22 87.4416 3.37424   1
   1  13  23 80.1507 7.82783   1
   1  13  24 218.534 8.88865   1
   1  13  25 63.4309 3.49496   1
   1  13  26 146.635 8.04115   1
   1  13  27 35.4204 2.39125   1
   1  13  28 89.3037 4.74502   1
   1  13  29 20.8095 4.04381   1
   1  13  30  95.428 5.50505   1
   1  13  31 27.4372 4.31657   1
   1  14 -27 186.234 9.41254   1
   1  14 -26 12.3559 2.23019   1
   1  14 -25 166.026 9.38387   1
   1  14 -24 7.45766 2.06618   1
   1  14 -23 253.679 9.12441   1
   1  14 -22 48.7447 2.79493   1
   1  14 -21 400.403 11.7726   1
   1  14 -20 83.7458 3.78712   1
   1  14 -19 299.189 10.7162   1
   1  14 -18 21.1226 2.18501   1
   1  14 -17 341.337 10.2543   1
   1  14 -16 59.7421 2.54257   1
   1  14 -15 413.305 12.4448   1
   1  14 -14 22.3668  1.7626   1
   1  14 -13 312.675 10.1344   1
   1  14 -12 10.6836 1.77426   1
   1  14 -11  265.34 7.63202   1
   1  14 -10   55.34 2.09177   1
   1  14  -9 148.959 4.38883   1
   1  14  -8 43.0665 2.35036   1
   1  14  -7 33.7879 1.93742   1
   1  14  -6 52.1402 2.16142   1
   1  14  -5 16.4531 1.93093   1
   1  14  -4 93.6758 3.03026   1
   1  14  -3 5.94959 1.37841   1
   1  14  -2 56.5986 2.36033   1
   1  14  -1 7.42357 1.24074   1
   1  14   0 53.5091  3.2404   1
   1  14   1 7.28081 1.16919   1
   1  14   2 63.3946 2.31271   1
   1  14   3 9.66223 1.17163   1
   1  14   4 96.1376  3.2602   1
   1  14   5 13.6675 1.31182   1
   1  14   6  52.712 2.76767   1
   1  14   7 34.9869 2.06541   1
   1  14   8 47.4907 2.44151   1
   1  14   9 168.669 4.53977   1
   1  14  10 60.1862 2.18171   1
   1  14  11 251.639 6.70716   1
   1  14  12 10.4339 1.24484   1
   1  14  13 327.652 8.32679   1
   1  14  14 22.3141  1.5564   1
   1  14  15 430.991 11.0287   1
   1  14  16 58.9589 2.27494   1
   1  14  17 341.692 9.95316   1
   1  14  18  21.069 1.97398   1
   1  14  19 314.174 8.47864   1
   1  14  20 92.5834 3.67918   1
   1  14  21 384.889 11.6248   1
   1  14  22 46.3544 3.57612   1
   1  14  23 273.014 9.57335   1
   1  14  24 10.1584 2.29993   1
   1  14  25 154.899 5.56491   1
   1  14  26 11.5846 2.31253   1
   1  14  27 178.775  12.735   1
   1  15 -21 49.3518 2.81297   1
   1  15 -20 14.9166 2.12332   1
   1  15 -19 90.5673 4.44801   1
   1  15 -18 43.8415 3.17255   1
   1  15 -17 83.1394 3.78573   1
   1  15 -16 52.9253 3.07548   1
   1  15 -15  79.653 3.10423   1
   1  15 -14 77.2833  3.4513   1
   1  15 -13 64.6441 2.93295   1
   1  15 -12 78.1214  3.8331   1
   1  15 -11 57.6407 3.09147   1
   1  15 -10 173.272 5.34688   1
   1  15  -9 150.217  5.2387   1
   1  15  -8 378.264 10.1352   1
   1  15  -7 51.1538 2.23188   1
   1  15  -6 426.216 10.9291   1
   1  15  -5 122.027 4.44404   1
   1  15  -4 204.226 5.80921   1
   1  15  -3 172.735  4.8113   1
   1  15  -2  141.87 4.88816   1
   1  15  -1 185.407 5.38967   1
   1  15   0 58.5643 2.36331   1
   1  15   1 191.373 7.38008   1
   1  15   2 137.053 4.20275   1
   1  15   3 171.633 6.21518   1
   1  15   4 219.477 8.42919   1
   1  15   5 135.312 5.24922   1
   1  15   6 431.507 11.1408   1
   1  15   7 54.3334   2.226   1
   1  15   8 383.751 11.3135   1
   1  15   9 150.533 5.85606   1
   1  15  10 167.893 5.69959   1
   1  15  11 61.5643 3.25727   1
   1  15  12 89.9775 3.63514   1
   1  15  13 54.8007 2.76434   1
   1  15  14 81.4773 3.46917   1
   1  15  15 82.4858 4.46421   1
   1  15  16 57.5239 3.04942   1
   1  15  17 83.2923 3.37758   1
   1  15  18 46.3041 2.61077   1
   1  15  19 92.7015 5.29071   1
   1  15  20 11.8788  2.0625   1
   1  15  21 46.6527 2.95127   1
   1  16 -12 233.358 9.15812   1
   1  16 -11 135.399 6.51423   1
   1  16 -10 164.421 10.2761   1
   1  16  -9 83.4389 3.86311   1
   1  16  -8 40.9843 2.41977   1
   1  16  -7 11.3521 1.92336   1
   1  16  -6  45.944 2.41128   1
   1  16  -5 28.3911 2.25037   1
   1  16  -4 3.12013  1.6412   1
   1  16  -3 99.1792 4.48525   1
   1  16  -2 10.5584 1.85335   1
   1  16  -1 68.8537 2.81954   1
   1  16   0 13.3389 1.85303   1
   1  16   1   65.24 2.87736   1
   1  16   2 10.1454 1.76405   1
   1  16   3 91.1445 4.32739   1
   1  16   4 4.74595 1.72213   1
   1  16   5  25.036 1.97705   1
   1  16   6 41.8696 2.45455   1
   1  16   7 14.3926 1.88663   1
   1  16   8 49.4262 2.79088   1
   1  16   9 86.3042 3.58363   1
   1  16  10 156.154 4.93971   1
   1  16  11 130.415 5.91585   1
   1  16  12 197.277 7.51678   1
   2   0   0 8604.58 193.632   1
   2   0   1 103.226 2.48108   1
   2   0   2 4624.67 103.475   1
   2   0   3 259.236 5.84149   1
   2   0   4 952.064 21.2636   1
   2   0   5  868.23  19.721   1
   2   0   6 19.5188 0.82937   1
   2   0   7  19.441 0.88636   1
   2   0   8 128.519 3.37241   1
   2   0   9 412.189 9.48752   1
   2   0  10 85.4448 2.21263   1
   2   0  11 3614.42 87.0911   1
   2   0  12 32.0455 1.21943   1
   2   0  13 2017.20  45.443   1
   2   0  14 1462.01 33.9547   1
   2   0  15 2528.10  57.316   1
   2   0  16 314.266 7.20166   1
   2   0  17 3058.46 68.8511   1
   2   0  18 195.771 4.89095   1
   2   0  19 985.943  22.406   1
   2   0  20 5.61037 1.01888   1
   2   0  21 938.691 21.5643   1
   2   0  22 327.935 7.66329   1
   2   0  23 403.865 9.44498   1
   2   0  24 819.011 18.8536   1
   2   0  25 194.163 5.06048   1
   2   0  26 171.167 4.89028   1
   2   0  27 299.354 7.58514   1
   2   0  28 23.6515 1.25285   1
   2   0  29 28.7138 1.35892   1
   2   0  30 44.4489 1.48003   1
   2   0  31  70.944 2.14442   1
   2   0  32 37.8103  1.7521   1
   2   0  33 2.42194 1.36505   1
   2   0  34 71.4592 2.25717   1
   2   0  35 9.87714 1.97932   1
   2   0  36 875.107 23.2707   1
   2   0  37 8.67276 4.19227   1
   2   0  38 1541.76 44.3068   1
   2   0  39 22.7197 3.63405   1
   2   0  40 1379.75 42.5169   1
   2   0  41 188.474 5.79761   1
   2   0  42 494.063 14.2073   1
   2   0  43 7.27851  1.1502   1
   2   0  44 114.375 3.66798   1
   2   0  45 15.2582 1.74924   1
   2   0  46 3.93721 1.73905   1
   2   0  47 31.4219 2.49403   1
   2   0  48 21.4567 2.25554   1
   2   0  49 363.838 12.3364   1
   2   0  50 0.97608  1.8606   1
   2   1 -50  36.345 2.49993   1
   2   1 -49 94.1112 4.53946   1
   2   1 -48 86.1907 4.02111   1
   2   1 -47 108.662 4.99115   1
   2   1 -46 205.804 8.65911   1
   2   1 -45 185.463 6.09613   1
   2   1 -44 85.9509 3.19215   1
   2   1 -43 321.761 11.0639   1
   2   1 -42 184.239 5.82885   1
   2   1 -41 164.136 5.49121   1
   2   1 -40 180.407 6.74507   1
   2   1 -39 7.21493 1.36119   1
   2   1 -38  132.77 3.80238   1
   2   1 -37 40.9809 2.35307   1
   2   1 -36 141.018 4.33127   1
   2   1 -35 137.518 5.51223   1
   2   1 -34 254.072 6.44306   1
   2   1 -33 281.021 6.85952   1
   2   1 -32 536.362  13.033   1
   2   1 -31 315.265 7.38488   1
   2   1 -30 260.265 6.30754   1
   2   1 -29 511.022 12.2237   1
   2   1 -28 749.342 17.0206   1
   2   1 -27 251.556 6.60077   1
   2   1 -26  441.96 10.6219   1
   2   1 -25 426.469 10.0642   1
   2   1 -24 231.803 5.98864   1
   2   1 -23 605.875 14.0707   1
   2   1 -22 336.907 7.95575   1
   2   1 -21 1035.13  23.462   1
   2   1 -20 306.144 7.07827   1
   2   1 -19 818.523  18.791   1
   2   1 -18 225.411 5.42695   1
   2   1 -17 1155.23 25.9882   1
   2   1 -16 625.018 14.5181   1
   2   1 -15 516.515 11.6089   1
   2   1 -14 849.232 19.4611   1
   2   1 -13 10.2469 1.36341   1
   2   1 -12 575.514 13.2179   1
   2   1 -11 1378.85  30.931   1
   2   1 -10 1493.76 33.5882   1
   2   1  -9 1919.43 43.2078   1
   2   1  -8 1827.38 41.2444   1
   2   1  -7 1790.19 40.1118   1
   2   1  -6  803.50 18.1522   1
   2   1  -5 3112.95 70.3276   1
   2   1  -4  888.28 19.8515   1
   2   1  -3 1188.18  27.176   1
   2   1  -2 441.975 10.3148   1
   2   1  -1 208.249 4.74508   1
   2   1   0 1841.10 41.1095   1
   2   1   1 224.113  5.1055   1
   2   1   2  400.25 8.98146   1
   2   1   3 1216.61  27.315   1
   2   1   4 858.753 19.2196   1
   2   1   5 3178.01 70.6849   1
   2   1   6 802.705 18.3435   1
   2   1   7 1795.21 40.0811   1
   2   1   8 1769.65 39.5835   1
   2   1   9 1851.44 41.5364   1
   2   1  10 1482.66 33.0072   1
   2   1  11 1401.95  31.345   1
   2   1  12 559.269 12.6895   1
   2   1  13 6.58289 0.59918   1
   2   1  14 873.448 19.5826   1
   2   1  15 503.309 11.3919   1
   2   1  16 650.769 14.6903   1
   2   1  17 1147.62 25.7006   1
   2   1  18 227.783 5.37722   1
   2   1  19 824.077 18.7332   1
   2   1  20 325.297 7.70153   1
   2   1  21 1011.46 22.7139   1
   2   1  22 341.464 7.98757   1
   2   1  23 601.481 13.7312   1
   2   1  24 238.934 6.10386   1
   2   1  25 391.082 9.33983   1
   2   1  26 432.237 10.3095   1
   2   1  27 272.859 6.91603   1
   2   1  28 734.165 17.8384   1
   2   1  29 522.289 12.6522   1
   2   1  30 270.217 7.35653   1
   2   1  31 326.825 8.40833   1
   2   1  32 502.432 11.6935   1
   2   1  33  302.32 8.40073   1
   2   1  34 249.987 7.85083   1
   2   1  35 126.576  4.1599   1
   2   1  36 146.561 4.14903   1
   2   1  37 41.8693 1.88857   1
   2   1  38 129.762  3.8946   1
   2   1  39 8.09036 1.17218   1
   2   1  40 170.546 5.35053   1
   2   1  41 167.152  5.2435   1
   2   1  42  180.38 5.72569   1
   2   1  43 328.306 9.84648   1
   2   1  44 86.5216 3.17884   1
   2   1  45 172.019 5.60963   1
   2   1  46 216.568 7.94466   1
   2   1  47 108.483 4.51863   1
   2   1  48  84.693 3.64783   1
   2   1  49 93.1945 5.05584   1
   2   1  50 43.1488 2.84541   1
   2   2 -50 195.652 26.2378   1
   2   2 -49 74.3006 4.27064   1
   2   2 -48 69.9739 3.27473   1
   2   2 -47 152.381 6.33799   1
   2   2 -46 52.8362 2.79208   1
   2   2 -45 117.382 3.99821   1
   2   2 -44 101.106 3.69924   1
   2   2 -43 191.195 5.75716   1
   2   2 -42 95.6487 3.53527   1
   2   2 -41 231.404 7.03769   1
   2   2 -40 47.8798 2.25465   1
   2   2 -39 132.977 4.79944   1
   2   2 -38 33.4444 1.69554   1
   2   2 -37 218.511 6.14409   1
   2   2 -36 76.6627 2.54655   1
   2   2 -35 650.912  17.525   1
   2   2 -34 93.6977 3.45693   1
   2   2 -33 659.102 16.0073   1
   2   2 -32 79.2498 2.83904   1
   2   2 -31 551.421 12.6544   1
   2   2 -30 38.0246 1.41276   1
   2   2 -29 499.221 11.8399   1
   2   2 -28 111.228 3.09613   1
   2   2 -27 76.5342 2.09279   1
   2   2 -26 154.808 3.98736   1
   2   2 -25 33.8413 2.18781   1
   2   2 -24 392.672 9.40117   1
   2   2 -23 296.647 7.83555   1
   2   2 -22 778.359 18.0183   1
   2   2 -21 438.058 10.1347   1
   2   2 -20 980.604 22.2469   1
   2   2 -19 258.704 6.16034   1
   2   2 -18 2120.35 48.8773   1
   2   2 -17 717.891 16.3472   1
   2   2 -16 2491.32 55.2804   1
   2   2 -15 486.076 11.0328   1
   2   2 -14 901.491 20.3458   1
   2   2 -13 237.823 5.69179   1
   2   2 -12 1579.29 35.9403   1
   2   2 -11 413.484 9.59845   1
   2   2 -10 929.268 21.3573   1
   2   2  -9 1843.43  43.683   1
   2   2  -8  164.23 3.96861   1
   2   2  -7 1466.37  33.758   1
   2   2  -6 715.598 17.0138   1
   2   2  -5 1510.15 33.6591   1
   2   2  -4 338.614 7.67314   1
   2   2  -3 1673.68 38.0341   1
   2   2  -2 54.3536 1.76319   1
   2   2  -1 269.042  6.3565   1
   2   2   0 139.168 3.34079   1
   2   2   1 313.053 7.24064   1
   2   2   2 63.0826 1.68164   1
   2   2   3 1609.42 35.9792   1
   2   2   4 321.508 7.31674   1
   2   2   5 1485.23 33.2607   1
   2   2   6 671.515 15.2632   1
   2   2   7 1488.73 34.9937   1
   2   2   8 174.213 4.16549   1
   2   2   9 1822.35 42.3268   1
   2   2  10 923.129 20.6826   1
   2   2  11 427.853 9.67693   1
   2   2  12 1579.36 35.2429   1
   2   2  13 253.323 5.75416   1
   2   2  14  891.42 20.1405   1
   2   2  15 475.043  10.792   1
   2   2  16 2537.75 61.6569   1
   2   2  17 726.485 16.4368   1
   2   2  18 2164.15 51.1149   1
   2   2  19  267.00 6.30094   1
   2   2  20  991.84 22.3585   1
   2   2  21 439.191  10.054   1
   2   2  22 776.528 17.6132   1
   2   2  23 308.641 7.22302   1
   2   2  24 382.272 8.94172   1
   2   2  25 29.5239 2.19011   1
   2   2  26 174.537 5.07351   1
   2   2  27 68.3543 2.89312   1
   2   2  28  115.22 3.16641   1
   2   2  29 487.654 11.6283   1
   2   2  30 45.2078 3.31684   1
   2   2  31 541.305 14.1067   1
   2   2  32 89.8749  2.6539   1
   2   2  33 668.142 23.2687   1
   2   2  34 93.6926 8.02249   1
   2   2  35 672.694 18.5266   1
   2   2  36 80.9772  2.6595   1
   2   2  37 217.713 6.13907   1
   2   2  38 29.6602 1.60356   1
   2   2  39 135.203 4.06236   1
   2   2  40 42.8472 2.36351   1
   2   2  41  236.71 9.03784   1
   2   2  42 88.3705 3.63342   1
   2   2  43 183.801 5.61202   1
   2   2  44  97.971 3.53557   1
   2   2  45 114.303 4.31147   1
   2   2  46 47.3679 2.54705   1
   2   2  47  147.98 5.76097   1
   2   2  48  69.454 5.24014   1
   2   2  49 75.2076 3.75291   1
   2   2  50 190.571 7.54256   1
   2   3 -49 76.9418 3.66878   1
   2   3 -48 203.836 8.44196   1
   2   3 -47 38.5802 2.45738   1
   2   3 -46 71.4227 3.39693   1
   2   3 -45 194.902 6.80874   1
   2   3 -44 64.1596 3.36669   1
   2   3 -43 239.218 7.99321   1
   2   3 -42 10.8912 2.19156   1
   2   3 -41 190.362 5.99138   1
   2   3 -40 1.56611 1.15024   1
   2   3 -39 277.228 7.66756   1
   2   3 -38 120.617  4.6811   1
   2   3 -37  326.23 8.58164   1
   2   3 -36  116.12 3.72865   1
   2   3 -35 192.522 6.60268   1
   2   3 -34 3.04779 1.13669   1
   2   3 -33 84.6074 2.38561   1
   2   3 -32 110.773 2.85185   1
   2   3 -31 151.218 4.68865   1
   2   3 -30 531.476 12.0951   1
   2   3 -29 286.496 6.64192   1
   2   3 -28 1238.74 28.7835   1
   2   3 -27 440.608 9.92954   1
   2   3 -26 1341.63 30.3733   1
   2   3 -25 887.687 20.6737   1
   2   3 -24  479.81 11.7069   1
   2   3 -23 509.456 12.1025   1
   2   3 -22 51.7929 2.30336   1
   2   3 -21  251.33 6.36449   1
   2   3 -20 9.99015 2.64314   1
   2   3 -19 59.8352 2.37611   1
   2   3 -18 21.9821 1.56452   1
   2   3 -17 341.829 7.99688   1
   2   3 -16 505.749 11.6279   1
   2   3 -15 911.334  20.484   1
   2   3 -14 1699.16 39.4275   1
   2   3 -13 1412.37 31.3986   1
   2   3 -12 3415.40 76.3011   1
   2   3 -11  613.09 14.0973   1
   2   3 -10 3052.45 69.0933   1
   2   3  -9 908.698 20.5597   1
   2   3  -8 1149.56 26.1478   1
   2   3  -7 282.545 6.50846   1
   2   3  -6 1280.34 28.8295   1
   2   3  -5 1065.24 23.9854   1
   2   3  -4 33.7672 1.14881   1
   2   3  -3 1108.11 24.8391   1
   2   3  -2 606.515  13.901   1
   2   3  -1 1998.04 44.4709   1
   2   3   0 6.92293  0.8502   1
   2   3   1 2110.61 47.1095   1
   2   3   2 594.267 13.4194   1
   2   3   3 1078.48 24.1246   1
   2   3   4 30.7068 1.28832   1
   2   3   5 997.545 22.4808   1
   2   3   6 1297.80 29.1773   1
   2   3   7 277.824 6.32928   1
   2   3   8 1126.61 25.1869   1
   2   3   9 913.087 20.5336   1
   2   3  10 3046.76 67.9125   1
   2   3  11  622.72 13.9538   1
   2   3  12 3469.67 76.8609   1
   2   3  13 1394.94 31.2503   1
   2   3  14 1714.89   38.43   1
   2   3  15 954.552 21.4459   1
   2   3  16 484.996 10.9654   1
   2   3  17 352.569 8.05212   1
   2   3  18 28.3962 0.99956   1
   2   3  19  60.247 1.76696   1
   2   3  20 15.0711 0.95622   1
   2   3  21 239.021 5.85416   1
   2   3  22 65.7363 1.97211   1
   2   3  23 508.956 11.7771   1
   2   3  24 487.863 11.3558   1
   2   3  25 882.455 20.0975   1
   2   3  26 1336.29 30.5094   1
   2   3  27 458.712  10.773   1
   2   3  28 1299.58 29.9145   1
   2   3  29 303.433 7.46329   1
   2   3  30 509.755 14.5564   1
   2   3  31 143.308  3.8116   1
   2   3  32 110.602 2.85739   1
   2   3  33   98.33 2.75348   1
   2   3  34 2.29453 0.92798   1
   2   3  35 201.606 5.65946   1
   2   3  36 121.911 3.67256   1
   2   3  37  327.29 8.96393   1
   2   3  38 121.025 3.66534   1
   2   3  39  274.20 8.21699   1
   2   3  40 3.59533 1.43331   1
   2   3  41 196.493 5.64078   1
   2   3  42 9.74856 1.30189   1
   2   3  43 237.097 8.03156   1
   2   3  44  58.683 2.74624   1
   2   3  45 189.071 6.39153   1
   2   3  46 72.1776 3.36903   1
   2   3  47 39.4166 2.63996   1
   2   3  48 211.709 7.60936   1
   2   3  49 69.5195 4.00824   1
   2   4 -48 54.5312 3.15175   1
   2   4 -47 131.747 5.49698   1
   2   4 -46 31.6118 2.09308   1
   2   4 -45 171.936 6.09562   1
   2   4 -44 94.3887 3.70916   1
   2   4 -43 79.4479 3.74038   1
   2   4 -42  144.88 5.05813   1
   2   4 -41 7.19868 1.66201   1
   2   4 -40 12.3454 1.46995   1
   2   4 -39 23.5682 1.48679   1
   2   4 -38 64.3655 2.29089   1
   2   4 -37 96.7944 3.12443   1
   2   4 -36 265.409 7.00719   1
   2   4 -35 258.893 6.68118   1
   2   4 -34 204.516 5.52476   1
   2   4 -33 578.837  14.796   1
   2   4 -32 154.278 3.76857   1
   2   4 -31 507.617 11.8119   1
   2   4 -30 333.659 8.13491   1
   2   4 -29 414.912 9.55372   1
   2   4 -28 292.908 7.89759   1
   2   4 -27 163.104 4.07111   1
   2   4 -26 79.2802 2.04027   1
   2   4 -25 172.279 3.98129   1
   2   4 -24  521.23 12.1376   1
   2   4 -23 109.831  4.9431   1
   2   4 -22 618.314 14.6022   1
   2   4 -21 1285.09 28.9877   1
   2   4 -20 474.587 11.0522   1
   2   4 -19 1362.82 31.0237   1
   2   4 -18 1064.28 23.9736   1
   2   4 -17 1101.42 25.5775   1
   2   4 -16  470.65 10.9389   1
   2   4 -15 618.746 14.4673   1
   2   4 -14 796.126 18.1674   1
   2   4 -13  219.99 5.53023   1
   2   4 -12 359.309 8.59871   1
   2   4 -11 481.403 10.9381   1
   2   4 -10 478.242 11.0542   1
   2   4  -9 364.332 8.39448   1
   2   4  -8 476.934  10.842   1
   2   4  -7 2216.19  49.646   1
   2   4  -6 265.346 6.22049   1
   2   4  -5 1379.24 31.0067   1
   2   4  -4 1908.60 43.4221   1
   2   4  -3 232.864 5.52321   1
   2   4  -2 1338.31 30.5047   1
   2   4  -1 642.416 14.4366   1
   2   4   0 5.59521 0.64768   1
   2   4   1 686.617 15.4382   1
   2   4   2 1391.61 31.7717   1
   2   4   3 267.087 6.19644   1
   2   4   4 1840.50 42.3756   1
   2   4   5 1276.54 28.5982   1
   2   4   6 297.596 6.79795   1
   2   4   7 2271.55  52.199   1
   2   4   8 492.747 11.1619   1
   2   4   9 351.439 7.94344   1
   2   4  10 479.435 10.8201   1
   2   4  11  458.10  10.352   1
   2   4  12 385.871 8.77764   1
   2   4  13 213.499 4.98304   1
   2   4  14 797.752 18.0623   1
   2   4  15 633.311 14.2897   1
   2   4  16 478.355 10.8499   1
   2   4  17 1129.61 25.5746   1
   2   4  18 1050.92 23.6232   1
   2   4  19 1360.86 30.8122   1
   2   4  20 482.341 11.0299   1
   2   4  21 1274.88 28.8726   1
   2   4  22  630.09 14.4948   1
   2   4  23  109.32 3.04691   1
   2   4  24 505.691 11.8966   1
   2   4  25 173.333 4.70319   1
   2   4  26 79.7105 2.40149   1
   2   4  27 170.764  4.1254   1
   2   4  28 294.759 7.08815   1
   2   4  29 448.034 10.5824   1
   2   4  30 321.756  7.8334   1
   2   4  31 522.988 13.3649   1
   2   4  32 149.868 3.98379   1
   2   4  33 576.556 14.3071   1
   2   4  34 207.808 5.87092   1
   2   4  35 250.621 7.70633   1
   2   4  36 258.247 7.10687   1
   2   4  37 86.4315 3.62316   1
   2   4  38 72.4483 9.80675   1
   2   4  39 28.9387 1.93835   1
   2   4  40  14.392 1.40975   1
   2   4  41 5.73879 1.65221   1
   2   4  42 148.984  7.1478   1
   2   4  43 72.6903 3.26109   1
   2   4  44 88.5962 3.96464   1
   2   4  45 176.801 7.14584   1
   2   4  46 24.2034 2.72919   1
   2   4  47 134.877  7.8925   1
   2   4  48 60.0873 4.86758   1
   2   5 -47 124.662 4.82979   1
   2   5 -46 187.345  7.3745   1
   2   5 -45 314.152 10.7714   1
   2   5 -44  140.38 4.66381   1
   2   5 -43 183.559 5.57793   1
   2   5 -42 210.151  6.0635   1
   2   5 -41 71.8794 2.37723   1
   2   5 -40 179.691 5.98972   1
   2   5 -39 45.3621 2.07238   1
   2   5 -38 46.9359 1.76277   1
   2   5 -37 52.6381 1.74665   1
   2   5 -36  143.99 4.08234   1
   2   5 -35 150.842 4.04116   1
   2   5 -34 98.8478 3.12964   1
   2   5 -33  247.29 6.24205   1
   2   5 -32  73.109 4.93526   1
   2   5 -31 334.642 7.92083   1
   2   5 -30 98.7484 3.54446   1
   2   5 -29 195.003 4.67842   1
   2   5 -28 328.549 7.64574   1
   2   5 -27 110.922 2.86958   1
   2   5 -26 845.898 20.4338   1
   2   5 -25 108.115 2.72702   1
   2   5 -24 249.069 6.00723   1
   2   5 -23 943.457 22.6586   1
   2   5 -22 392.172 9.27852   1
   2   5 -21  430.74 10.0239   1
   2   5 -20 647.032 15.5927   1
   2   5 -19 444.804 10.6102   1
   2   5 -18 161.478 4.29825   1
   2   5 -17 1043.39  23.782   1
   2   5 -16 203.934 4.99774   1
   2   5 -15 563.054 12.9093   1
   2   5 -14 421.884 9.67907   1
   2   5 -13 121.527 3.08482   1
   2   5 -12 858.911 19.4389   1
   2   5 -11 324.356 7.44074   1
   2   5 -10 1581.25 35.6274   1
   2   5  -9 484.975 11.0097   1
   2   5  -8 652.157 14.7675   1
   2   5  -7 577.412 13.1563   1
   2   5  -6 691.031 15.5385   1
   2   5  -5 1251.51  28.427   1
   2   5  -4 1002.47 22.5579   1
   2   5  -3 835.815 18.7836   1
   2   5  -2 306.567 7.02841   1
   2   5  -1 30.6579  0.9269   1
   2   5   0 695.061 15.6811   1
   2   5   1 29.9569 1.07959   1
   2   5   2 314.488 7.19206   1
   2   5   3 848.061 19.1892   1
   2   5   4 973.294 21.8622   1
   2   5   5 1241.39  27.824   1
   2   5   6 702.119 15.8713   1
   2   5   7 590.601 13.3914   1
   2   5   8 636.763  14.536   1
   2   5   9 485.048 10.9939   1
   2   5  10 1570.84 35.3102   1
   2   5  11 347.997 7.99437   1
   2   5  12 884.947 19.9498   1
   2   5  13 112.692 2.73767   1
   2   5  14 422.633 9.62247   1
   2   5  15 527.968 12.0401   1
   2   5  16 197.913 4.78928   1
   2   5  17 1041.32 23.6843   1
   2   5  18 162.349 4.06929   1
   2   5  19 476.104  10.921   1
   2   5  20 662.001 15.6012   1
   2   5  21 433.941 10.1488   1
   2   5  22 406.273 9.69705   1
   2   5  23 960.968 23.2238   1
   2   5  24 268.519 7.15236   1
   2   5  25 118.288 3.29016   1
   2   5  26 822.009 19.1467   1
   2   5  27 121.469 3.35705   1
   2   5  28 343.176 8.36028   1
   2   5  29 203.969 5.16443   1
   2   5  30 106.072 2.97908   1
   2   5  31 330.838 8.95264   1
   2   5  32 74.5867 2.45064   1
   2   5  33 255.124 7.14035   1
   2   5  34  90.301 3.17918   1
   2   5  35  153.16 4.74783   1
   2   5  36 134.366 4.48155   1
   2   5  37 56.8193 2.59038   1
   2   5  38 49.4528 2.68995   1
   2   5  39 46.2569 2.54316   1
   2   5  40 175.588 6.16359   1
   2   5  41  76.443 6.64863   1
   2   5  42  200.51 8.29174   1
   2   5  43 189.094 8.04764   1
   2   5  44 139.929 6.96335   1
   2   5  45  319.67 12.8359   1
   2   5  46 195.981 8.78832   1
   2   5  47 122.056  11.066   1
   2   6 -46 45.6244 2.91668   1
   2   6 -45 9.96817 1.89701   1
   2   6 -44 47.4526  2.5868   1
   2   6 -43 11.4418 1.91725   1
   2   6 -42 290.742  9.7189   1
   2   6 -41 38.9543 2.43005   1
   2   6 -40 397.018 10.6739   1
   2   6 -39  7.3501 1.18514   1
   2   6 -38 727.439 18.3658   1
   2   6 -37 80.8249 2.87863   1
   2   6 -36 473.994 12.1266   1
   2   6 -35 40.1476 1.75483   1
   2   6 -34 155.406  4.2609   1
   2   6 -33  19.845 1.34559   1
   2   6 -32 13.0202 1.19878   1
   2   6 -31 98.1297 4.33574   1
   2   6 -30 58.4291 2.43904   1
   2   6 -29 246.925 6.02666   1
   2   6 -28 140.911 4.25882   1
   2   6 -27 527.414 12.4944   1
   2   6 -26 208.536 5.43014   1
   2   6 -25 672.205 15.3804   1
   2   6 -24  573.10 12.4264   1
   2   6 -23 407.212 9.56092   1
   2   6 -22 305.056 7.91703   1
   2   6 -21 650.943 16.2853   1
   2   6 -20  434.33 10.3131   1
   2   6 -19 631.755  14.621   1
   2   6 -18 407.335 9.61654   1
   2   6 -17 302.783 7.50585   1
   2   6 -16 778.028 17.9078   1
   2   6 -15 1064.01  24.458   1
   2   6 -14  146.73 3.76961   1
   2   6 -13 1017.57 22.9766   1
   2   6 -12 100.751  2.8809   1
   2   6 -11 335.307 7.77002   1
   2   6 -10 27.8127 1.55906   1
   2   6  -9 453.525 10.3204   1
   2   6  -8 18.1538 1.10489   1
   2   6  -7 135.979 3.26681   1
   2   6  -6 96.7977 2.47485   1
   2   6  -5 176.036 4.17442   1
   2   6  -4 1118.85 25.2178   1
   2   6  -3 265.212 6.23362   1
   2   6  -2 3699.39 81.5689   1
   2   6  -1 200.586 5.05739   1
   2   6   0 2905.46 64.5997   1
   2   6   1 195.648 5.12572   1
   2   6   2 3694.92 83.3984   1
   2   6   3 271.839 6.36782   1
   2   6   4 1096.62 24.7056   1
   2   6   5 186.165 4.37549   1
   2   6   6 82.7385 2.18234   1
   2   6   7 138.833 3.42423   1
   2   6   8 18.9572 0.95435   1
   2   6   9 443.848 10.0952   1
   2   6  10 21.1894 1.23744   1
   2   6  11 324.399 7.52031   1
   2   6  12 106.609  2.8622   1
   2   6  13 1004.33 22.6392   1
   2   6  14 150.266 3.73301   1
   2   6  15 1077.94 25.1886   1
   2   6  16 773.345 17.5933   1
   2   6  17 258.904 6.07012   1
   2   6  18 409.917 9.89638   1
   2   6  19 627.691 15.0748   1
   2   6  20 435.398 10.3904   1
   2   6  21 674.491 15.8281   1
   2   6  22  317.77 7.87214   1
   2   6  23 405.366 10.2514   1
   2   6  24 598.094 14.0158   1
   2   6  25 675.891 15.8476   1
   2   6  26  193.77 5.12619   1
   2   6  27 543.593 12.9894   1
   2   6  28 158.012 4.39323   1
   2   6  29 256.502 6.61851   1
   2   6  30 65.6103 2.12798   1
   2   6  31 94.7422 2.88826   1
   2   6  32 7.28092  1.3035   1
   2   6  33 15.3607 1.44586   1
   2   6  34 152.361 4.65259   1
   2   6  35 39.0881 2.92807   1
   2   6  36  471.26 13.7896   1
   2   6  37 74.3156 2.96186   1
   2   6  38 719.123 20.4269   1
   2   6  39 4.05611  1.8402   1
   2   6  40 406.651  15.053   1
   2   6  41 31.4744 3.19522   1
   2   6  42 281.026 11.4792   1
   2   6  43 14.4258 3.46603   1
   2   6  44 48.9639 5.80808   1
   2   6  45 11.8415 2.65402   1
   2   6  46 52.8727 4.17291   1
   2   7 -45 293.412 13.0269   1
   2   7 -44 118.275 6.84751   1
   2   7 -43 180.468 6.19745   1
   2   7 -42 140.562 4.77829   1
   2   7 -41 53.5359 2.46131   1
   2   7 -40 143.213 4.57651   1
   2   7 -39 11.1244 1.36328   1
   2   7 -38 72.5541 2.56384   1
   2   7 -37 65.8155 2.45618   1
   2   7 -36  54.107 2.12083   1
   2   7 -35 80.4451 3.12979   1
   2   7 -34 49.1718 1.84151   1
   2   7 -33 96.7912 2.74993   1
   2   7 -32 296.146 7.88141   1
   2   7 -31  303.44 7.80467   1
   2   7 -30 161.962 4.48128   1
   2   7 -29 197.136 5.71982   1
   2   7 -28  194.13 7.89389   1
   2   7 -27 116.697 3.18418   1
   2   7 -26  286.84 9.49733   1
   2   7 -25 348.483 8.72618   1
   2   7 -24 224.702 5.77306   1
   2   7 -23 281.789 6.69223   1
   2   7 -22 510.126 12.1106   1
   2   7 -21 536.778 12.8817   1
   2   7 -20 326.821  8.4538   1
   2   7 -19 1212.33 27.8651   1
   2   7 -18  480.67 11.4236   1
   2   7 -17 808.262 19.1018   1
   2   7 -16  261.79 6.18965   1
   2   7 -15 71.7307 2.82962   1
   2   7 -14 172.238 4.48395   1
   2   7 -13  278.26 6.81233   1
   2   7 -12 247.561 6.06861   1
   2   7 -11 488.562  11.466   1
   2   7 -10 434.767 10.1872   1
   2   7  -9 971.132  21.958   1
   2   7  -8 252.398 6.60924   1
   2   7  -7 1514.42 33.9314   1
   2   7  -6 533.993 12.3234   1
   2   7  -5 379.874 8.83123   1
   2   7  -4 355.721 8.15765   1
   2   7  -3 491.476 11.1733   1
   2   7  -2 240.992 5.69576   1
   2   7  -1 58.6876 1.90604   1
   2   7   0 164.601 3.96999   1
   2   7   1  63.053 1.86659   1
   2   7   2 245.883 5.74058   1
   2   7   3 504.328 11.4933   1
   2   7   4 349.467 8.04059   1
   2   7   5 377.798 8.83617   1
   2   7   6 558.492 12.7141   1
   2   7   7 1445.76 32.5084   1
   2   7   8 273.633 6.62746   1
   2   7   9  949.83 21.5992   1
   2   7  10 450.146 10.3989   1
   2   7  11 467.967 10.7824   1
   2   7  12 249.232 5.91564   1
   2   7  13 274.632  6.6201   1
   2   7  14 184.991 4.61607   1
   2   7  15 72.6872 3.45701   1
   2   7  16 255.312 6.22224   1
   2   7  17 827.926 19.1145   1
   2   7  18 472.726 10.9401   1
   2   7  19 1231.48 28.4039   1
   2   7  20 340.279 8.52658   1
   2   7  21 544.131 12.5465   1
   2   7  22 497.073 11.8804   1
   2   7  23 293.551 7.10246   1
   2   7  24 239.158 5.91959   1
   2   7  25 371.234 8.75937   1
   2   7  26 287.551 6.86716   1
   2   7  27 121.197 3.24449   1
   2   7  28 211.091 5.56329   1
   2   7  29 210.538 5.88827   1
   2   7  30 162.309 4.68976   1
   2   7  31 320.269 10.1429   1
   2   7  32 300.086 8.27586   1
   2   7  33 96.7891 3.24035   1
   2   7  34 53.6881 3.52424   1
   2   7  35 73.4334 3.48214   1
   2   7  36 56.4711 3.05377   1
   2   7  37 52.6017 3.24844   1
   2   7  38 72.7993 3.06796   1
   2   7  39 9.17594 2.12203   1
   2   7  40 143.034 6.03864   1
   2   7  41  65.695 5.15567   1
   2   7  42 134.149  6.5571   1
   2   7  43 198.429 10.7699   1
   2   7  44 106.644 5.95178   1
   2   7  45 275.839 52.1466   1
   2   8 -43 114.554 4.26252   1
   2   8 -42 11.4656 1.79055   1
   2   8 -41 147.234 5.15234   1
   2   8 -40  8.9301  1.6963   1
   2   8 -39 147.123 4.70196   1
   2   8 -38 8.11105 1.44454   1
   2   8 -37 169.403 5.14261   1
   2   8 -36 2.97275 1.28332   1
   2   8 -35 305.551 8.83982   1
   2   8 -34 33.5223 1.97385   1
   2   8 -33 384.371 10.0005   1
   2   8 -32  14.654 1.58637   1
   2   8 -31 426.703 11.0343   1
   2   8 -30 116.606 5.02588   1
   2   8 -29 197.678 5.96943   1
   2   8 -28 193.764 5.34476   1
   2   8 -27 17.5429 1.36378   1
   2   8 -26 281.312 9.36539   1
   2   8 -25 3.18307 1.29853   1
   2   8 -24 659.601 17.1088   1
   2   8 -23 2.34745 1.40055   1
   2   8 -22 422.232  10.864   1
   2   8 -21 13.8399 0.97269   1
   2   8 -20 671.515 15.7632   1
   2   8 -19 25.1534  1.0794   1
   2   8 -18 620.852 14.5772   1
   2   8 -17 127.114 3.23284   1
   2   8 -16 339.931  8.4383   1
   2   8 -15 64.2878 2.12306   1
   2   8 -14  932.69  21.036   1
   2   8 -13 34.2107 1.07131   1
   2   8 -12 304.549 7.07758   1
   2   8 -11 8.13473 1.19022   1
   2   8 -10 224.557 5.26281   1
   2   8  -9 503.312 11.6555   1
   2   8  -8 212.267 5.17734   1
   2   8  -7 1179.04  27.697   1
   2   8  -6 21.3994 1.47072   1
   2   8  -5 1447.39 33.0399   1
   2   8  -4 26.0064 1.65452   1
   2   8  -3 733.089 16.9316   1
   2   8  -2 46.8954 1.67649   1
   2   8  -1 1292.03 29.3512   1
   2   8   0 14.9202 1.37573   1
   2   8   1 1272.43 28.7299   1
   2   8   2 46.0836 1.87401   1
   2   8   3 724.893 16.7268   1
   2   8   4 24.3859 1.55398   1
   2   8   5 1386.08 31.3183   1
   2   8   6 16.8148  1.1125   1
   2   8   7 1129.53 25.7182   1
   2   8   8 206.154 4.89538   1
   2   8   9 513.492 11.8488   1
   2   8  10 238.573 5.95711   1
   2   8  11 6.69782 1.73312   1
   2   8  12  282.08 7.15617   1
   2   8  13 34.1563 1.25039   1
   2   8  14 941.099  21.409   1
   2   8  15  65.643  2.2384   1
   2   8  16 344.035 8.00421   1
   2   8  17 126.067 3.19506   1
   2   8  18 611.247 14.2451   1
   2   8  19  26.665 1.07314   1
   2   8  20 691.393 16.0575   1
   2   8  21 16.6624 1.21293   1
   2   8  22 415.154 9.83814   1
   2   8  23 2.54943 0.92661   1
   2   8  24 666.371 16.5825   1
   2   8  25 0.28745 1.47689   1
   2   8  26 268.908 7.24699   1
   2   8  27 17.9963 2.17736   1
   2   8  28 192.437 5.21317   1
   2   8  29 198.092 5.56041   1
   2   8  30 116.328 3.77551   1
   2   8  31 432.257 14.1569   1
   2   8  32 13.4217 1.76636   1
   2   8  33 399.497 11.5245   1
   2   8  34 33.1118 2.57288   1
   2   8  35  309.58 10.5437   1
   2   8  36 2.71981 1.58142   1
   2   8  37  171.83 9.94242   1
   2   8  38 7.72277 2.16541   1
   2   8  39 155.871 6.64394   1
   2   8  40 10.2358 2.20999   1
   2   8  41 142.689 6.92819   1
   2   8  42 13.0179 2.78721   1
   2   8  43 103.171 6.65162   1
   2   9 -42 8.83264 2.99258   1
   2   9 -41 138.636 4.94631   1
   2   9 -40 9.47214 2.04628   1
   2   9 -39  265.22  8.0676   1
   2   9 -38 22.5956 2.06983   1
   2   9 -37 132.769 4.57795   1
   2   9 -36 35.5357 2.17159   1
   2   9 -35 129.136 4.20316   1
   2   9 -34 30.9324  1.8748   1
   2   9 -33 84.6674 2.90696   1
   2   9 -32 20.5635 1.77232   1
   2   9 -31 86.2421 3.08443   1
   2   9 -30 267.513 7.96679   1
   2   9 -29 152.992 4.54551   1
   2   9 -28 508.769 12.5611   1
   2   9 -27 200.964 5.52203   1
   2   9 -26 610.267 15.6885   1
   2   9 -25 295.122 7.76334   1
   2   9 -24 354.336 8.77882   1
   2   9 -23 281.904  10.316   1
   2   9 -22 87.5601 3.35271   1
   2   9 -21 173.088 5.17515   1
   2   9 -20 90.0679 2.67283   1
   2   9 -19 33.9817 1.54708   1
   2   9 -18 67.2699 2.50385   1
   2   9 -17  112.71 3.08895   1
   2   9 -16 296.195 6.93391   1
   2   9 -15 159.143 3.81102   1
   2   9 -14 803.446 18.1058   1
   2   9 -13 175.523 4.28069   1
   2   9 -12 1146.99 26.2018   1
   2   9 -11 544.331 12.5467   1
   2   9 -10 746.318 17.1819   1
   2   9  -9 158.447 4.25279   1
   2   9  -8 512.532 11.8339   1
   2   9  -7 125.028 3.52503   1
   2   9  -6 177.844 4.18276   1
   2   9  -5 322.775 7.34441   1
   2   9  -4 243.115 6.52845   1
   2   9  -3 954.526 21.8872   1
   2   9  -2 174.411 4.48482   1
   2   9  -1 360.293 8.50589   1
   2   9   0 22.1029 1.30983   1
   2   9   1  360.34 8.55817   1
   2   9   2 169.838 4.45206   1
   2   9   3 971.701 22.2742   1
   2   9   4  234.69  5.3616   1
   2   9   5  300.32 6.96351   1
   2   9   6 164.435 3.83853   1
   2   9   7 126.429 3.19878   1
   2   9   8 504.776 11.5059   1
   2   9   9 162.575  3.9079   1
   2   9  10 753.197 17.1634   1
   2   9  11 539.223 12.3671   1
   2   9  12 1137.28 27.2436   1
   2   9  13 184.736 5.15236   1
   2   9  14 840.734  19.412   1
   2   9  15  169.11  4.0824   1
   2   9  16 302.946 7.25451   1
   2   9  17 115.409 2.92475   1
   2   9  18 60.7163 1.94567   1
   2   9  19 31.9795  1.3352   1
   2   9  20 98.9442 3.19868   1
   2   9  21 174.947  7.3565   1
   2   9  22  94.925 3.34172   1
   2   9  23 280.363 7.35595   1
   2   9  24 353.149 9.02693   1
   2   9  25 290.275 7.71215   1
   2   9  26 611.143 16.5842   1
   2   9  27 211.196 6.03877   1
   2   9  28 492.924 13.1238   1
   2   9  29  173.15 5.10036   1
   2   9  30 267.579 8.64102   1
   2   9  31 87.7199 4.56388   1
   2   9  32 16.9376 2.02457   1
   2   9  33 80.8442  4.1048   1
   2   9  34 32.8401 2.30719   1
   2   9  35 135.745   5.441   1
   2   9  36 35.2512  2.3358   1
   2   9  37 137.377 6.65896   1
   2   9  38 21.2903 2.63511   1
   2   9  39 263.581 9.79357   1
   2   9  40 8.05736 2.76006   1
   2   9  41 141.582 6.57523   1
   2   9  42   11.88 5.11547   1
   2  10 -39 6.99266 2.21885   1
   2  10 -38 73.9631 3.83047   1
   2  10 -37 9.72246 1.98889   1
   2  10 -36 208.363 6.61094   1
   2  10 -35 75.3791 2.88982   1
   2  10 -34  88.423 3.58362   1
   2  10 -33 190.101 6.13286   1
   2  10 -32 254.425 7.16545   1
   2  10 -31 170.751 5.69312   1
   2  10 -30 319.935 10.0368   1
   2  10 -29 111.421 5.32703   1
   2  10 -28 94.1828 3.18455   1
   2  10 -27 99.8874 3.28523   1
   2  10 -26 97.2622 4.75668   1
   2  10 -25 78.2562 3.56708   1
   2  10 -24 74.4331 2.52738   1
   2  10 -23 337.455 9.16528   1
   2  10 -22 129.087 4.49281   1
   2  10 -21 620.677 16.0224   1
   2  10 -20 36.0952 1.92684   1
   2  10 -19 898.447 20.6852   1
   2  10 -18 74.9376 2.33233   1
   2  10 -17 522.179 12.5211   1
   2  10 -16 36.9611 1.32004   1
   2  10 -15 429.971 10.6423   1
   2  10 -14 171.099 4.20852   1
   2  10 -13 216.949 5.08537   1
   2  10 -12 31.5831 1.11527   1
   2  10 -11 76.6235 2.15214   1
   2  10 -10 184.525 4.42295   1
   2  10  -9 272.515 6.30808   1
   2  10  -8 585.461 13.3613   1
   2  10  -7 628.918 14.3834   1
   2  10  -6 413.576 9.59085   1
   2  10  -5 210.953 4.94637   1
   2  10  -4  432.13 9.85282   1
   2  10  -3 26.9826 1.23706   1
   2  10  -2 427.246 12.2224   1
   2  10  -1 43.0122 1.32402   1
   2  10   0 446.443 10.2712   1
   2  10   1 50.0106 1.66013   1
   2  10   2 400.362 9.17115   1
   2  10   3 28.8464  1.0473   1
   2  10   4 429.575 9.93773   1
   2  10   5 204.794 5.03265   1
   2  10   6 410.477 9.45143   1
   2  10   7 618.162  14.196   1
   2  10   8 571.821 13.1288   1
   2  10   9 259.581 7.11393   1
   2  10  10 193.814 4.81207   1
   2  10  11 64.7477 1.82596   1
   2  10  12 26.6317 1.07423   1
   2  10  13 212.347  5.1019   1
   2  10  14 179.905 4.34874   1
   2  10  15 439.187 11.1547   1
   2  10  16 33.6828 1.61959   1
   2  10  17 547.581 14.0164   1
   2  10  18 78.4753 2.96558   1
   2  10  19 884.485 22.5767   1
   2  10  20 41.4788 2.38016   1
   2  10  21 596.542 21.2687   1
   2  10  22  133.70  3.9491   1
   2  10  23 327.595 8.46115   1
   2  10  24 74.6807 2.53079   1
   2  10  25 75.8061 2.55025   1
   2  10  26 92.8168 3.30272   1
   2  10  27 108.887 3.99264   1
   2  10  28 93.2963  3.7917   1
   2  10  29 115.554 4.01955   1
   2  10  30 318.447 9.70136   1
   2  10  31 159.981  5.7425   1
   2  10  32  268.46 9.34426   1
   2  10  33 195.533 7.08455   1
   2  10  34 82.2255 3.68922   1
   2  10  35 71.1225 3.73549   1
   2  10  36 214.298 8.56616   1
   2  10  37 6.36313 4.38098   1
   2  10  38 76.7643 4.08358   1
   2  10  39 6.76047 2.46895   1
   2  11 -37  6.2386  1.9178   1
   2  11 -36 61.2689 3.13634   1
   2  11 -35 73.6501 3.30808   1
   2  11 -34 160.174 5.96331   1
   2  11 -33  146.64 5.04242   1
   2  11 -32 147.492 7.36899   1
   2  11 -31  91.214 4.21702   1
   2  11 -30 97.4719 4.40735   1
   2  11 -29 60.9204 2.95651   1
   2  11 -28 91.8128 4.76754   1
   2  11 -27 65.7258 3.51531   1
   2  11 -26 161.733 5.71798   1
   2  11 -25 229.559 7.00875   1
   2  11 -24 168.672 5.09826   1
   2  11 -23 238.357 8.63219   1
   2  11 -22 69.4095 2.67307   1
   2  11 -21 183.801 5.76323   1
   2  11 -20 20.7898 1.72867   1
   2  11 -19  294.94 7.29035   1
   2  11 -18 2.27381 1.13325   1
   2  11 -17 295.303 7.56012   1
   2  11 -16 46.8422 1.70395   1
   2  11 -15 301.477 7.41225   1
   2  11 -14 191.965 4.95691   1
   2  11 -13 194.407 4.87124   1
   2  11 -12 174.671 4.63731   1
   2  11 -11 193.322 5.03911   1
   2  11 -10 186.733 4.60496   1
   2  11  -9 198.467 5.13158   1
   2  11  -8 132.465 3.90889   1
   2  11  -7 310.478 7.49323   1
   2  11  -6 246.707 5.89321   1
   2  11  -5 423.001 9.89155   1
   2  11  -4 369.902 9.80314   1
   2  11  -3 111.584 2.89233   1
   2  11  -2 415.324 9.73309   1
   2  11  -1 13.0894 0.89543   1
   2  11   0 368.079 8.59551   1
   2  11   1 13.4396 1.09116   1
   2  11   2 416.755 10.0699   1
   2  11   3 109.846  2.9741   1
   2  11   4 360.421 8.88117   1
   2  11   5 435.905 10.1649   1
   2  11   6 252.177 6.40353   1
   2  11   7 303.138 7.41461   1
   2  11   8 124.772 3.15117   1
   2  11   9 197.741 4.98347   1
   2  11  10 180.245 5.02133   1
   2  11  11 191.055 4.80022   1
   2  11  12 181.844 5.26349   1
   2  11  13 184.424 5.26763   1
   2  11  14 191.283 7.31628   1
   2  11  15 284.654 7.51705   1
   2  11  16  42.341 2.24324   1
   2  11  17 279.275 8.72054   1
   2  11  18 2.58596 1.10953   1
   2  11  19 293.812 7.93203   1
   2  11  20 17.7905 1.46767   1
   2  11  21 205.027  5.8089   1
   2  11  22 73.9006 3.34542   1
   2  11  23 257.738 7.12428   1
   2  11  24 170.478 5.56259   1
   2  11  25 226.281 6.75155   1
   2  11  26 158.421 6.35682   1
   2  11  27 69.0248  3.1396   1
   2  11  28  100.60 4.10753   1
   2  11  29 52.9127 4.64729   1
   2  11  30 101.958 5.06259   1
   2  11  31 90.8657 6.14642   1
   2  11  32  146.52 6.50967   1
   2  11  33 148.295 7.30022   1
   2  11  34 164.147 8.47331   1
   2  11  35 71.3112 4.80263   1
   2  11  36   65.48 8.38666   1
   2  11  37 5.78415 2.58445   1
   2  12 -34 21.8327 2.13246   1
   2  12 -33 40.6579 2.71517   1
   2  12 -32 3.96972 2.02693   1
   2  12 -31 73.2433 3.51248   1
   2  12 -30 6.77155 1.82584   1
   2  12 -29 106.183 4.37557   1
   2  12 -28 64.9374 2.98172   1
   2  12 -27 221.743 8.95607   1
   2  12 -26 206.992 8.22711   1
   2  12 -25 125.087 5.45318   1
   2  12 -24 218.544 6.79053   1
   2  12 -23 55.5351 2.42505   1
   2  12 -22 498.556 12.8375   1
   2  12 -21 174.967 4.90675   1
   2  12 -20 173.663 4.78716   1
   2  12 -19 59.6898 3.36525   1
   2  12 -18 304.209 8.03394   1
   2  12 -17 106.173 3.15684   1
   2  12 -16 508.932 13.1408   1
   2  12 -15  209.92 5.44898   1
   2  12 -14 358.668 9.82187   1
   2  12 -13 397.974 10.3083   1
   2  12 -12 174.788 5.30363   1
   2  12 -11 288.382 7.39621   1
   2  12 -10  55.515  1.9223   1
   2  12  -9 102.955 3.34058   1
   2  12  -8 2.94442 1.04185   1
   2  12  -7 164.952 4.56476   1
   2  12  -6  40.809  1.6567   1
   2  12  -5 119.375 3.32572   1
   2  12  -4 197.755 5.34784   1
   2  12  -3 177.085 4.59031   1
   2  12  -2 431.098 10.4334   1
   2  12  -1 65.0413 2.08391   1
   2  12   0 557.092 13.0963   1
   2  12   1 63.1065 2.12742   1
   2  12   2 421.902 10.5271   1
   2  12   3 181.819 4.76904   1
   2  12   4 201.148 5.44005   1
   2  12   5 120.299 3.97555   1
   2  12   6 48.8741  1.8433   1
   2  12   7 164.156 4.21915   1
   2  12   8 4.19668 1.02407   1
   2  12   9 106.967 3.45144   1
   2  12  10 53.6625 1.77358   1
   2  12  11 286.031 7.06345   1
   2  12  12 171.246 5.80684   1
   2  12  13  395.24  10.245   1
   2  12  14 349.211 9.99858   1
   2  12  15 211.862 5.63847   1
   2  12  16  500.96 12.7366   1
   2  12  17 104.789 3.34908   1
   2  12  18  274.17  7.9854   1
   2  12  19 63.7332 3.65083   1
   2  12  20 184.835 8.82278   1
   2  12  21 175.924 6.01872   1
   2  12  22 506.401 16.5079   1
   2  12  23 64.5466 2.75362   1
   2  12  24  217.73 9.11135   1
   2  12  25 124.762 5.28356   1
   2  12  26 211.428 7.78385   1
   2  12  27 237.651 9.06964   1
   2  12  28 70.2286 4.96761   1
   2  12  29  107.26 4.10397   1
   2  12  30 4.49749 2.08797   1
   2  12  31 76.1635 5.38787   1
   2  12  32 3.59664 2.77022   1
   2  12  33 40.4976 3.58902   1
   2  12  34 22.4919 5.05231   1
   2  13 -30 54.0296 3.33544   1
   2  13 -29 154.589 8.40851   1
   2  13 -28 61.9566 3.13114   1
   2  13 -27 64.5024 3.27233   1
   2  13 -26 71.3964 3.12345   1
   2  13 -25 40.2115 3.00449   1
   2  13 -24 138.056 7.19878   1
   2  13 -23 41.7306 2.45103   1
   2  13 -22 124.214 5.21792   1
   2  13 -21 213.385 9.07807   1
   2  13 -20 194.323 7.39312   1
   2  13 -19 195.446 6.02383   1
   2  13 -18 236.241 7.77649   1
   2  13 -17 88.3595 3.76094   1
   2  13 -16 117.429 4.74736   1
   2  13 -15 33.4953 1.84273   1
   2  13 -14 222.868 6.01462   1
   2  13 -13 69.9818 3.22201   1
   2  13 -12 148.848 4.31756   1
   2  13 -11 251.572 6.99642   1
   2  13 -10 120.399 3.62526   1
   2  13  -9  284.65 7.40277   1
   2  13  -8 145.492  4.0263   1
   2  13  -7 202.077 5.40382   1
   2  13  -6  158.01 4.51258   1
   2  13  -5 303.074  7.8547   1
   2  13  -4  179.73 5.06283   1
   2  13  -3 266.677 6.75393   1
   2  13  -2  117.83 3.47237   1
   2  13  -1 78.1404 2.63441   1
   2  13   0 182.885 4.92953   1
   2  13   1 88.4217 2.92292   1
   2  13   2  113.49 3.23607   1
   2  13   3 284.452 7.19542   1
   2  13   4 176.029 5.44319   1
   2  13   5  301.24  7.5662   1
   2  13   6 161.743 4.87923   1
   2  13   7 205.254 5.22952   1
   2  13   8 141.986  3.8438   1
   2  13   9 276.572 7.29937   1
   2  13  10 119.941 3.44262   1
   2  13  11 235.319 6.19963   1
   2  13  12 131.876 3.55956   1
   2  13  13 62.1123 2.24728   1
   2  13  14 218.723 7.01429   1
   2  13  15 33.6207 1.98271   1
   2  13  16 114.891 3.55074   1
   2  13  17 88.4269 3.16824   1
   2  13  18 232.862 10.4496   1
   2  13  19 190.526  6.9128   1
   2  13  20 196.644 10.6013   1
   2  13  21  203.51 7.59838   1
   2  13  22 133.643 5.82492   1
   2  13  23 40.7779 3.24926   1
   2  13  24 145.005 11.7851   1
   2  13  25 47.0242 3.59832   1
   2  13  26 80.9244 3.82697   1
   2  13  27 72.4574  9.7027   1
   2  13  28 62.0576 4.36125   1
   2  13  29 141.326 6.57224   1
   2  13  30 46.4346 3.27783   1
   2  14 -25 1.08945 2.44605   1
   2  14 -24 76.5947 3.63461   1
   2  14 -23 24.0647 2.56287   1
   2  14 -22 201.059 7.65779   1
   2  14 -21 22.8872 2.12603   1
   2  14 -20 136.557 5.68133   1
   2  14 -19 1.81042 1.96015   1
   2  14 -18 100.269 3.47798   1
   2  14 -17 35.5141 2.15985   1
   2  14 -16 295.742 12.3388   1
   2  14 -15 42.6814 2.42237   1
   2  14 -14 215.227 6.63001   1
   2  14 -13 52.8297 2.42108   1
   2  14 -12 284.434 8.06018   1
   2  14 -11 85.3337 3.11227   1
   2  14 -10 242.833 7.15298   1
   2  14  -9 152.984 4.79569   1
   2  14  -8 53.6245 2.55534   1
   2  14  -7 332.865  8.4597   1
   2  14  -6 60.9092 2.33565   1
   2  14  -5 234.262 7.49984   1
   2  14  -4 10.1785 1.50944   1
   2  14  -3 98.4237 3.28864   1
   2  14  -2 34.4818 1.80874   1
   2  14  -1 245.753 8.43666   1
   2  14   0 19.6203 1.47433   1
   2  14   1 247.146 7.17041   1
   2  14   2 35.4725 1.79857   1
   2  14   3 89.6723 2.96936   1
   2  14   4 9.58827 1.43934   1
   2  14   5 230.587 8.34042   1
   2  14   6 56.6931 2.11451   1
   2  14   7 325.876 10.2464   1
   2  14   8 61.1463 2.52199   1
   2  14   9 158.458 5.44247   1
   2  14  10 236.191 6.42333   1
   2  14  11  86.512 3.30092   1
   2  14  12 275.227 8.73877   1
   2  14  13 56.8161 2.54819   1
   2  14  14 205.461 7.91961   1
   2  14  15 47.7604 2.33337   1
   2  14  16 298.026 9.71095   1
   2  14  17 35.2345 2.25732   1
   2  14  18 94.2724 4.25587   1
   2  14  19 2.16861 2.19953   1
   2  14  20 144.199 5.62212   1
   2  14  21 22.4741 2.94185   1
   2  14  22 211.432 9.77853   1
   2  14  23 26.1122 2.47359   1
   2  14  24 80.8854 4.08214   1
   2  14  25 1.48699 2.16303   1
   2  15 -19 96.6481 6.45863   1
   2  15 -18 28.2333 2.64255   1
   2  15 -17 117.424 5.86552   1
   2  15 -16 33.8967 2.26274   1
   2  15 -15 57.6595 2.86919   1
   2  15 -14 219.189 7.06204   1
   2  15 -13 64.7849 4.24043   1
   2  15 -12  433.31  17.461   1
   2  15 -11 78.2213 4.44948   1
   2  15 -10 249.073 8.69359   1
   2  15  -9 86.3245 3.31754   1
   2  15  -8 96.9573 4.18585   1
   2  15  -7 31.3884 1.99244   1
   2  15  -6 93.6191 4.02742   1
   2  15  -5 85.9109  3.0024   1
   2  15  -4 112.787 3.97206   1
   2  15  -3 270.706 7.58041   1
   2  15  -2 51.6981 2.52136   1
   2  15  -1 268.679 8.69535   1
   2  15   0 6.87676 1.51404   1
   2  15   1 279.711 8.29866   1
   2  15   2 43.8758 2.06861   1
   2  15   3 267.233 7.76309   1
   2  15   4 104.323 5.39009   1
   2  15   5 82.0405 2.82385   1
   2  15   6 87.7632 4.70088   1
   2  15   7 27.7299 1.79389   1
   2  15   8 88.6995 3.82571   1
   2  15   9 77.3883 3.14107   1
   2  15  10 230.087 7.55597   1
   2  15  11 66.6052 2.82352   1
   2  15  12 407.984 16.9379   1
   2  15  13 58.2985 2.92423   1
   2  15  14 230.263 8.11455   1
   2  15  15 57.4649 3.05239   1
   2  15  16 31.2555 2.31364   1
   2  15  17 113.056 4.16053   1
   2  15  18 26.6137 2.65679   1
   2  15  19 101.114 4.36206   1
   2  16  -9 116.157 7.11255   1
   2  16  -8 111.471 4.49414   1
   2  16  -7 129.116   4.733   1
   2  16  -6 135.551 5.13023   1
   2  16  -5 143.551 5.44442   1
   2  16  -4  129.55 4.45821   1
   2  16  -3 25.9037 2.23188   1
   2  16  -2 121.323 4.87389   1
   2  16  -1 26.7144 2.21081   1
   2  16   0 181.937 8.06221   1
   2  16   1 28.2981 2.22559   1
   2  16   2 109.628  4.4878   1
   2  16   3 29.2945 2.17542   1
   2  16   4 131.082 4.43959   1
   2  16   5 139.916 4.52328   1
   2  16   6 138.802 7.82092   1
   2  16   7 117.497 4.68015   1
   2  16   8 100.412 3.91318   1
   2  16   9 107.546 4.41042   1
   3   0   1 2471.98 55.5299   1
   3   0   2 39.5424 1.31943   1
   3   0   3 3698.19 82.7259   1
   3   0   4 2835.06 63.2834   1
   3   0   5 3715.66 83.2455   1
   3   0   6 603.539 13.5724   1
   3   0   7 1556.12 34.5721   1
   3   0   8 538.304 12.1242   1
   3   0   9 1902.24 43.9782   1
   3   0  10  30.465 0.99848   1
   3   0  11 400.542 9.04484   1
   3   0  12 69.6346 1.79153   1
   3   0  13 56.8988 1.48202   1
   3   0  14 322.877 7.37511   1
   3   0  15 106.488 2.58557   1
   3   0  16 3.23324 0.86329   1
   3   0  17 101.882 2.52282   1
   3   0  18 613.975  14.107   1
   3   0  19 9.15691 0.87304   1
   3   0  20 1197.43 27.4118   1
   3   0  21 26.2255 1.43301   1
   3   0  22 585.991 13.9532   1
   3   0  23 83.5073 3.05412   1
   3   0  24 36.8418 2.06893   1
   3   0  25 11.5627 1.81793   1
   3   0  26 21.7647 1.59504   1
   3   0  27  149.29 3.70215   1
   3   0  28 10.4115 0.89229   1
   3   0  29 839.567 20.6064   1
   3   0  30 30.7353 1.32685   1
   3   0  31 980.582 22.6335   1
   3   0  32 0.50951 2.07145   1
   3   0  33 888.127 21.6925   1
   3   0  34 17.4012 3.21004   1
   3   0  35 1336.40 36.6198   1
   3   0  36 35.2195 2.23915   1
   3   0  37 507.138 14.2312   1
   3   0  38 0.68501 1.49734   1
   3   0  39 274.869 7.68822   1
   3   0  40 88.9076 3.33995   1
   3   0  41 358.007  10.881   1
   3   0  42 96.1384 3.54242   1
   3   0  43 354.742 10.7306   1
   3   0  44 49.1076 2.27602   1
   3   0  45 96.5081 3.72432   1
   3   0  46 2.08203 1.62744   1
   3   0  47 133.097 5.05958   1
   3   0  48 6.21584 2.01343   1
   3   0  49 87.5022 4.02094   1
   3   1 -49 103.861 4.69935   1
   3   1 -48 95.9803 4.28172   1
   3   1 -47   44.69 2.46235   1
   3   1 -46 310.798 11.9849   1
   3   1 -45 18.4212 1.99846   1
   3   1 -44 113.712 4.22126   1
   3   1 -43 75.0328 2.98735   1
   3   1 -42 138.205 4.34039   1
   3   1 -41 339.383 10.4539   1
   3   1 -40 219.312 6.47143   1
   3   1 -39 331.354 10.0262   1
   3   1 -38 66.8767 3.03392   1
   3   1 -37 264.487 8.14672   1
   3   1 -36 86.5402 2.61718   1
   3   1 -35 65.4005 2.09433   1
   3   1 -34  51.693 2.15006   1
   3   1 -33 12.9543 0.87185   1
   3   1 -32 376.509 8.99446   1
   3   1 -31 247.674 6.11516   1
   3   1 -30  688.05 16.1441   1
   3   1 -29 396.619 9.69647   1
   3   1 -28 550.926 12.6794   1
   3   1 -27 921.396 21.3007   1
   3   1 -26 839.644 19.1491   1
   3   1 -25 718.255 16.1331   1
   3   1 -24 645.495 14.9394   1
   3   1 -23 311.825  7.5652   1
   3   1 -22 374.275   8.912   1
   3   1 -21 85.0506  2.6956   1
   3   1 -20 502.894 11.6101   1
   3   1 -19 41.1118 1.92298   1
   3   1 -18 470.688 10.8225   1
   3   1 -17 308.788 7.22311   1
   3   1 -16 190.591 4.65534   1
   3   1 -15 157.973 3.85923   1
   3   1 -14 882.011 20.0968   1
   3   1 -13 1245.66 28.3058   1
   3   1 -12 862.854 19.4644   1
   3   1 -11 1664.58 37.3683   1
   3   1 -10 945.213 21.4669   1
   3   1  -9  622.13 14.0455   1
   3   1  -8 1723.99 38.9316   1
   3   1  -7 110.952 2.65507   1
   3   1  -6 1440.12 32.1059   1
   3   1  -5 356.068  8.0717   1
   3   1  -4 441.712 9.97737   1
   3   1  -3 273.766 6.28165   1
   3   1  -2 478.256 10.8236   1
   3   1  -1  706.88 15.9543   1
   3   1   0  1.7253 0.90674   1
   3   1   1  671.55 15.2253   1
   3   1   2 473.635 10.7787   1
   3   1   3 257.656 5.89005   1
   3   1   4 435.763 9.83441   1
   3   1   5 367.198 8.47576   1
   3   1   6 1394.33 31.1274   1
   3   1   7 120.325  2.8583   1
   3   1   8 1742.97 39.6121   1
   3   1   9 650.162 14.6126   1
   3   1  10  939.03 20.9877   1
   3   1  11 1653.83 37.1165   1
   3   1  12 901.876  20.192   1
   3   1  13 1233.24  27.704   1
   3   1  14 873.633 19.6525   1
   3   1  15 142.414 3.33912   1
   3   1  16 191.327 4.44698   1
   3   1  17 293.684 6.74799   1
   3   1  18 484.717 11.0188   1
   3   1  19  36.658 1.33631   1
   3   1  20 500.307 11.5754   1
   3   1  21 97.1928 2.58505   1
   3   1  22 383.562 9.07904   1
   3   1  23 318.059 7.63099   1
   3   1  24 633.388 15.9371   1
   3   1  25 721.137 16.9011   1
   3   1  26 852.815 19.5622   1
   3   1  27 922.388 20.9946   1
   3   1  28 574.727 14.4434   1
   3   1  29  368.62 8.72991   1
   3   1  30  672.99 16.0898   1
   3   1  31 237.039 6.07374   1
   3   1  32 373.199  9.9528   1
   3   1  33 15.1428 1.22783   1
   3   1  34 59.1043 2.23356   1
   3   1  35 75.8752 2.59636   1
   3   1  36 83.6965 2.64304   1
   3   1  37 271.343  7.1491   1
   3   1  38 71.0839 2.49114   1
   3   1  39 327.546 9.22498   1
   3   1  40 230.701 6.94216   1
   3   1  41 324.822 9.57027   1
   3   1  42 133.938 4.21095   1
   3   1  43 73.2274 3.08287   1
   3   1  44 113.916   3.978   1
   3   1  45 15.6268 1.87124   1
   3   1  46  323.40 11.3791   1
   3   1  47 46.5701 3.10805   1
   3   1  48 93.8465 6.56012   1
   3   1  49 115.239  6.1567   1
   3   2 -48  31.801  2.4584   1
   3   2 -47 11.1475 2.05961   1
   3   2 -46 45.8207 2.65777   1
   3   2 -45 9.85009 1.87977   1
   3   2 -44 226.578 8.63943   1
   3   2 -43 26.8448 2.08187   1
   3   2 -42 346.059 9.92128   1
   3   2 -41 131.217 4.87055   1
   3   2 -40 327.446 9.97742   1
   3   2 -39 159.189 4.97478   1
   3   2 -38  752.83 19.9939   1
   3   2 -37 313.935   8.216   1
   3   2 -36 881.372 23.5415   1
   3   2 -35 188.405 5.95167   1
   3   2 -34  570.98 13.9027   1
   3   2 -33 19.6086 1.67006   1
   3   2 -32 618.144 14.5101   1
   3   2 -31 21.4804 1.24185   1
   3   2 -30 718.759 16.8644   1
   3   2 -29 359.549 8.63211   1
   3   2 -28 85.9297 2.29979   1
   3   2 -27 241.759 5.56789   1
   3   2 -26 91.8016 2.44435   1
   3   2 -25 241.143 5.61561   1
   3   2 -24 48.1126 1.35958   1
   3   2 -23 439.198 10.3715   1
   3   2 -22 47.1948 2.15161   1
   3   2 -21 89.7269 3.19521   1
   3   2 -20 51.7556 2.03473   1
   3   2 -19 8.61272 1.57312   1
   3   2 -18 174.625 4.62255   1
   3   2 -17 62.8716 1.96868   1
   3   2 -16 8.19034 1.35528   1
   3   2 -15 513.739 11.6987   1
   3   2 -14 112.741 2.91693   1
   3   2 -13 929.475 20.8808   1
   3   2 -12  78.215 2.10515   1
   3   2 -11 541.384  12.505   1
   3   2 -10 224.498 5.42827   1
   3   2  -9 1329.20 29.9238   1
   3   2  -8 1078.35 24.8364   1
   3   2  -7 70.4146 2.15019   1
   3   2  -6 2394.06 53.6423   1
   3   2  -5 424.552 9.80127   1
   3   2  -4 1716.51 38.3797   1
   3   2  -3 539.518 12.1827   1
   3   2  -2 3350.00  75.273   1
   3   2  -1 1782.27 40.4485   1
   3   2   0 4233.28 94.4066   1
   3   2   1 1820.87 40.8424   1
   3   2   2 3278.91 73.5666   1
   3   2   3  520.44 11.7979   1
   3   2   4 1743.41 38.9746   1
   3   2   5  404.49 9.14487   1
   3   2   6 2468.80 56.5128   1
   3   2   7  67.314 1.70761   1
   3   2   8 1098.03 24.9379   1
   3   2   9 1287.52 28.7069   1
   3   2  10 205.161  4.9471   1
   3   2  11 530.405  11.913   1
   3   2  12 90.6943 2.32771   1
   3   2  13 937.505 20.9872   1
   3   2  14  114.88 2.82387   1
   3   2  15 530.181 11.9587   1
   3   2  16 10.4184 0.87111   1
   3   2  17 72.4675  1.9357   1
   3   2  18 189.454 4.48849   1
   3   2  19  11.023 0.45077   1
   3   2  20 48.1789 1.50575   1
   3   2  21 80.5282 2.14428   1
   3   2  22 44.8129  1.1485   1
   3   2  23 437.769 9.89129   1
   3   2  24 50.7389 1.33294   1
   3   2  25 234.491 5.40613   1
   3   2  26 84.8395 2.12126   1
   3   2  27 235.416 5.67278   1
   3   2  28  81.838 2.77251   1
   3   2  29 373.182 9.16081   1
   3   2  30 748.544 18.3597   1
   3   2  31 24.9548 1.27214   1
   3   2  32  610.27 15.5464   1
   3   2  33 15.1813 2.51325   1
   3   2  34 583.886 15.4789   1
   3   2  35 170.717 5.21832   1
   3   2  36 906.593 25.5686   1
   3   2  37 306.911 10.5783   1
   3   2  38 763.096 20.1158   1
   3   2  39  160.44 4.99212   1
   3   2  40 335.818 9.11696   1
   3   2  41 122.745 4.36592   1
   3   2  42 337.863 10.3045   1
   3   2  43 32.6241 2.72545   1
   3   2  44 234.727 9.68905   1
   3   2  45 13.4327 1.94631   1
   3   2  46  47.953 4.11906   1
   3   2  47 8.15327 2.10017   1
   3   2  48  26.411 2.56723   1
   3   3 -48 68.2798 3.57975   1
   3   3 -47 174.677 7.21139   1
   3   3 -46 79.8371 4.29823   1
   3   3 -45 348.854 10.8097   1
   3   3 -44 83.2404 3.93859   1
   3   3 -43 378.779 11.1334   1
   3   3 -42 19.9814 2.26045   1
   3   3 -41 320.629 8.92953   1
   3   3 -40 11.0171 1.80728   1
   3   3 -39  81.815 3.06483   1
   3   3 -38 32.0724 1.83415   1
   3   3 -37 16.0204 1.35243   1
   3   3 -36 61.4424 2.12305   1
   3   3 -35 163.373 4.26739   1
   3   3 -34 213.732  5.5454   1
   3   3 -33 328.311 8.03791   1
   3   3 -32 387.594 10.5756   1
   3   3 -31 607.111 13.9957   1
   3   3 -30 468.158 10.7758   1
   3   3 -29 366.142 8.69772   1
   3   3 -28 266.584 6.04951   1
   3   3 -27 267.345 6.31617   1
   3   3 -26 5.73709 1.04315   1
   3   3 -25 683.584 17.1082   1
   3   3 -24 40.9585  1.4632   1
   3   3 -23 1009.21 23.0649   1
   3   3 -22 229.373 5.57669   1
   3   3 -21 776.629 18.6015   1
   3   3 -20 141.071 4.34358   1
   3   3 -19 1211.12  27.475   1
   3   3 -18 76.1984 2.79359   1
   3   3 -17 1116.99 25.5719   1
   3   3 -16 168.477 4.29995   1
   3   3 -15 579.534 13.2062   1
   3   3 -14 2.19039 1.19435   1
   3   3 -13 266.168 6.30713   1
   3   3 -12 220.674 5.44435   1
   3   3 -11 789.229  18.007   1
   3   3 -10 1305.39 29.5145   1
   3   3  -9 951.794 21.6852   1
   3   3  -8 901.208 20.8892   1
   3   3  -7 1487.91 34.0251   1
   3   3  -6 472.742 10.8159   1
   3   3  -5 2535.63 57.2537   1
   3   3  -4 754.332 17.1588   1
   3   3  -3 924.776 20.8006   1
   3   3  -2 30.2968 1.03003   1
   3   3  -1 192.724 4.49847   1
   3   3   0 1003.79 22.6504   1
   3   3   1  190.79 4.54517   1
   3   3   2 35.9917 1.24908   1
   3   3   3 935.121 20.9009   1
   3   3   4 771.259 17.2853   1
   3   3   5 2527.38 57.3229   1
   3   3   6  461.19 10.5585   1
   3   3   7 1486.11 33.6757   1
   3   3   8 908.924 20.3828   1
   3   3   9 953.163 21.5049   1
   3   3  10 1315.78 29.6554   1
   3   3  11 795.227  17.919   1
   3   3  12 209.415  4.9092   1
   3   3  13 275.606 6.50784   1
   3   3  14 3.78159 1.04238   1
   3   3  15 559.349 12.6998   1
   3   3  16 165.957 3.95102   1
   3   3  17 1146.49 25.7761   1
   3   3  18  75.797 2.13762   1
   3   3  19 1241.30 27.9992   1
   3   3  20 144.401 3.63821   1
   3   3  21 778.282 17.6274   1
   3   3  22 230.717 5.45589   1
   3   3  23 1040.26 23.7311   1
   3   3  24 40.3871 1.11568   1
   3   3  25 679.198 15.5195   1
   3   3  26 6.63088 0.69995   1
   3   3  27 272.144 6.50623   1
   3   3  28 265.653 6.68182   1
   3   3  29 376.096 9.22577   1
   3   3  30 474.901 11.9731   1
   3   3  31  590.88   14.40   1
   3   3  32 415.351 12.0975   1
   3   3  33 329.145 9.74577   1
   3   3  34 215.207 7.09002   1
   3   3  35 160.951 5.08237   1
   3   3  36 59.9304 2.86095   1
   3   3  37 15.1261 1.73668   1
   3   3  38 34.4392 1.92034   1
   3   3  39 78.2723 4.04817   1
   3   3  40 11.6672 2.95224   1
   3   3  41 334.845 11.6731   1
   3   3  42 20.9352 2.94163   1
   3   3  43 369.467 14.1047   1
   3   3  44 79.4631 4.03239   1
   3   3  45 344.164 16.0851   1
   3   3  46 73.4691 4.23722   1
   3   3  47 183.882 8.99696   1
   3   3  48  64.268 5.47603   1
   3   4 -47 11.8332 2.07074   1
   3   4 -46 64.1753 3.90185   1
   3   4 -45 17.8185 2.28563   1
   3   4 -44 75.9678 3.08491   1
   3   4 -43 143.491 4.70367   1
   3   4 -42 298.451  9.5471   1
   3   4 -41 341.883 10.3483   1
   3   4 -40 219.642 6.34193   1
   3   4 -39 533.586 14.0304   1
   3   4 -38 299.324 7.73889   1
   3   4 -37 590.334 15.3788   1
   3   4 -36 500.787 13.5915   1
   3   4 -35 575.812  13.816   1
   3   4 -34 316.034 7.70394   1
   3   4 -33 173.365 4.30896   1
   3   4 -32 331.364 8.56107   1
   3   4 -31 88.5951 4.08147   1
   3   4 -30 250.402 6.00159   1
   3   4 -29 257.726 6.15852   1
   3   4 -28 182.193 4.39685   1
   3   4 -27 183.148 4.79583   1
   3   4 -26 87.8705 2.79777   1
   3   4 -25 156.654 4.33255   1
   3   4 -24 93.9778 3.61804   1
   3   4 -23 278.107 6.39227   1
   3   4 -22  67.555 1.94322   1
   3   4 -21 51.2722 1.51466   1
   3   4 -20 79.6263 2.47532   1
   3   4 -19  97.008 3.05542   1
   3   4 -18 12.3253  1.8754   1
   3   4 -17 192.686 5.85747   1
   3   4 -16 146.974 4.03357   1
   3   4 -15 330.109 8.09582   1
   3   4 -14 165.225 4.24681   1
   3   4 -13 353.914 8.39792   1
   3   4 -12 78.9243 2.27585   1
   3   4 -11  358.94 8.22873   1
   3   4 -10 200.159 4.72163   1
   3   4  -9  496.96 11.5017   1
   3   4  -8 426.766 9.72976   1
   3   4  -7 327.182 7.49171   1
   3   4  -6 1066.48 24.0771   1
   3   4  -5 345.537 8.13634   1
   3   4  -4 1417.37 31.8397   1
   3   4  -3 1917.04 44.0561   1
   3   4  -2 1712.55 38.4291   1
   3   4  -1 2496.65 55.6143   1
   3   4   0 1601.47 35.7084   1
   3   4   1 2479.79 55.5696   1
   3   4   2 1719.59 40.2156   1
   3   4   3 1936.88 42.6189   1
   3   4   4 1438.37 32.1693   1
   3   4   5 313.342 7.51746   1
   3   4   6 1020.48 23.0712   1
   3   4   7 334.558 7.83696   1
   3   4   8 412.001 9.38701   1
   3   4   9  531.02 12.2297   1
   3   4  10 202.726 4.72581   1
   3   4  11 373.423 8.51447   1
   3   4  12 79.6695 2.18419   1
   3   4  13  361.93 8.36902   1
   3   4  14 155.355  3.9726   1
   3   4  15 321.272 7.43727   1
   3   4  16 142.267 3.58105   1
   3   4  17 198.504 5.26448   1
   3   4  18  11.511 1.02043   1
   3   4  19  99.296 2.79259   1
   3   4  20 83.9592 2.40147   1
   3   4  21 55.2424 1.91121   1
   3   4  22 67.4837 1.83291   1
   3   4  23 275.228 6.53575   1
   3   4  24 97.7698 2.43316   1
   3   4  25 161.282 3.90978   1
   3   4  26 87.4061 2.43589   1
   3   4  27 171.711 4.40214   1
   3   4  28 177.524 5.13384   1
   3   4  29 235.348 7.05729   1
   3   4  30 261.361 6.51691   1
   3   4  31 82.1919 3.10641   1
   3   4  32 342.052 9.55005   1
   3   4  33  169.75 4.68644   1
   3   4  34 333.223 9.77073   1
   3   4  35  593.26 15.0501   1
   3   4  36 508.594 17.0382   1
   3   4  37 561.416 19.7853   1
   3   4  38 295.951 16.4712   1
   3   4  39 540.269 19.8555   1
   3   4  40 232.303 12.5485   1
   3   4  41 320.276  12.202   1
   3   4  42 296.156 12.9264   1
   3   4  43 145.978  6.7535   1
   3   4  44 77.4666  4.2755   1
   3   4  45 21.8451  3.5173   1
   3   4  46  56.762 4.18538   1
   3   4  47 13.2015 2.85481   1
   3   5 -46 119.556  4.7808   1
   3   5 -45 3.66784 2.12407   1
   3   5 -44  284.32 11.4709   1
   3   5 -43 38.7289 2.60063   1
   3   5 -42 169.964 5.58267   1
   3   5 -41 76.9706 3.04173   1
   3   5 -40 82.0162 2.68518   1
   3   5 -39  98.725 3.22095   1
   3   5 -38  24.545 1.81817   1
   3   5 -37 84.8744 2.77139   1
   3   5 -36 5.20686 1.33003   1
   3   5 -35  122.09 3.59901   1
   3   5 -34 172.825 4.87015   1
   3   5 -33 89.7323 2.62535   1
   3   5 -32 302.386 7.90529   1
   3   5 -31 24.8402 1.96545   1
   3   5 -30 356.627 24.9998   1
   3   5 -29 57.0085 1.80037   1
   3   5 -28 678.054 16.3172   1
   3   5 -27 226.441 5.72271   1
   3   5 -26 368.108 8.92473   1
   3   5 -25 312.688 7.51117   1
   3   5 -24 700.595 18.5208   1
   3   5 -23 227.313 5.51148   1
   3   5 -22 630.635 14.5104   1
   3   5 -21 26.8385 1.37955   1
   3   5 -20 311.147 7.10273   1
   3   5 -19 39.7917 1.27541   1
   3   5 -18 697.955 15.7591   1
   3   5 -17 64.3925 1.88853   1
   3   5 -16 663.685 15.1886   1
   3   5 -15 492.954 11.6575   1
   3   5 -14 453.655 10.5106   1
   3   5 -13 601.331 13.7636   1
   3   5 -12 784.029 17.8676   1
   3   5 -11 136.837 3.46433   1
   3   5 -10 1539.37 34.9126   1
   3   5  -9 105.179 2.77429   1
   3   5  -8 777.087 17.4954   1
   3   5  -7 27.8199 1.15253   1
   3   5  -6 1339.89 30.1063   1
   3   5  -5 1051.13 23.7021   1
   3   5  -4 1186.83 27.0301   1
   3   5  -3 246.269 6.16636   1
   3   5  -2 52.1941 1.97159   1
   3   5  -1 1052.16 23.9158   1
   3   5   0 91.2198 2.39958   1
   3   5   1 1044.20 23.4478   1
   3   5   2 54.4962 1.79062   1
   3   5   3 253.863 5.90838   1
   3   5   4 1197.14 27.3333   1
   3   5   5 1073.97  24.138   1
   3   5   6 1335.35 30.6819   1
   3   5   7  26.848 1.35565   1
   3   5   8 774.717 17.4999   1
   3   5   9 102.615 2.64783   1
   3   5  10 1527.31 35.2984   1
   3   5  11 118.484 3.03028   1
   3   5  12 812.181 18.8713   1
   3   5  13  596.98 13.7687   1
   3   5  14 460.672 10.5825   1
   3   5  15 509.216 11.6716   1
   3   5  16  661.53 15.2052   1
   3   5  17 54.6585 1.94798   1
   3   5  18 703.884 16.0633   1
   3   5  19 41.4704 1.80668   1
   3   5  20 309.276 7.23474   1
   3   5  21  26.554 0.90157   1
   3   5  22 633.928 14.9039   1
   3   5  23  210.13 5.46206   1
   3   5  24 697.916 15.9912   1
   3   5  25 309.225 7.16765   1
   3   5  26 355.624 8.47114   1
   3   5  27 217.402 5.21637   1
   3   5  28 703.664 17.3729   1
   3   5  29 63.8084 2.23756   1
   3   5  30 357.494 9.28715   1
   3   5  31 25.4203 2.57004   1
   3   5  32 307.717 8.18299   1
   3   5  33 89.5238 4.28922   1
   3   5  34  175.17 5.12291   1
   3   5  35 114.056   5.015   1
   3   5  36 5.27701  1.5713   1
   3   5  37  93.676 4.77668   1
   3   5  38 22.8067 2.43646   1
   3   5  39 98.4254 4.51506   1
   3   5  40 86.0493 5.92888   1
   3   5  41  73.832 4.11671   1
   3   5  42 166.736 7.28824   1
   3   5  43 41.2421 3.71488   1
   3   5  44 284.156 17.5195   1
   3   5  45 0.82595 3.53912   1
   3   5  46 103.656  6.0315   1
   3   6 -45 168.487 6.09313   1
   3   6 -44 126.428 4.50568   1
   3   6 -43 186.471 8.22809   1
   3   6 -42 152.167 5.16102   1
   3   6 -41 209.821 6.86641   1
   3   6 -40 47.7645 2.33576   1
   3   6 -39  277.76 7.92788   1
   3   6 -38  98.392 4.05629   1
   3   6 -37 374.359  10.546   1
   3   6 -36  353.19 10.4149   1
   3   6 -35 569.879 14.4829   1
   3   6 -34 236.847 6.00756   1
   3   6 -33 874.008 20.8892   1
   3   6 -32 53.1104 1.73478   1
   3   6 -31 732.631 17.6992   1
   3   6 -30 41.8135 1.92842   1
   3   6 -29 566.402  13.381   1
   3   6 -28 37.9683 4.44648   1
   3   6 -27 68.7852 2.22698   1
   3   6 -26 18.9049 1.06907   1
   3   6 -25 30.2496 1.17714   1
   3   6 -24 4.69291 0.77647   1
   3   6 -23 33.2867 1.29702   1
   3   6 -22 332.871 8.03829   1
   3   6 -21 121.369 3.31205   1
   3   6 -20 1071.79 24.1846   1
   3   6 -19 8.56925 1.40554   1
   3   6 -18 551.197 12.2349   1
   3   6 -17 29.2047 1.22407   1
   3   6 -16 305.147 7.69605   1
   3   6 -15 73.9025 2.52075   1
   3   6 -14 6.07027 1.46532   1
   3   6 -13 43.9307 2.20328   1
   3   6 -12 2.82947 1.29751   1
   3   6 -11 89.0178 2.57925   1
   3   6 -10 77.3688 2.09846   1
   3   6  -9 767.298 17.3945   1
   3   6  -8 23.7055 1.47305   1
   3   6  -7 1807.35 41.2633   1
   3   6  -6 315.564 7.38215   1
   3   6  -5 1336.24 30.2026   1
   3   6  -4 167.614 4.96461   1
   3   6  -3 1067.70 24.5964   1
   3   6  -2 874.828 19.6778   1
   3   6  -1 1411.00 31.7073   1
   3   6   0 174.845 4.24293   1
   3   6   1 1426.86 32.7336   1
   3   6   2  875.24 20.5416   1
   3   6   3 1101.46 24.8954   1
   3   6   4 155.432 3.99733   1
   3   6   5 1323.03 29.6173   1
   3   6   6 322.639 7.49692   1
   3   6   7 1793.41 40.5515   1
   3   6   8 22.4486 0.94281   1
   3   6   9 788.428 18.0793   1
   3   6  10 74.9939 2.10468   1
   3   6  11 95.9083 2.62977   1
   3   6  12 3.81481 1.24051   1
   3   6  13 42.4068 1.53736   1
   3   6  14 5.56341 1.37882   1
   3   6  15 70.8648 1.93519   1
   3   6  16 298.778 7.09113   1
   3   6  17 27.4272 0.87607   1
   3   6  18 555.112 13.0879   1
   3   6  19  7.6603 0.60147   1
   3   6  20 1088.23 25.2756   1
   3   6  21 125.608 3.47212   1
   3   6  22 331.969 7.76089   1
   3   6  23 37.1318 1.27721   1
   3   6  24 3.05206 0.75981   1
   3   6  25 37.4657 1.36074   1
   3   6  26 17.1616 1.12311   1
   3   6  27 73.3637 3.18815   1
   3   6  28 39.5636 1.87148   1
   3   6  29 584.357 14.4839   1
   3   6  30 44.3507 2.09805   1
   3   6  31 751.101   22.10   1
   3   6  32  49.904 3.27252   1
   3   6  33 877.807 25.2902   1
   3   6  34 220.274 7.32293   1
   3   6  35 582.958 17.7315   1
   3   6  36 353.569 14.9301   1
   3   6  37 375.677 12.9751   1
   3   6  38 92.9862 5.04376   1
   3   6  39 267.104 10.1183   1
   3   6  40 41.4964 5.81534   1
   3   6  41 227.844  19.612   1
   3   6  42 162.624 12.7292   1
   3   6  43 166.076 13.6993   1
   3   6  44 130.621 12.1732   1
   3   6  45 157.315 14.0878   1
   3   7 -44 27.6901 2.30799   1
   3   7 -43  52.205 3.00941   1
   3   7 -42 26.3376 2.22025   1
   3   7 -41 90.6167 3.55955   1
   3   7 -40  14.681 1.67378   1
   3   7 -39 85.2128 3.10459   1
   3   7 -38   37.22 1.92455   1
   3   7 -37  170.51 4.85404   1
   3   7 -36 20.7387 1.73868   1
   3   7 -35 32.1383 1.78819   1
   3   7 -34 29.1326 1.77341   1
   3   7 -33 19.8022 1.24381   1
   3   7 -32 32.1437 1.40356   1
   3   7 -31 138.231 3.82808   1
   3   7 -30 80.7059 2.73208   1
   3   7 -29 710.993  17.566   1
   3   7 -28  161.79 4.83085   1
   3   7 -27 679.609 19.5357   1
   3   7 -26 152.675 7.08622   1
   3   7 -25 389.461 9.54716   1
   3   7 -24 191.402 4.83107   1
   3   7 -23 337.194 8.21049   1
   3   7 -22 296.922 7.23962   1
   3   7 -21 96.8752 2.48566   1
   3   7 -20 236.499 6.04034   1
   3   7 -19  28.339 1.10315   1
   3   7 -18 375.336 8.78192   1
   3   7 -17 260.934 6.21782   1
   3   7 -16 405.014 9.31935   1
   3   7 -15 546.633  12.534   1
   3   7 -14 510.435 11.6056   1
   3   7 -13 499.708 11.9008   1
   3   7 -12 632.212 14.7691   1
   3   7 -11 1967.68 46.1267   1
   3   7 -10 267.668 6.58038   1
   3   7  -9 766.704 17.4487   1
   3   7  -8 349.125 8.11785   1
   3   7  -7  299.13 7.00043   1
   3   7  -6 29.0953 1.51498   1
   3   7  -5 519.157 11.9501   1
   3   7  -4 546.552 12.6125   1
   3   7  -3  51.072  1.8902   1
   3   7  -2 451.065 10.3742   1
   3   7  -1 1212.92 27.3493   1
   3   7   0 229.161 5.53504   1
   3   7   1 1176.80 26.6165   1
   3   7   2 465.147 10.7734   1
   3   7   3 49.8176 1.40632   1
   3   7   4 556.138  12.617   1
   3   7   5 523.729 12.1911   1
   3   7   6 34.5715 1.42862   1
   3   7   7 321.407 7.43614   1
   3   7   8  338.26 7.91056   1
   3   7   9  767.30 17.5524   1
   3   7  10  270.22 6.53315   1
   3   7  11 2015.43 46.1412   1
   3   7  12  588.18 14.0937   1
   3   7  13 534.874 12.3013   1
   3   7  14 478.598 10.9311   1
   3   7  15 512.413  11.636   1
   3   7  16 391.586 9.37113   1
   3   7  17 259.447   6.017   1
   3   7  18 360.544 9.73061   1
   3   7  19 22.8556 3.91143   1
   3   7  20  236.17 5.53877   1
   3   7  21 105.929 3.01664   1
   3   7  22 286.603  7.0923   1
   3   7  23 333.343 8.03348   1
   3   7  24 193.546 6.29474   1
   3   7  25 376.313 9.37271   1
   3   7  26 170.047 5.15963   1
   3   7  27 712.643 17.2759   1
   3   7  28 164.962  4.3362   1
   3   7  29 699.983 16.7167   1
   3   7  30 83.1264 2.98153   1
   3   7  31 138.868 4.12768   1
   3   7  32  34.227 1.97382   1
   3   7  33 16.3236 3.28167   1
   3   7  34 31.9851  3.6701   1
   3   7  35 29.8242 4.23528   1
   3   7  36 21.9297 2.28252   1
   3   7  37 177.503 8.98114   1
   3   7  39 83.5505 4.54706   1
   3   7  40 18.3659 3.07797   1
   3   7  41 92.7893  6.2101   1
   3   7  42 36.9404 6.47339   1
   3   7  43 61.0454 7.59136   1
   3   7  44 36.2078  5.7517   1
   3   8 -42 247.005 10.2366   1
   3   8 -41 12.9247 2.24929   1
   3   8 -40 242.725 8.30469   1
   3   8 -39 31.0769 2.53129   1
   3   8 -38 378.173 11.6169   1
   3   8 -37 7.26855 1.67692   1
   3   8 -36 652.635 17.2748   1
   3   8 -35 8.75467  1.3771   1
   3   8 -34 525.379 13.1183   1
   3   8 -33 4.25734 1.35232   1
   3   8 -32 527.227 13.5976   1
   3   8 -31 47.3779 2.21073   1
   3   8 -30 569.403 16.5019   1
   3   8 -29 95.5996 3.03026   1
   3   8 -28 234.663 6.05639   1
   3   8 -27 291.963 8.37545   1
   3   8 -26 11.1011 1.44251   1
   3   8 -25 255.965  6.5788   1
   3   8 -24 13.3224 1.34282   1
   3   8 -23 237.602 6.41352   1
   3   8 -22 6.18188   1.332   1
   3   8 -21 149.993 3.72271   1
   3   8 -20 61.9473 2.90533   1
   3   8 -19 59.6126 1.89294   1
   3   8 -18 31.9691 1.16405   1
   3   8 -17 280.702 7.32298   1
   3   8 -16 55.0847 2.06292   1
   3   8 -15  203.27 5.09618   1
   3   8 -14 35.6881  1.1558   1
   3   8 -13 357.362 8.17896   1
   3   8 -12 41.5479 1.54751   1
   3   8 -11 346.034 7.99284   1
   3   8 -10 227.067 5.27676   1
   3   8  -9 24.8373 0.84619   1
   3   8  -8 589.895 13.4926   1
   3   8  -7 65.3954 1.93402   1
   3   8  -6  745.53 17.5604   1
   3   8  -5 116.002 3.11082   1
   3   8  -4 1297.99 29.4416   1
   3   8  -3 100.202 2.87897   1
   3   8  -2 1020.06 23.1845   1
   3   8  -1 42.0342 1.75519   1
   3   8   0 1587.66 35.9796   1
   3   8   1 45.6577 1.37949   1
   3   8   2 1017.20 22.7342   1
   3   8   3  105.96 2.68179   1
   3   8   4 1295.70 29.5615   1
   3   8   5 114.721 2.71693   1
   3   8   6 739.174 17.1916   1
   3   8   7 64.1448 1.78521   1
   3   8   8  575.98 13.1431   1
   3   8   9 20.9155 1.04799   1
   3   8  10  231.14  5.9745   1
   3   8  11 345.554 8.27856   1
   3   8  12  35.773 1.50988   1
   3   8  13 375.558 8.48605   1
   3   8  14  41.762 1.26455   1
   3   8  15  210.74 4.87995   1
   3   8  16 57.7011 1.80375   1
   3   8  17 276.334  7.3308   1
   3   8  18 30.3406 1.15496   1
   3   8  19 56.7488 1.70769   1
   3   8  20 55.6722 1.69507   1
   3   8  21 151.389 3.94009   1
   3   8  22 5.24487 0.91524   1
   3   8  23 229.704 6.19698   1
   3   8  24 14.6831 2.40972   1
   3   8  25 256.279  6.5685   1
   3   8  26 12.6359  2.1135   1
   3   8  27 290.425 8.06299   1
   3   8  28 251.378 6.95902   1
   3   8  29 98.8723 3.23485   1
   3   8  30 580.657 16.5891   1
   3   8  31 54.3705  2.9435   1
   3   8  32 530.044 18.0826   1
   3   8  33 4.51526 2.33929   1
   3   8  34 511.886 15.0862   1
   3   8  35 10.1568 2.42161   1
   3   8  36 650.377 25.3389   1
   3   8  37 8.67089 3.15792   1
   3   8  38 384.258  27.636   1
   3   8  39 33.1099 4.08299   1
   3   8  40 239.199 10.0783   1
   3   8  41 13.0028 3.23574   1
   3   8  42 225.583 12.8915   1
   3   9 -40 35.6039  2.4675   1
   3   9 -39 36.1573 2.40849   1
   3   9 -38 17.2864 1.79007   1
   3   9 -37 3.86564 1.71376   1
   3   9 -36 71.4678 3.09059   1
   3   9 -35 112.705 3.68644   1
   3   9 -34 105.473  3.3675   1
   3   9 -33 131.816 3.99694   1
   3   9 -32 134.075 3.99203   1
   3   9 -31 42.9562  2.0528   1
   3   9 -30 470.436 13.1731   1
   3   9 -29 120.912 4.47745   1
   3   9 -28 230.533 6.38367   1
   3   9 -27 44.1686 1.93392   1
   3   9 -26 150.269 4.28719   1
   3   9 -25 149.915 4.04731   1
   3   9 -24 141.987 3.86942   1
   3   9 -23 347.784 9.43331   1
   3   9 -22 137.785 3.94895   1
   3   9 -21 664.936 15.9999   1
   3   9 -20 5.88111 4.45909   1
   3   9 -19 657.054 16.1199   1
   3   9 -18 42.5941 3.13282   1
   3   9 -17 862.127 20.4778   1
   3   9 -16 130.031 3.69291   1
   3   9 -15  430.20  9.9178   1
   3   9 -14 121.583 3.05659   1
   3   9 -13 204.532  5.5766   1
   3   9 -12 211.909 5.13461   1
   3   9 -11 444.675 10.4563   1
   3   9 -10 420.908 10.0805   1
   3   9  -9 160.544 3.93183   1
   3   9  -8 550.583 12.6468   1
   3   9  -7 351.076 8.23185   1
   3   9  -6 437.321 9.98188   1
   3   9  -5 697.781 15.9709   1
   3   9  -4  244.57 5.75207   1
   3   9  -3 293.721 6.79637   1
   3   9  -2 54.8025 1.57426   1
   3   9  -1 66.6476 1.71874   1
   3   9   0 2.76849 0.56075   1
   3   9   1   70.18 1.85906   1
   3   9   2   51.00 1.57422   1
   3   9   3 291.749 6.95831   1
   3   9   4  247.19  5.7364   1
   3   9   5 674.238  15.267   1
   3   9   6 423.024 9.68572   1
   3   9   7 364.513 9.09294   1
   3   9   8 536.175 12.1651   1
   3   9   9 161.629 4.11581   1
   3   9  10 424.487 10.5239   1
   3   9  11 442.939  10.167   1
   3   9  12 224.145 5.51287   1
   3   9  13 199.823 4.67647   1
   3   9  14 133.346 3.69388   1
   3   9  15 413.103 10.3726   1
   3   9  16 130.971 4.40675   1
   3   9  17 874.112 20.4727   1
   3   9  18 47.7405 1.65088   1
   3   9  19 640.544 15.8207   1
   3   9  20 5.81057 1.71525   1
   3   9  21 666.401 17.6418   1
   3   9  22 128.639 4.09569   1
   3   9  23 335.178  9.2159   1
   3   9  24 134.257  4.0155   1
   3   9  25 156.996 4.73291   1
   3   9  26 146.323 4.36562   1
   3   9  27 46.6846 2.02072   1
   3   9  28 218.112  6.2718   1
   3   9  29 114.731 3.68912   1
   3   9  30 462.601 13.0462   1
   3   9  31 45.7424 2.61108   1
   3   9  32 145.971  4.7204   1
   3   9  33 133.664 5.13606   1
   3   9  34 101.706 4.93864   1
   3   9  35 120.362 5.01952   1
   3   9  36 68.1458 6.07707   1
   3   9  37 1.95031 2.31106   1
   3   9  38 14.3283 2.76319   1
   3   9  39 35.6722 6.13792   1
   3   9  40 43.7728 3.83562   1
   3  10 -38 47.0139 2.57447   1
   3  10 -37 452.974 13.9555   1
   3  10 -36  80.718 3.12056   1
   3  10 -35 438.111 12.2243   1
   3  10 -34 49.9651 2.41259   1
   3  10 -33 191.581 6.13042   1
   3  10 -32  77.542 3.29078   1
   3  10 -31 62.9691 2.52188   1
   3  10 -30  38.063 1.96084   1
   3  10 -29  122.49 3.73978   1
   3  10 -28 140.276 4.83431   1
   3  10 -27  101.13   3.604   1
   3  10 -26 142.214  4.6238   1
   3  10 -25 140.246 4.07844   1
   3  10 -24 98.7167 2.93624   1
   3  10 -23 43.3312 1.72209   1
   3  10 -22 164.028 4.38678   1
   3  10 -21 62.6017 2.32878   1
   3  10 -20 32.2994 2.07885   1
   3  10 -19 9.60312 1.42266   1
   3  10 -18 31.7994 1.25859   1
   3  10 -17 85.6117 2.37783   1
   3  10 -16 103.991 2.96364   1
   3  10 -15 114.857 3.76462   1
   3  10 -14  114.25 3.86771   1
   3  10 -13 240.334 6.02145   1
   3  10 -12 227.828 5.73817   1
   3  10 -11 85.3712 2.60872   1
   3  10 -10 192.021 4.90826   1
   3  10  -9 185.009 4.66504   1
   3  10  -8 127.127 3.30717   1
   3  10  -7 52.8224 1.57152   1
   3  10  -6 107.809 2.82791   1
   3  10  -5 495.268 13.0512   1
   3  10  -4 172.572 4.29353   1
   3  10  -3 992.787 24.4793   1
   3  10  -2 190.732 4.50318   1
   3  10  -1 1473.61 33.6633   1
   3  10   0 105.258 2.65649   1
   3  10   1 1459.71  33.188   1
   3  10   2 177.244 4.23771   1
   3  10   3 974.448 22.3723   1
   3  10   4 169.028 4.68354   1
   3  10   5 476.968 11.0914   1
   3  10   6 110.924 2.75878   1
   3  10   7 48.6185 1.44971   1
   3  10   8 122.285 3.00275   1
   3  10   9 202.729 4.98989   1
   3  10  10 195.048 4.69791   1
   3  10  11 95.9908 2.67351   1
   3  10  12 240.259 5.80099   1
   3  10  13 247.246  6.1579   1
   3  10  14 110.014 3.36764   1
   3  10  15  121.56 4.45615   1
   3  10  16  107.68 3.17863   1
   3  10  17 79.8173 2.48877   1
   3  10  18 37.3809 1.79437   1
   3  10  19 7.55589 1.27175   1
   3  10  20 26.9583 2.21319   1
   3  10  21 73.3272 2.64296   1
   3  10  22  156.74 4.19023   1
   3  10  23 44.5705 2.10704   1
   3  10  24 97.1293  3.6287   1
   3  10  25  137.62 4.17276   1
   3  10  26 145.478 4.76033   1
   3  10  27 96.5168 3.41839   1
   3  10  28 137.385 4.83391   1
   3  10  29 117.054 4.57757   1
   3  10  30 37.0549 2.31813   1
   3  10  31 62.8635 3.15508   1
   3  10  32 82.6732 5.59135   1
   3  10  33 176.369 6.56857   1
   3  10  34 52.0142 6.08326   1
   3  10  35 463.604 30.0475   1
   3  10  36 86.1451 7.18992   1
   3  10  37 443.568  17.136   1
   3  10  38 40.5741 4.50471   1
   3  11 -35 67.9563  3.2684   1
   3  11 -34 70.6033 4.86283   1
   3  11 -33 64.4917 3.82316   1
   3  11 -32 84.7471 3.93461   1
   3  11 -31 35.0092 2.15422   1
   3  11 -30 141.694 5.60006   1
   3  11 -29 33.7939 2.13023   1
   3  11 -28 122.533 4.43455   1
   3  11 -27 94.4393 3.47493   1
   3  11 -26 135.311 3.99558   1
   3  11 -25 154.707 5.10356   1
   3  11 -24 339.034  8.6848   1
   3  11 -23 31.7112  2.1047   1
   3  11 -22 333.952 8.77331   1
   3  11 -21 21.9553 1.48755   1
   3  11 -20 518.854 13.0272   1
   3  11 -19 16.6459 1.40192   1
   3  11 -18 442.466 11.7186   1
   3  11 -17 120.229 3.31084   1
   3  11 -16 555.303 13.5054   1
   3  11 -15 180.508 4.72899   1
   3  11 -14 336.596 8.39469   1
   3  11 -13 140.067  4.2383   1
   3  11 -12 301.026 7.53761   1
   3  11 -11 61.7731 2.76687   1
   3  11 -10 324.055 8.24105   1
   3  11  -9 2.36656 0.85693   1
   3  11  -8 281.844 7.11119   1
   3  11  -7 138.657 3.70195   1
   3  11  -6 373.476 9.22717   1
   3  11  -5 135.201 4.52084   1
   3  11  -4 220.193  5.7218   1
   3  11  -3 215.206 5.47811   1
   3  11  -2 53.7918 1.95427   1
   3  11  -1 132.913  5.2036   1
   3  11   0 61.2482 2.02212   1
   3  11   1 135.051 3.64008   1
   3  11   2 49.9893 1.68957   1
   3  11   3 224.715 5.62954   1
   3  11   4  216.93 5.43338   1
   3  11   5  141.11  3.7961   1
   3  11   6 373.219 9.26045   1
   3  11   7 146.037 3.65226   1
   3  11   8 273.959 6.79707   1
   3  11   9 1.05439 1.08299   1
   3  11  10 326.451 8.21556   1
   3  11  11 58.0881 2.73918   1
   3  11  12 293.068 8.23736   1
   3  11  13 148.036   3.831   1
   3  11  14  345.29 11.6056   1
   3  11  15 175.865 4.98533   1
   3  11  16 569.793 13.8746   1
   3  11  17 117.636 4.62152   1
   3  11  18 422.168 10.6131   1
   3  11  19 15.5246 2.11762   1
   3  11  20 515.428 12.7343   1
   3  11  21 22.2803 2.39134   1
   3  11  22 333.011 11.0097   1
   3  11  23 35.8443 2.31911   1
   3  11  24 319.737 10.5785   1
   3  11  25  159.03 6.14116   1
   3  11  26 130.567 4.34752   1
   3  11  27 101.774   3.808   1
   3  11  28 129.113 6.47563   1
   3  11  29 37.8368 3.43551   1
   3  11  30 140.799 5.57041   1
   3  11  31 33.5582 4.09223   1
   3  11  32  71.025 4.14617   1
   3  11  33 59.6095 4.50447   1
   3  11  34 67.6267 4.15584   1
   3  11  35 68.9661 7.05304   1
   3  12 -32 116.287 5.18987   1
   3  12 -31 217.175 7.87416   1
   3  12 -30 41.1011 2.87306   1
   3  12 -29 140.885 6.31604   1
   3  12 -28 17.7643   1.968   1
   3  12 -27 99.7745 3.84402   1
   3  12 -26 2.68319 1.72316   1
   3  12 -25 39.4658 2.00101   1
   3  12 -24 51.2249 2.46337   1
   3  12 -23 17.7123 1.63991   1
   3  12 -22 54.4593 2.43125   1
   3  12 -21 8.22889 1.36377   1
   3  12 -20 195.102 6.48013   1
   3  12 -19 5.44958 1.31142   1
   3  12 -18 157.595  4.9743   1
   3  12 -17 35.2388 1.66283   1
   3  12 -16 18.0697 1.37543   1
   3  12 -15 26.6524 1.32219   1
   3  12 -14 27.8008 1.52732   1
   3  12 -13 84.1778 2.60718   1
   3  12 -12 17.7598 1.78064   1
   3  12 -11 226.684 6.38637   1
   3  12 -10 8.37513 1.64084   1
   3  12  -9 258.045 7.24931   1
   3  12  -8 102.796 3.08493   1
   3  12  -7 679.704 17.2112   1
   3  12  -6 223.807 5.67904   1
   3  12  -5 426.905 11.2202   1
   3  12  -4 410.743 10.9311   1
   3  12  -3 154.335 4.96546   1
   3  12  -2  495.22 12.0534   1
   3  12  -1 202.267 5.92847   1
   3  12   0 567.579  13.576   1
   3  12   1 210.646 6.00148   1
   3  12   2 500.528  12.412   1
   3  12   3 146.704 4.08546   1
   3  12   4 424.913 10.0909   1
   3  12   5 420.351 9.80052   1
   3  12   6  233.64 6.83569   1
   3  12   7 681.052 16.3731   1
   3  12   8  107.32 3.02779   1
   3  12   9 253.156 6.55816   1
   3  12  10 6.13746  0.9977   1
   3  12  11 222.957 6.01472   1
   3  12  12 16.2001 1.37057   1
   3  12  13  89.852 2.73245   1
   3  12  14 21.8863 1.34857   1
   3  12  15 24.3201 1.82218   1
   3  12  16 16.5346 1.62265   1
   3  12  17 31.5206 1.92601   1
   3  12  18 166.129  5.5368   1
   3  12  19 4.72442 2.34669   1
   3  12  20 181.584 5.54561   1
   3  12  21 6.71191 1.68037   1
   3  12  22 41.2627 2.33893   1
   3  12  23 22.1141 2.41785   1
   3  12  24 56.1603 3.85031   1
   3  12  25 39.8766 2.86129   1
   3  12  26 9.48367 2.47272   1
   3  12  27 112.306 6.56081   1
   3  12  28  20.225 3.11204   1
   3  12  29 133.223  6.0741   1
   3  12  30 42.3172 3.33434   1
   3  12  31 228.036 10.2095   1
   3  12  32 102.001 7.35283   1
   3  13 -28 16.1504 3.33219   1
   3  13 -27 211.053  10.213   1
   3  13 -26 65.0002 4.35568   1
   3  13 -25 371.494 16.7553   1
   3  13 -24 29.4156 3.93726   1
   3  13 -23 255.946  8.5275   1
   3  13 -22 51.5493 2.89439   1
   3  13 -21 92.4149 3.46663   1
   3  13 -20 94.2092 3.75493   1
   3  13 -19 119.291 3.73808   1
   3  13 -18  105.61 3.68864   1
   3  13 -17 129.829  3.9774   1
   3  13 -16 79.4498 4.60647   1
   3  13 -15  361.82 11.1899   1
   3  13 -14 123.935 3.81361   1
   3  13 -13 457.467 13.9732   1
   3  13 -12 138.367  4.2923   1
   3  13 -11 413.256 12.1545   1
   3  13 -10 52.0737 2.42978   1
   3  13  -9 297.799 10.6127   1
   3  13  -8 70.3258 3.27206   1
   3  13  -7 184.654 5.49492   1
   3  13  -6 35.4224 1.92078   1
   3  13  -5 30.0532 1.72771   1
   3  13  -4 24.8974  1.9978   1
   3  13  -3 7.54959  1.0751   1
   3  13  -2 69.7353 2.56356   1
   3  13  -1 113.342 3.55997   1
   3  13   0 25.7632 1.52332   1
   3  13   1 118.196 3.48916   1
   3  13   2 74.1043 2.43167   1
   3  13   3 7.44849 1.20052   1
   3  13   4 31.2881 1.63482   1
   3  13   5 37.2347 1.70199   1
   3  13   6 33.9065 1.55096   1
   3  13   7 177.645  6.3496   1
   3  13   8 82.6783  3.4258   1
   3  13   9 299.067  7.6047   1
   3  13  10 48.4522 2.20118   1
   3  13  11 416.643 13.2409   1
   3  13  12  138.42  4.9456   1
   3  13  13 439.313 11.4304   1
   3  13  14 131.734 5.74493   1
   3  13  15 346.946 12.1615   1
   3  13  16 76.9382 3.71316   1
   3  13  17 128.622 5.55874   1
   3  13  18 109.388 4.75848   1
   3  13  19  113.16 4.09267   1
   3  13  20 90.1727 4.71024   1
   3  13  21 96.4933 4.07651   1
   3  13  22 55.9784 3.25616   1
   3  13  23 268.187   27.51   1
   3  13  24 27.7375 4.73999   1
   3  13  25 382.779 16.2672   1
   3  13  26   62.12 3.90535   1
   3  13  27 209.748 13.2421   1
   3  13  28 16.7286 2.55448   1
   3  14 -23 55.2159 3.56945   1
   3  14 -22 22.4507 2.73072   1
   3  14 -21 39.0423 2.75625   1
   3  14 -20 5.36084  2.0751   1
   3  14 -19 20.0868 2.31738   1
   3  14 -18-2.70336 4.24961   1
   3  14 -17 40.0863 2.63036   1
   3  14 -16  13.198 1.73095   1
   3  14 -15 80.9774 3.28028   1
   3  14 -14 24.7273 2.76816   1
   3  14 -13 79.7317 3.61841   1
   3  14 -12 101.378 4.74918   1
   3  14 -11 110.942 6.40855   1
   3  14 -10 271.423 7.97132   1
   3  14  -9 77.3111 3.24591   1
   3  14  -8 295.685 10.6742   1
   3  14  -7  26.089  2.1862   1
   3  14  -6 384.214  10.867   1
   3  14  -5 49.5848 2.31981   1
   3  14  -4 336.695 10.2013   1
   3  14  -3  64.204 3.19116   1
   3  14  -2 289.176 7.69719   1
   3  14  -1 16.0539 1.59865   1
   3  14   0 228.798 8.11304   1
   3  14   1 21.5838 1.90414   1
   3  14   2 277.315 8.29948   1
   3  14   3 68.9102 2.79851   1
   3  14   4 330.761 10.1826   1
   3  14   5  43.963 2.14197   1
   3  14   6 399.151 11.1905   1
   3  14   7 22.5236 2.08714   1
   3  14   8 291.906 8.80946   1
   3  14   9 81.3251 2.80515   1
   3  14  10 269.323 7.67738   1
   3  14  11 104.178 3.34263   1
   3  14  12 100.503 4.42949   1
   3  14  13 88.2278 3.07275   1
   3  14  14 18.7333 1.82279   1
   3  14  15 84.6851 3.55917   1
   3  14  16 11.4064 1.88586   1
   3  14  17 44.6107 2.87499   1
   3  14  18 0.10939 1.84283   1
   3  14  19 21.6563 2.33895   1
   3  14  20 6.73476 2.03697   1
   3  14  21 39.0322  2.7841   1
   3  14  22 23.0417 2.67902   1
   3  14  23 53.4037 3.28728   1
   3  15 -16 54.1392  3.0614   1
   3  15 -15 145.315 7.11321   1
   3  15 -14 148.463 6.29557   1
   3  15 -13 76.0448 4.05453   1
   3  15 -12 186.992 6.85079   1
   3  15 -11 19.5734 2.36473   1
   3  15 -10 159.289 6.34678   1
   3  15  -9 63.8502 3.87444   1
   3  15  -8 228.168 7.17891   1
   3  15  -7 85.0008 4.31411   1
   3  15  -6 145.604   5.844   1
   3  15  -5 14.5315  1.8321   1
   3  15  -4 40.4525 2.80296   1
   3  15  -3 47.7645  2.6044   1
   3  15  -2 3.05979 1.93906   1
   3  15  -1 52.8538 3.62795   1
   3  15   0 14.2214 2.26077   1
   3  15   1 51.6264 3.97057   1
   3  15   2 2.44698 1.96223   1
   3  15   3 47.0161 2.96743   1
   3  15   4 34.6345 2.84987   1
   3  15   5 16.0403 2.05133   1
   3  15   6  138.60 4.81754   1
   3  15   7 77.7305 3.27396   1
   3  15   8 209.537  10.288   1
   3  15   9 63.1032 3.73346   1
   3  15  10  153.43 4.94957   1
   3  15  11 17.4593 2.22959   1
   3  15  12 176.948 6.09274   1
   3  15  13 70.8559 3.34008   1
   3  15  14 155.615 5.20099   1
   3  15  15 152.009  5.6344   1
   3  15  16 68.5576 3.34633   1
   4   0   0  1.5732 1.01475   1
   4   0   1 221.947 5.10744   1
   4   0   2 89.2967 2.19187   1
   4   0   3 0.63455 0.75862   1
   4   0   4 42.3827 1.34937   1
   4   0   5 2.26947 0.69648   1
   4   0   6 172.788  4.0368   1
   4   0   7 7.83879 0.75251   1
   4   0   8 41.0994 1.24752   1
   4   0   9 1199.68 26.9248   1
   4   0  10 9.59376 0.95599   1
   4   0  11 1393.59 31.3505   1
   4   0  12 18.4756 1.02406   1
   4   0  13 1099.34 24.8311   1
   4   0  14 121.943 2.96397   1
   4   0  15 2029.27 46.2799   1
   4   0  16 63.2852  2.0644   1
   4   0  17 1304.15 29.3545   1
   4   0  18 51.1677  1.6207   1
   4   0  19 677.478  15.616   1
   4   0  20  13.705 1.27652   1
   4   0  21 1016.74 22.9031   1
   4   0  22 203.469  5.0047   1
   4   0  23 1805.55 40.7309   1
   4   0  24 166.073 4.18152   1
   4   0  25 1066.88 24.4874   1
   4   0  26 39.1647 1.56238   1
   4   0  27 782.919 18.3155   1
   4   0  28 33.8732  1.7077   1
   4   0  29 1070.78 26.3217   1
   4   0  30 32.8552 1.65565   1
   4   0  31 54.1957 2.41861   1
   4   0  32 109.018 3.78191   1
   4   0  33 1.11761 0.92456   1
   4   0  34 83.4885 3.06006   1
   4   0  35 35.2277 2.10884   1
   4   0  36 24.7273 1.66826   1
   4   0  37 52.6124 2.17177   1
   4   0  38 8.46017 1.41776   1
   4   0  39 0.72116 1.87823   1
   4   0  40 95.0257 3.56009   1
   4   0  41 3.12791 1.39676   1
   4   0  42 6.47077 1.70547   1
   4   0  43 38.4728 2.17993   1
   4   0  44 6.18608 1.72042   1
   4   0  45 8.79616 2.32793   1
   4   0  46 3.22732 2.10572   1
   4   0  47 69.4128 3.56877   1
   4   1 -47 223.249 7.95811   1
   4   1 -46  166.07 7.03729   1
   4   1 -45 203.467 7.79901   1
   4   1 -44 304.031 10.1242   1
   4   1 -43 47.9797  2.4358   1
   4   1 -42 204.215 6.56752   1
   4   1 -41 130.311 5.82885   1
   4   1 -40 217.241 7.18204   1
   4   1 -39 32.8202 2.04317   1
   4   1 -38 190.803 6.01698   1
   4   1 -37 23.9016 1.51005   1
   4   1 -36 125.762 4.22778   1
   4   1 -35 56.8794 1.86839   1
   4   1 -34 221.454 6.38352   1
   4   1 -33 188.367  5.2748   1
   4   1 -32 250.121 6.42979   1
   4   1 -31 377.291 10.5146   1
   4   1 -30 392.365 9.65627   1
   4   1 -29 307.727 7.81042   1
   4   1 -28 304.446 7.19727   1
   4   1 -27 290.459  6.7038   1
   4   1 -26 410.537 9.41785   1
   4   1 -25 71.4637 2.05149   1
   4   1 -24 893.625 19.9697   1
   4   1 -23 15.1674 0.75985   1
   4   1 -22 150.644 4.68227   1
   4   1 -21 225.288 6.13994   1
   4   1 -20  307.60  7.6182   1
   4   1 -19 362.109  8.5227   1
   4   1 -18 13.5237 0.78606   1
   4   1 -17 36.5747  1.5348   1
   4   1 -16 122.401   3.485   1
   4   1 -15 153.051 3.78365   1
   4   1 -14 304.144 7.09746   1
   4   1 -13 150.327 3.67976   1
   4   1 -12 1212.88 27.3886   1
   4   1 -11 991.718 22.3719   1
   4   1 -10 950.623 21.4652   1
   4   1  -9 1157.51 26.1908   1
   4   1  -8 1701.44 38.0552   1
   4   1  -7 1344.77 30.2356   1
   4   1  -6  825.39 18.5627   1
   4   1  -5  662.76 14.9112   1
   4   1  -4 1515.03 33.9553   1
   4   1  -3 461.895 10.4507   1
   4   1  -2 1510.61 33.9569   1
   4   1  -1 142.683 3.59842   1
   4   1   0 61.6214 1.69725   1
   4   1   1 161.155 3.82872   1
   4   1   2 1510.98 33.8557   1
   4   1   3 458.846 10.6992   1
   4   1   4 1561.93  35.126   1
   4   1   5 646.899 14.7721   1
   4   1   6 841.538 18.9712   1
   4   1   7 1346.16  30.267   1
   4   1   8 1725.31 38.3919   1
   4   1   9 1157.23 25.8948   1
   4   1  10 949.164 21.3251   1
   4   1  11 979.676 22.0112   1
   4   1  12 1206.94 27.0958   1
   4   1  13 144.308 3.46284   1
   4   1  14 285.743 6.61771   1
   4   1  15 155.684 3.78882   1
   4   1  16  125.03 3.36385   1
   4   1  17 38.3953 1.50677   1
   4   1  18 14.2919 1.14045   1
   4   1  19  362.36  8.3226   1
   4   1  20 315.908 7.15998   1
   4   1  21 226.321 5.18654   1
   4   1  22 151.527 4.03293   1
   4   1  23  13.709 0.77369   1
   4   1  24 889.655 20.2946   1
   4   1  25 68.9887 2.08668   1
   4   1  26 411.612 9.93761   1
   4   1  27 311.094 7.79453   1
   4   1  28 291.979 7.67486   1
   4   1  29 318.116 7.95448   1
   4   1  30 387.854 9.36273   1
   4   1  31 378.256 9.20528   1
   4   1  32  229.04 6.29438   1
   4   1  33 184.682 5.92732   1
   4   1  34  206.93 6.47689   1
   4   1  35 57.6773 3.73004   1
   4   1  36 121.958 3.85757   1
   4   1  37 15.7878 2.20594   1
   4   1  38 186.104 6.67017   1
   4   1  39 29.4734 2.05972   1
   4   1  40 235.984 7.70732   1
   4   1  41 135.672  4.7544   1
   4   1  42 211.881 6.57526   1
   4   1  43 50.4935 2.53434   1
   4   1  44 316.292   11.07   1
   4   1  45 184.474 6.81978   1
   4   1  46 173.959  6.5794   1
   4   1  47 229.207 8.45748   1
   4   2 -47 65.3228 5.70439   1
   4   2 -46 55.9473 3.31427   1
   4   2 -45 67.5898  3.1934   1
   4   2 -44  43.022 3.72307   1
   4   2 -43 119.421 4.70608   1
   4   2 -42 38.9633 2.40504   1
   4   2 -41 64.7853 3.04056   1
   4   2 -40 5.72972 1.50739   1
   4   2 -39 59.0178 2.17025   1
   4   2 -38 9.92015 1.14729   1
   4   2 -37 103.439 3.22613   1
   4   2 -36 9.08078 1.21438   1
   4   2 -35 148.059 3.90095   1
   4   2 -34 33.6599 1.42579   1
   4   2 -33  53.917 1.74514   1
   4   2 -32 76.0147 2.96372   1
   4   2 -31 123.693 5.86131   1
   4   2 -30  152.34  4.4467   1
   4   2 -29 31.8149 1.61079   1
   4   2 -28 405.326 11.4504   1
   4   2 -27  7.7392 1.06894   1
   4   2 -26 599.423 13.7119   1
   4   2 -25 2.65112 0.65905   1
   4   2 -24 797.312 17.9474   1
   4   2 -23 518.651 12.0554   1
   4   2 -22 1225.63 28.8307   1
   4   2 -21 410.432 9.54603   1
   4   2 -20 1951.05 45.0029   1
   4   2 -19 154.573 4.23653   1
   4   2 -18 846.424  19.282   1
   4   2 -17 903.076 20.6544   1
   4   2 -16 1399.52 33.5055   1
   4   2 -15 156.971 4.06999   1
   4   2 -14 1649.88 37.3564   1
   4   2 -13 40.3797 1.97592   1
   4   2 -12 631.282 14.3119   1
   4   2 -11  198.21 4.84007   1
   4   2 -10 322.483 7.54975   1
   4   2  -9  322.63   7.427   1
   4   2  -8 228.425  5.2881   1
   4   2  -7 322.809 7.50853   1
   4   2  -6 175.175 4.08699   1
   4   2  -5 224.261 5.15042   1
   4   2  -4 53.8711 1.51024   1
   4   2  -3 620.753 14.2189   1
   4   2  -2 40.0542 1.22123   1
   4   2  -1 771.365 17.3474   1
   4   2   0 19.8375 0.90939   1
   4   2   1 774.667 17.5007   1
   4   2   2 41.3895 1.17626   1
   4   2   3 627.761 14.1267   1
   4   2   4 47.7036 1.31981   1
   4   2   5  222.05 5.18306   1
   4   2   6 185.071 4.38786   1
   4   2   7 328.901  7.5622   1
   4   2   8 244.417 5.64328   1
   4   2   9 319.216 7.32631   1
   4   2  10  313.84 7.16138   1
   4   2  11 214.957 5.03754   1
   4   2  12 636.338 14.3252   1
   4   2  13 48.4212 1.56548   1
   4   2  14 1607.58 36.3035   1
   4   2  15 154.475 3.98342   1
   4   2  16 1402.44 31.6034   1
   4   2  17 901.346 20.4037   1
   4   2  18  884.08 19.9421   1
   4   2  19 165.823 4.08879   1
   4   2  20 1966.23 44.3978   1
   4   2  21  411.92 9.35966   1
   4   2  22 1251.99 28.1385   1
   4   2  23 509.095 11.4821   1
   4   2  24 814.229 18.7834   1
   4   2  25 2.95703 0.64836   1
   4   2  26 605.235 14.0412   1
   4   2  27 5.50697 0.99425   1
   4   2  28 403.478 9.47975   1
   4   2  29 31.3836 1.30953   1
   4   2  30 142.617 3.71993   1
   4   2  31 115.416 3.43497   1
   4   2  32 65.0558 2.32679   1
   4   2  33 48.9773  2.2963   1
   4   2  34 35.3432 2.08993   1
   4   2  35 146.099 4.40675   1
   4   2  36 11.1347 1.29905   1
   4   2  37  107.86 3.46993   1
   4   2  38 11.7602  1.4801   1
   4   2  39 58.9356 2.44873   1
   4   2  40 4.59151 1.60845   1
   4   2  41 60.8227 2.93469   1
   4   2  42 35.8039 2.53469   1
   4   2  43 116.887 5.07296   1
   4   2  44 40.9766 2.75108   1
   4   2  45 71.3701 3.73957   1
   4   2  46 59.0223 4.04637   1
   4   2  47 68.4901 6.93999   1
   4   3 -46 39.0059 2.59615   1
   4   3 -45 176.593 7.25185   1
   4   3 -44  50.505 2.93979   1
   4   3 -43 242.733 8.71681   1
   4   3 -42 43.2281 2.30295   1
   4   3 -41 415.588 12.5281   1
   4   3 -40 58.9107 2.65892   1
   4   3 -39 663.377 17.2184   1
   4   3 -38 7.73458 2.25759   1
   4   3 -37 344.537 9.58628   1
   4   3 -36 46.3568 1.74059   1
   4   3 -35 199.898 5.14131   1
   4   3 -34 46.6722 2.78585   1
   4   3 -33  250.76 6.84419   1
   4   3 -32 29.1715 2.09763   1
   4   3 -31  140.56 3.90882   1
   4   3 -30 25.3897 2.34031   1
   4   3 -29 223.814 5.57253   1
   4   3 -28 4.41464 1.06615   1
   4   3 -27 569.428 16.6908   1
   4   3 -26 80.9372 2.18512   1
   4   3 -25 1149.30 26.5787   1
   4   3 -24 28.0337 1.66727   1
   4   3 -23 859.439 19.8924   1
   4   3 -22 54.1244 1.52803   1
   4   3 -21 278.291 6.76912   1
   4   3 -20 41.8015 1.47827   1
   4   3 -19 65.5447 2.40668   1
   4   3 -18 76.9049 2.09537   1
   4   3 -17 88.2899  2.3753   1
   4   3 -16 7.16127 1.20212   1
   4   3 -15 720.768 16.6106   1
   4   3 -14 151.807 3.93447   1
   4   3 -13 1418.50 31.9112   1
   4   3 -12 185.913  4.7697   1
   4   3 -11 671.057  15.458   1
   4   3 -10 64.5532 1.99805   1
   4   3  -9 681.903  15.404   1
   4   3  -8  47.615  1.6117   1
   4   3  -7 766.834 17.2733   1
   4   3  -6 42.2495 1.38382   1
   4   3  -5 1146.92 25.7268   1
   4   3  -4 436.431 10.1923   1
   4   3  -3 1255.65 28.2723   1
   4   3  -2 224.623 5.27112   1
   4   3  -1 2012.06 47.6079   1
   4   3   0 1.77565 0.92517   1
   4   3   1 2028.67 45.7411   1
   4   3   2 218.705 5.26853   1
   4   3   3 1259.71   28.35   1
   4   3   4 440.125 10.4422   1
   4   3   5 1144.92 25.7416   1
   4   3   6 47.2762 1.49765   1
   4   3   7  775.23 17.6381   1
   4   3   8 46.7567 1.71823   1
   4   3   9 678.301 15.3794   1
   4   3  10 61.8763 1.82855   1
   4   3  11 686.748 15.8362   1
   4   3  12  182.09 4.67527   1
   4   3  13 1396.64 32.1205   1
   4   3  14 159.416 3.99102   1
   4   3  15 718.471 16.2628   1
   4   3  16 9.25179 1.05413   1
   4   3  17 91.0501 2.28997   1
   4   3  18 76.3594 1.85868   1
   4   3  19 66.8653 1.72374   1
   4   3  20  41.627 1.13914   1
   4   3  21 276.371 6.69594   1
   4   3  22 55.8543 1.48731   1
   4   3  23 859.259 19.9406   1
   4   3  24 30.1418 1.03127   1
   4   3  25 1152.87 26.7833   1
   4   3  26 76.1441 2.11652   1
   4   3  27 565.096 13.5216   1
   4   3  28 1.76525 0.88366   1
   4   3  29 219.374 5.69931   1
   4   3  30 23.8127 2.23639   1
   4   3  31 132.796 5.79112   1
   4   3  32 28.8947 1.92142   1
   4   3  33 247.951 6.71484   1
   4   3  34 51.3686 2.74716   1
   4   3  35 203.554 12.4879   1
   4   3  36 42.8061 2.27627   1
   4   3  37 361.527 14.3199   1
   4   3  38 -0.1859 3.75046   1
   4   3  39 676.341 29.9687   1
   4   3  40 55.4278 8.54301   1
   4   3  41 423.643 18.8763   1
   4   3  42 45.3809 3.94028   1
   4   3  43 243.583   16.50   1
   4   3  44 50.1319 7.82915   1
   4   3  45  200.64 11.5139   1
   4   3  46 43.8494 4.91812   1
   4   4 -45 67.6375 3.37193   1
   4   4 -44 89.1935 3.89233   1
   4   4 -43 48.5107 2.82884   1
   4   4 -42 40.1519  3.0713   1
   4   4 -41 64.1164 3.16248   1
   4   4 -40 8.01378 1.59461   1
   4   4 -39 123.101 6.24063   1
   4   4 -38  47.228 2.13702   1
   4   4 -37 60.8533 2.43536   1
   4   4 -36  74.053 2.64989   1
   4   4 -35  102.92 3.15385   1
   4   4 -34 59.2457 2.01138   1
   4   4 -33 25.5426 1.37054   1
   4   4 -32 61.9973 2.53977   1
   4   4 -31 37.2693 1.81432   1
   4   4 -30 37.2874 1.88127   1
   4   4 -29 28.3149 2.07801   1
   4   4 -28 112.203 3.55838   1
   4   4 -27 14.3389 1.48099   1
   4   4 -26 606.392 13.9942   1
   4   4 -25 83.4719 2.43185   1
   4   4 -24 231.648 5.66775   1
   4   4 -23 462.415  10.395   1
   4   4 -22 706.073 15.6478   1
   4   4 -21 1269.98 29.0355   1
   4   4 -20 1047.75 23.8295   1
   4   4 -19 1178.01 26.3732   1
   4   4 -18 918.894 21.3553   1
   4   4 -17 1157.95 26.5192   1
   4   4 -16 873.166 20.1793   1
   4   4 -15 899.552 20.6657   1
   4   4 -14 484.855 11.3316   1
   4   4 -13 210.571 5.46035   1
   4   4 -12 1336.84 30.1998   1
   4   4 -11  64.178 2.58531   1
   4   4 -10 174.827 4.28702   1
   4   4  -9 249.819 5.88973   1
   4   4  -8 151.485  3.7393   1
   4   4  -7 291.661 6.94745   1
   4   4  -6 551.721  12.659   1
   4   4  -5 186.606 4.72031   1
   4   4  -4 29.5534  1.4156   1
   4   4  -3 288.091 6.75531   1
   4   4  -2 14.8863 1.17817   1
   4   4  -1 283.459 6.63796   1
   4   4   0 183.214  4.8447   1
   4   4   1 282.742 6.67855   1
   4   4   2 14.3438 1.09166   1
   4   4   3 291.582 6.79798   1
   4   4   4 24.7118 1.02846   1
   4   4   5 175.859 4.54894   1
   4   4   6 562.744 13.1718   1
   4   4   7  289.29 6.99574   1
   4   4   8 131.946 3.54699   1
   4   4   9 235.408  5.5638   1
   4   4  10 163.557 4.06091   1
   4   4  11 52.0093 2.00653   1
   4   4  12 1386.69  31.176   1
   4   4  13 211.834 5.22811   1
   4   4  14 489.804 11.4822   1
   4   4  15 874.734 20.4847   1
   4   4  16 883.661 20.8084   1
   4   4  17 1174.86  26.698   1
   4   4  18 941.436 21.3972   1
   4   4  19 1181.49 27.1045   1
   4   4  20 1036.80  23.407   1
   4   4  21 1284.73 28.7843   1
   4   4  22 697.812 15.7629   1
   4   4  23 482.036 10.9588   1
   4   4  24 215.188 5.31713   1
   4   4  25  85.376 2.22258   1
   4   4  26 581.416 13.7206   1
   4   4  27 15.6731 1.24892   1
   4   4  28 102.137 3.02706   1
   4   4  29 29.2551 1.82763   1
   4   4  30 43.4316 2.50549   1
   4   4  31 42.7611  1.9587   1
   4   4  32 69.6877 3.47176   1
   4   4  33 24.6845 2.64429   1
   4   4  34 53.7723 2.82174   1
   4   4  35 104.653 3.95802   1
   4   4  36 72.3628 3.84983   1
   4   4  37 59.3166 6.46516   1
   4   4  38 43.5078 3.77551   1
   4   4  39  111.83 5.91835   1
   4   4  40 9.50177 3.21996   1
   4   4  41 68.6927 5.41823   1
   4   4  42 28.9282  3.9522   1
   4   4  43 44.1318  4.6882   1
   4   4  44 97.3631 7.03358   1
   4   4  45 78.4089 6.80183   1
   4   5 -44 222.268 8.21912   1
   4   5 -43 27.8841 2.22639   1
   4   5 -42 311.425 9.28261   1
   4   5 -41 2.65143  1.7429   1
   4   5 -40 239.275 7.81649   1
   4   5 -39  4.5247   1.541   1
   4   5 -38 290.349 7.89303   1
   4   5 -37 70.7864 2.92446   1
   4   5 -36 407.445 10.7512   1
   4   5 -35 65.2748 2.33244   1
   4   5 -34 411.129 10.4854   1
   4   5 -33 188.289 6.33416   1
   4   5 -32 269.282 6.81989   1
   4   5 -31 147.044 4.02157   1
   4   5 -30 391.251 10.0782   1
   4   5 -29 276.717 8.74152   1
   4   5 -28 637.304 20.5924   1
   4   5 -27 114.338 3.68923   1
   4   5 -26  513.44 12.4388   1
   4   5 -25 167.415 4.22659   1
   4   5 -24 239.798 5.88432   1
   4   5 -23 79.3595 2.52343   1
   4   5 -22  265.94 6.27554   1
   4   5 -21 104.143 2.85351   1
   4   5 -20 60.9106 1.95861   1
   4   5 -19 140.048 3.84693   1
   4   5 -18 147.241 3.63474   1
   4   5 -17 148.649 3.58096   1
   4   5 -16 262.394 7.54003   1
   4   5 -15 50.4137  1.6522   1
   4   5 -14 397.568 9.08894   1
   4   5 -13 129.361 3.46168   1
   4   5 -12 569.401 13.2548   1
   4   5 -11  466.63 11.6883   1
   4   5 -10 1652.01 37.0807   1
   4   5  -9 227.719 6.04032   1
   4   5  -8 460.504 10.5824   1
   4   5  -7 417.276 9.63042   1
   4   5  -6 332.102  7.7672   1
   4   5  -5 182.592 4.74094   1
   4   5  -4 1916.75 43.2703   1
   4   5  -3 84.2372 2.66127   1
   4   5  -2 895.512 20.7779   1
   4   5  -1 66.7764 2.44253   1
   4   5   0 337.415 8.41586   1
   4   5   1 70.0604  2.2642   1
   4   5   2 921.529  21.392   1
   4   5   3 79.8383 2.32562   1
   4   5   4 1925.77 43.8299   1
   4   5   5 186.781 4.60026   1
   4   5   6 320.087 7.51272   1
   4   5   7 418.672 9.76346   1
   4   5   8 445.725 10.3279   1
   4   5   9  221.70  5.2246   1
   4   5  10 1622.59 38.0315   1
   4   5  11  483.03 11.1514   1
   4   5  12  579.43 13.7417   1
   4   5  13 134.553 3.50057   1
   4   5  14 378.042 9.73546   1
   4   5  15 50.4171 1.54075   1
   4   5  16  266.70 6.28189   1
   4   5  17 147.083  3.4472   1
   4   5  18 148.919 3.76364   1
   4   5  19 143.414   3.365   1
   4   5  20 59.3418 1.55434   1
   4   5  21  108.09 2.78449   1
   4   5  22 269.173 6.56613   1
   4   5  23 78.5332 2.13574   1
   4   5  24 242.793  5.7939   1
   4   5  25 163.097 4.03258   1
   4   5  26 485.791 11.5896   1
   4   5  27 117.298  5.0515   1
   4   5  28 616.073 15.2877   1
   4   5  29 271.848 7.10844   1
   4   5  30 394.444 10.7029   1
   4   5  31 150.808 4.47716   1
   4   5  32 276.948 8.75357   1
   4   5  33 193.549 5.97613   1
   4   5  34 399.634 13.0811   1
   4   5  35 65.7676 8.99362   1
   4   5  36 399.263 13.9785   1
   4   5  37 64.9503 5.12961   1
   4   5  39 4.61629  4.8975   1
   4   5  40 243.148  19.262   1
   4   5  41 3.61275 4.66661   1
   4   5  42 309.703 23.3387   1
   4   5  43 22.1181 6.58696   1
   4   5  44 213.403 18.1798   1
   4   6 -43 1.26475 1.77706   1
   4   6 -42 0.05246 1.44317   1
   4   6 -41 10.6204 1.74416   1
   4   6 -40 13.1678 1.68578   1
   4   6 -39 10.7011 1.58348   1
   4   6 -38 46.4599 2.15414   1
   4   6 -37  20.229 1.64599   1
   4   6 -36 31.7639 1.85823   1
   4   6 -35 30.5439 1.79137   1
   4   6 -34 12.7445 1.31261   1
   4   6 -33 10.2022 1.21393   1
   4   6 -32 101.897 3.98456   1
   4   6 -31 49.7587 1.99925   1
   4   6 -30 81.6028 3.13279   1
   4   6 -29 183.879 5.39614   1
   4   6 -28 17.5308 1.59216   1
   4   6 -27  318.19 9.45293   1
   4   6 -26 6.09462 1.47222   1
   4   6 -25  447.48 11.7118   1
   4   6 -24 104.967 2.84341   1
   4   6 -23  534.46 14.2858   1
   4   6 -22 122.545 3.75092   1
   4   6 -21 596.324  13.561   1
   4   6 -20 215.458 6.13218   1
   4   6 -19 546.665 13.4911   1
   4   6 -18 364.452 9.64911   1
   4   6 -17 1248.33 28.6954   1
   4   6 -16 223.778 5.25989   1
   4   6 -15 1704.80 38.7513   1
   4   6 -14 240.142 5.52624   1
   4   6 -13 1363.41 30.9625   1
   4   6 -12 194.181 4.50787   1
   4   6 -11 1581.99 36.2205   1
   4   6 -10 61.0655 2.53713   1
   4   6  -9 658.187 15.6478   1
   4   6  -8 206.895 5.31926   1
   4   6  -7 123.296 3.50812   1
   4   6  -6 50.9136 2.03922   1
   4   6  -5 45.8627 1.58295   1
   4   6  -4 37.1358  1.8868   1
   4   6  -3 152.299 3.91554   1
   4   6  -2 42.6066 2.00107   1
   4   6  -1 61.0975 2.10171   1
   4   6   0 80.6158 2.34386   1
   4   6   1 66.7745 2.43453   1
   4   6   2 43.1956 1.87698   1
   4   6   3  140.55 3.38388   1
   4   6   4 37.1378 1.31732   1
   4   6   5  49.875 1.99466   1
   4   6   6 49.2606 1.41488   1
   4   6   7 125.342 3.53761   1
   4   6   8 204.563 4.87389   1
   4   6   9 631.342 14.5703   1
   4   6  10 65.9754 2.01138   1
   4   6  11 1566.93 35.3701   1
   4   6  12 187.082 4.57811   1
   4   6  13 1388.23 33.0663   1
   4   6  14 247.095 6.42888   1
   4   6  15 1687.63 38.0755   1
   4   6  16  215.24 4.98952   1
   4   6  17 1235.25 27.7206   1
   4   6  18 358.983 8.37486   1
   4   6  19 564.113  12.911   1
   4   6  20  220.38 5.17819   1
   4   6  21 585.404 13.4221   1
   4   6  22 133.713  3.3611   1
   4   6  23 539.013 13.6932   1
   4   6  24 113.891 3.59915   1
   4   6  25 425.606 9.75624   1
   4   6  26 8.06143  1.3325   1
   4   6  27  310.16 8.04875   1
   4   6  28 16.9526 1.48779   1
   4   6  29 198.564  7.3564   1
   4   6  30 77.5768 2.83508   1
   4   6  31 51.5615 2.30483   1
   4   6  32 100.169 3.27894   1
   4   6  33 11.5765 1.74014   1
   4   6  34 11.8936   2.179   1
   4   6  35 31.7206  2.5654   1
   4   6  36 34.9233 2.84155   1
   4   6  37 26.6292 3.60811   1
   4   6  40 17.3211 5.59241   1
   4   6  41  9.6641 4.46681   1
   4   6  42 6.58323 5.92127   1
   4   6  43 0.59209 4.25502   1
   4   7 -42 60.1868 2.95102   1
   4   7 -41 46.8646 2.60681   1
   4   7 -40 53.7703 2.98295   1
   4   7 -39 126.157   4.235   1
   4   7 -38 150.476 4.96608   1
   4   7 -37 96.0336 3.23825   1
   4   7 -36 269.961 8.70766   1
   4   7 -35 100.958 3.61747   1
   4   7 -34 307.992 8.41308   1
   4   7 -33  592.85 15.4692   1
   4   7 -32 270.335 7.71717   1
   4   7 -31 635.975 16.8018   1
   4   7 -30 401.361 10.8897   1
   4   7 -29 353.555 9.44611   1
   4   7 -28 164.473 5.79422   1
   4   7 -27 258.091 8.55721   1
   4   7 -26 47.7799 1.92594   1
   4   7 -25  79.971 2.44613   1
   4   7 -24 2.59185 1.07338   1
   4   7 -23 20.8883 1.57745   1
   4   7 -22 4.12292 1.06091   1
   4   7 -21  47.252 1.98787   1
   4   7 -20 30.6865 1.59251   1
   4   7 -19 124.337 3.18056   1
   4   7 -18 20.9662 0.98085   1
   4   7 -17 48.9431  1.3879   1
   4   7 -16 39.8378 1.23117   1
   4   7 -15 149.025 3.80491   1
   4   7 -14 33.4125 1.32869   1
   4   7 -13 256.281  6.0691   1
   4   7 -12 61.2934 1.81559   1
   4   7 -11 497.098 11.6451   1
   4   7 -10 149.309 3.54654   1
   4   7  -9  966.62 22.0207   1
   4   7  -8 358.645 8.72225   1
   4   7  -7 1029.75 23.6051   1
   4   7  -6 601.127 13.7462   1
   4   7  -5 568.685 13.0954   1
   4   7  -4 575.753 13.2186   1
   4   7  -3 163.852 3.81843   1
   4   7  -2 677.805  15.408   1
   4   7  -1 84.0748 2.41264   1
   4   7   0 447.474 10.1142   1
   4   7   1 87.3335 2.52529   1
   4   7   2 689.309  16.166   1
   4   7   3 192.031 5.10861   1
   4   7   4 593.057 13.5786   1
   4   7   5 566.541 12.9951   1
   4   7   6 612.526 14.1609   1
   4   7   7 1016.97 24.0561   1
   4   7   8 378.398 9.10905   1
   4   7   9 950.431   22.00   1
   4   7  10 156.906 3.76006   1
   4   7  11 482.118 10.9698   1
   4   7  12 59.1882 2.41077   1
   4   7  13 246.514 5.78552   1
   4   7  14 27.1202 1.06568   1
   4   7  15 146.879 3.52262   1
   4   7  16 40.1064 1.48678   1
   4   7  17 47.7839 1.84568   1
   4   7  18 20.8253 1.27348   1
   4   7  19 113.719 3.07988   1
   4   7  20 33.7409 1.22637   1
   4   7  21 42.1959 1.43841   1
   4   7  22 7.17618 1.13238   1
   4   7  23 17.2103 1.20634   1
   4   7  24 1.16657 1.33144   1
   4   7  25 82.3827 2.39974   1
   4   7  26 54.8808 1.94656   1
   4   7  27 255.792 6.48493   1
   4   7  28 166.535 4.54503   1
   4   7  29 368.175 9.38328   1
   4   7  30 400.981 10.8195   1
   4   7  31 651.942  18.623   1
   4   7  32 268.297 8.76321   1
   4   7  33 583.261 17.5366   1
   4   7  34 296.718 9.87349   1
   4   7  35 100.222 3.96854   1
   4   7  36 258.127 18.4141   1
   4   7  37 83.6255 5.19651   1
   4   7  38 152.376 7.06956   1
   4   7  39 122.372 11.3163   1
   4   7  40 62.7213 8.04286   1
   4   7  41 57.9947 5.91936   1
   4   7  42 71.3618 9.84063   1
   4   8 -40 5.73685 2.01052   1
   4   8 -39 8.89377 1.93525   1
   4   8 -38 39.2295 2.35105   1
   4   8 -37  19.119 1.96877   1
   4   8 -36 19.3353 2.29382   1
   4   8 -35 104.963  3.8462   1
   4   8 -34 2.96864 1.35091   1
   4   8 -33 117.032 3.76937   1
   4   8 -32 44.0926 2.36011   1
   4   8 -31 29.7314 1.90608   1
   4   8 -30 18.1869 1.52821   1
   4   8 -29 10.3221 1.71713   1
   4   8 -28  117.25 3.71551   1
   4   8 -27 10.7111   1.377   1
   4   8 -26 289.804 7.42876   1
   4   8 -25 65.2088 2.19132   1
   4   8 -24 259.974 6.66556   1
   4   8 -23  19.856 1.10603   1
   4   8 -22 489.694 14.5983   1
   4   8 -21 16.5862 1.07305   1
   4   8 -20 939.292 21.3932   1
   4   8 -19 147.011 4.89806   1
   4   8 -18 1029.35 23.8442   1
   4   8 -17 37.7958 1.51634   1
   4   8 -16 991.864 23.0275   1
   4   8 -15 80.9141 2.51796   1
   4   8 -14 1543.82  35.399   1
   4   8 -13 61.6557 1.88388   1
   4   8 -12 914.911 20.9301   1
   4   8 -11 18.2082  0.8762   1
   4   8 -10  763.19 17.8286   1
   4   8  -9 56.1132 1.55084   1
   4   8  -8 372.712 8.67009   1
   4   8  -7 124.597 2.95684   1
   4   8  -6 72.4005 2.17001   1
   4   8  -5 205.215 4.72127   1
   4   8  -4 26.9008 0.91894   1
   4   8  -3 225.894 5.48421   1
   4   8  -2 160.855 4.02242   1
   4   8  -1 46.6724 1.56839   1
   4   8   0  75.154 1.98803   1
   4   8   1 53.1172 1.54813   1
   4   8   2 160.612  3.9418   1
   4   8   3 215.689 5.48083   1
   4   8   4 28.1209 0.96217   1
   4   8   5  206.76 4.95234   1
   4   8   6 78.7951 2.23505   1
   4   8   7 134.997 3.53901   1
   4   8   8 365.874 8.91217   1
   4   8   9 60.1491 1.89896   1
   4   8  10 807.242 18.7215   1
   4   8  11   19.37 1.09086   1
   4   8  12 911.146  21.239   1
   4   8  13 60.5273 2.50757   1
   4   8  14 1528.76 35.3174   1
   4   8  15 78.7846 2.51119   1
   4   8  16 958.143 23.1815   1
   4   8  17 38.7178 1.51071   1
   4   8  18 1017.93 23.5739   1
   4   8  19  155.50 5.25633   1
   4   8  20 911.436 25.5727   1
   4   8  21 18.6458 1.19509   1
   4   8  22 484.907 11.4051   1
   4   8  23 22.3322 1.32536   1
   4   8  24 276.593  7.0636   1
   4   8  25  66.816 2.43552   1
   4   8  26 283.376 7.27335   1
   4   8  27 10.5708 1.10035   1
   4   8  28 117.476 4.25794   1
   4   8  29  9.7946 1.42799   1
   4   8  30 11.7911 1.58331   1
   4   8  31 30.3429 2.35966   1
   4   8  32 41.0417 2.80762   1
   4   8  33 117.256 5.41676   1
   4   8  34 3.71698 2.67913   1
   4   8  35 106.438 5.07415   1
   4   8  36 19.9051 3.04236   1
   4   8  37 20.3721 2.86163   1
   4   8  38 30.5261 3.77109   1
   4   8  39 4.73542 3.22417   1
   4   8  40 6.49073 3.74506   1
   4   9 -38  53.131 2.96362   1
   4   9 -37 256.819  8.8243   1
   4   9 -36 35.0829 2.48802   1
   4   9 -35 314.918 9.53704   1
   4   9 -34 39.0718 2.17087   1
   4   9 -33 303.514 8.53564   1
   4   9 -32 112.802 5.34393   1
   4   9 -31 144.077 4.96973   1
   4   9 -30 54.4937 3.51777   1
   4   9 -29 120.231 6.42571   1
   4   9 -28  105.86 3.49067   1
   4   9 -27 357.662 9.37317   1
   4   9 -26 69.0558 2.38096   1
   4   9 -25 272.109 7.46641   1
   4   9 -24 25.5925 1.38821   1
   4   9 -23 65.9209 2.14968   1
   4   9 -22 46.4897 1.97528   1
   4   9 -21 87.4064  2.6733   1
   4   9 -20 81.6219 2.91006   1
   4   9 -19 6.23159 1.06699   1
   4   9 -18 38.8905 1.46891   1
   4   9 -17 187.929 4.73599   1
   4   9 -16 82.8766 3.04882   1
   4   9 -15 337.549 8.89116   1
   4   9 -14  43.741 1.65076   1
   4   9 -13 159.898 4.20492   1
   4   9 -12  110.01 2.85445   1
   4   9 -11 171.975 4.34704   1
   4   9 -10 432.701 10.8121   1
   4   9  -9 106.759 2.97248   1
   4   9  -8 168.457 4.21269   1
   4   9  -7 276.179 6.35304   1
   4   9  -6 176.324 4.15759   1
   4   9  -5 391.339 9.05947   1
   4   9  -4 198.123 4.68201   1
   4   9  -3 644.698 14.6443   1
   4   9  -2 48.9733 2.14426   1
   4   9  -1 1172.74 26.7312   1
   4   9   0 4.12805 0.73605   1
   4   9   1 1164.01 26.7109   1
   4   9   2 47.9696 1.51585   1
   4   9   3 652.563 15.5645   1
   4   9   4 190.213 4.53725   1
   4   9   5 406.957 9.84787   1
   4   9   6 164.396 4.46117   1
   4   9   7 279.496   6.522   1
   4   9   8  168.71 4.25594   1
   4   9   9 115.748  2.8744   1
   4   9  10 436.023 10.0708   1
   4   9  11 167.003 4.42558   1
   4   9  12 119.451 3.49093   1
   4   9  13 165.023 4.68163   1
   4   9  14 45.7368 1.93669   1
   4   9  15 332.315 8.01981   1
   4   9  16 85.8053 3.80275   1
   4   9  17 187.726 5.43188   1
   4   9  18 41.4946 1.86825   1
   4   9  19 5.71506 0.98422   1
   4   9  20 83.4231 2.43392   1
   4   9  21 90.2073 2.70488   1
   4   9  22 50.8988 2.65152   1
   4   9  23 57.3693 2.38481   1
   4   9  24 25.3179 1.52263   1
   4   9  25 271.448 8.72896   1
   4   9  26 64.2179 2.41637   1
   4   9  27 355.197  10.873   1
   4   9  28 100.783   4.533   1
   4   9  29 119.497 4.59074   1
   4   9  30 54.9605 3.25196   1
   4   9  31 143.624 5.32619   1
   4   9  32 117.311 6.76295   1
   4   9  33 278.239 13.2554   1
   4   9  34 38.8803 3.81012   1
   4   9  35 324.835 23.6121   1
   4   9  36 33.5235 3.17294   1
   4   9  37 272.729 12.5358   1
   4   9  38 49.6948 4.67774   1
   4  10 -36 10.7317  6.1003   1
   4  10 -35 34.9881 2.39917   1
   4  10 -34 38.9285 2.59081   1
   4  10 -33 77.3328 4.12276   1
   4  10 -32 60.2545 3.12369   1
   4  10 -31 22.1936 2.38915   1
   4  10 -30 62.9708 3.16114   1
   4  10 -29 0.48539 1.50136   1
   4  10 -28 31.2632 2.08893   1
   4  10 -27 41.1625 2.26207   1
   4  10 -26  117.91 3.92022   1
   4  10 -25 92.2895 3.23334   1
   4  10 -24 104.871 3.67117   1
   4  10 -23 559.715 14.6961   1
   4  10 -22 132.785 4.60978   1
   4  10 -21 667.437 18.6837   1
   4  10 -20  187.49 5.51677   1
   4  10 -19 1052.37 26.8235   1
   4  10 -18 159.368 4.88006   1
   4  10 -17 898.656 22.2777   1
   4  10 -16 137.919 5.08239   1
   4  10 -15 543.757 13.0847   1
   4  10 -14 262.933 7.59069   1
   4  10 -13 229.505 5.78317   1
   4  10 -12 73.3496 2.37591   1
   4  10 -11 92.0739  3.0911   1
   4  10 -10 71.9332 3.25225   1
   4  10  -9 151.759 5.19474   1
   4  10  -8 263.806 7.09994   1
   4  10  -7 84.6481 2.70742   1
   4  10  -6 82.8035 2.57829   1
   4  10  -5 170.354 4.51482   1
   4  10  -4 91.6281 2.55038   1
   4  10  -3 104.084 2.85649   1
   4  10  -2 125.729 3.71989   1
   4  10  -1 53.2819  1.6993   1
   4  10   0 8.13596 0.99515   1
   4  10   1 54.2808  1.6322   1
   4  10   2 119.194 3.00597   1
   4  10   3  104.81 4.09986   1
   4  10   4 91.7515 2.69277   1
   4  10   5 166.139 4.59796   1
   4  10   6  80.773 2.38476   1
   4  10   7 83.0593 2.48987   1
   4  10   8 259.977 6.37417   1
   4  10   9  148.50 3.92451   1
   4  10  10 74.7219 2.32036   1
   4  10  11 91.9861  2.7069   1
   4  10  12 79.5234 2.43896   1
   4  10  13 220.194 5.43357   1
   4  10  14 250.467 6.60279   1
   4  10  15 532.497 12.5893   1
   4  10  16 154.357 4.36753   1
   4  10  17 894.926 21.7863   1
   4  10  18 154.368 5.39832   1
   4  10  19 1067.66 25.7606   1
   4  10  20 188.239 6.91648   1
   4  10  21 644.765 16.2075   1
   4  10  22  125.01 3.59667   1
   4  10  23 511.639 14.2472   1
   4  10  24 97.1568 3.20697   1
   4  10  25 85.7426 3.61093   1
   4  10  26 117.131 4.75526   1
   4  10  27 38.4927 2.23161   1
   4  10  28  21.902 2.01698   1
   4  10  29 0.94847 1.84411   1
   4  10  30  59.447 3.16325   1
   4  10  31 22.6711  3.1975   1
   4  10  32 59.0135  3.4147   1
   4  10  33  77.809 5.75143   1
   4  10  34 34.2384 4.38615   1
   4  10  35 34.4973 3.96302   1
   4  11 -33 58.1711 3.53853   1
   4  11 -32 131.846 5.60229   1
   4  11 -31 23.9127 2.28364   1
   4  11 -30 234.882 7.39802   1
   4  11 -29 33.4004 2.34989   1
   4  11 -28 167.025 5.94841   1
   4  11 -27 57.3022  2.5859   1
   4  11 -26  273.29  7.9285   1
   4  11 -25 26.0616 1.78668   1
   4  11 -24 170.712 5.83391   1
   4  11 -23 92.1294 3.21812   1
   4  11 -22 69.6894  2.7938   1
   4  11 -21  44.853 2.12109   1
   4  11 -20 117.141 3.80028   1
   4  11 -19 14.1046 1.43059   1
   4  11 -18 44.5259 2.35879   1
   4  11 -17 44.0881 2.86853   1
   4  11 -16 105.215  3.4352   1
   4  11 -15  98.427 3.03709   1
   4  11 -14 199.621 7.53992   1
   4  11 -13 54.4915 2.01231   1
   4  11 -12 209.717 5.72698   1
   4  11 -11 87.5897  3.0847   1
   4  11 -10 343.625 11.6036   1
   4  11  -9 10.6949 1.30784   1
   4  11  -8 293.476 8.02307   1
   4  11  -7 82.4212 4.30439   1
   4  11  -6 323.125 7.83375   1
   4  11  -5 80.8778 2.59358   1
   4  11  -4 486.444 12.0741   1
   4  11  -3 66.6971  2.5792   1
   4  11  -2 664.594 17.1117   1
   4  11  -1 5.53758 1.18755   1
   4  11   0 634.532 17.8145   1
   4  11   1 5.19813 1.05451   1
   4  11   2 662.217 16.2621   1
   4  11   3  62.567 2.58079   1
   4  11   4 501.509 12.9678   1
   4  11   5 80.6014 2.52219   1
   4  11   6 331.802 7.91609   1
   4  11   7 81.0173 2.26418   1
   4  11   8 295.656 7.50483   1
   4  11   9 9.56388 1.27179   1
   4  11  10  358.14 9.28971   1
   4  11  11 89.0326  2.7582   1
   4  11  12 211.695 5.49483   1
   4  11  13 55.0948 3.85772   1
   4  11  14 198.406 7.95023   1
   4  11  15 97.0373 3.26027   1
   4  11  16 104.881 4.15576   1
   4  11  17 44.4848 3.89742   1
   4  11  18 47.2793 2.73736   1
   4  11  19 11.6706 1.80396   1
   4  11  20 112.744  7.7501   1
   4  11  21  49.737 2.75917   1
   4  11  22 71.4116 2.81042   1
   4  11  23 94.1019 3.47544   1
   4  11  24 172.964  8.2868   1
   4  11  25 27.3663 2.46108   1
   4  11  26 260.325 12.0384   1
   4  11  27 62.8583 3.52951   1
   4  11  28 165.441 7.04176   1
   4  11  29  35.502 2.66535   1
   4  11  30 229.318 7.88038   1
   4  11  31 21.4771 2.77682   1
   4  11  32 134.827 5.46755   1
   4  11  33 60.3725  5.2901   1
   4  12 -29  164.17  7.3511   1
   4  12 -28 28.7752 2.55834   1
   4  12 -27 271.368 11.2057   1
   4  12 -26 36.1124  2.3803   1
   4  12 -25 324.948 10.3097   1
   4  12 -24 98.0608 3.64825   1
   4  12 -23 237.816 7.85895   1
   4  12 -22 225.894 9.04138   1
   4  12 -21 112.349 5.26622   1
   4  12 -20 185.294 5.83384   1
   4  12 -19 153.585 4.67997   1
   4  12 -18 299.702 9.43959   1
   4  12 -17 179.086  5.9066   1
   4  12 -16 316.892 9.13389   1
   4  12 -15 266.758 8.96152   1
   4  12 -14 190.247  5.8637   1
   4  12 -13 485.812 12.3656   1
   4  12 -12  17.754 1.42176   1
   4  12 -11  255.36 8.84468   1
   4  12 -10 73.0681 3.53422   1
   4  12  -9 395.429 11.7296   1
   4  12  -8 56.4658 2.76621   1
   4  12  -7 109.943  3.8529   1
   4  12  -6 38.6116 2.82563   1
   4  12  -5 6.67331 1.41269   1
   4  12  -4 28.1682 1.61218   1
   4  12  -3 25.2584 1.41827   1
   4  12  -2 8.44462 1.07454   1
   4  12  -1 34.4074 1.71035   1
   4  12   0 31.1444 1.66083   1
   4  12   1 34.6543 1.47175   1
   4  12   2 6.71131 1.10462   1
   4  12   3 24.6924 1.38823   1
   4  12   4 29.9069 1.51781   1
   4  12   5 3.28315 1.02217   1
   4  12   6 42.8807 1.66416   1
   4  12   7 113.149 3.33214   1
   4  12   8 57.6008  2.3562   1
   4  12   9 399.258 10.7741   1
   4  12  10 73.5804 2.36066   1
   4  12  11 253.849 6.85093   1
   4  12  12 12.7948 1.99479   1
   4  12  13 490.242 14.0114   1
   4  12  14  186.12 8.59173   1
   4  12  15 285.298 10.2374   1
   4  12  16 286.688 8.73989   1
   4  12  17 189.057 16.3343   1
   4  12  18 289.069 8.93127   1
   4  12  19 155.391 10.0876   1
   4  12  20 194.054   6.538   1
   4  12  21 108.653 5.27415   1
   4  12  22 221.593 9.16406   1
   4  12  23 240.205 9.71708   1
   4  12  24 95.3135 5.18411   1
   4  12  25 317.855 12.1865   1
   4  12  26 37.0034 3.17034   1
   4  12  27 254.719  11.506   1
   4  12  28 32.5926 3.05568   1
   4  12  29 158.996 6.30945   1
   4  13 -25 63.5885 3.37347   1
   4  13 -24 2.86151 1.96169   1
   4  13 -23 6.54666 1.97508   1
   4  13 -22 2.00004 1.76248   1
   4  13 -21 44.4724 3.23855   1
   4  13 -20 2.79504 2.09932   1
   4  13 -19 18.8634 2.40384   1
   4  13 -18 1.79757 1.65494   1
   4  13 -17 2.96219 1.93248   1
   4  13 -16  7.2373 2.08994   1
   4  13 -15 17.6346 2.08273   1
   4  13 -14 18.9632 1.91055   1
   4  13 -13 95.1675  4.1073   1
   4  13 -12 9.47516 2.00062   1
   4  13 -11 199.175 9.06276   1
   4  13 -10 38.7356 3.88465   1
   4  13  -9  516.89 18.9308   1
   4  13  -8 63.3784 2.94916   1
   4  13  -7 494.178 14.0185   1
   4  13  -6 77.4939 4.02454   1
   4  13  -5 474.059 15.5974   1
   4  13  -4 130.896 5.98898   1
   4  13  -3 281.618 8.09911   1
   4  13  -2 77.3489 3.27049   1
   4  13  -1  165.56 5.68735   1
   4  13   0 27.9999 1.72704   1
   4  13   1 176.846 7.47239   1
   4  13   2 75.0237 2.61613   1
   4  13   3 319.021 9.42881   1
   4  13   4 124.916 3.68573   1
   4  13   5 492.316 12.9257   1
   4  13   6 85.1732 3.17598   1
   4  13   7 483.328 12.8072   1
   4  13   8 61.1614  2.2734   1
   4  13   9 531.353 15.2502   1
   4  13  10 37.9539 2.42896   1
   4  13  11 207.459 6.39939   1
   4  13  12 10.5871 1.53128   1
   4  13  13 94.3869 3.41015   1
   4  13  14 17.0172 2.28897   1
   4  13  15 17.2362 2.19582   1
   4  13  16 9.15983 1.95772   1
   4  13  17  1.8772 2.05003   1
   4  13  18  0.9479 2.50251   1
   4  13  19 18.6511 2.66564   1
   4  13  20   2.757 1.80524   1
   4  13  21 44.5347 3.41179   1
   4  13  22 3.59193 3.17776   1
   4  13  23 9.51742 2.38609   1
   4  13  24 1.21233 3.44683   1
   4  13  25 61.3394 5.17028   1
   4  14 -19 8.19641 2.35317   1
   4  14 -18 221.209 8.53809   1
   4  14 -17 47.9023 3.60154   1
   4  14 -16 144.936 9.03471   1
   4  14 -15 56.3482 6.16957   1
   4  14 -14 269.828 12.8146   1
   4  14 -13  63.271 4.80388   1
   4  14 -12 350.607 15.4852   1
   4  14 -11 31.5511 2.87092   1
   4  14 -10  225.91 8.96116   1
   4  14  -9 50.7496 3.37457   1
   4  14  -8 174.734 6.34401   1
   4  14  -7 75.1252 7.46815   1
   4  14  -6 51.0788 5.02392   1
   4  14  -5 37.8163 3.31632   1
   4  14  -4 27.5835 3.17926   1
   4  14  -3 40.5935 2.60517   1
   4  14  -2 28.4761 2.38825   1
   4  14  -1  31.321 2.59867   1
   4  14   0 33.1358 3.97173   1
   4  14   1 37.0624 2.48256   1
   4  14   2 27.2797 2.24221   1
   4  14   3 42.3869 2.79012   1
   4  14   4 27.5652 2.48051   1
   4  14   5 40.4359 2.22487   1
   4  14   6 53.9966 2.51376   1
   4  14   7 70.7089 3.34809   1
   4  14   8  193.24 5.50266   1
   4  14   9 45.5701 2.87119   1
   4  14  10 217.576 7.26742   1
   4  14  11 32.3753 1.99369   1
   4  14  12 340.688  10.726   1
   4  14  13 78.1512  3.2843   1
   4  14  14 282.835 11.4579   1
   4  14  15 53.9351 4.08362   1
   4  14  16 144.558 6.31842   1
   4  14  17 51.9255   3.202   1
   4  14  18 208.937 11.1346   1
   4  14  19 9.18478  2.7498   1
   4  15  -9 43.4674 3.71485   1
   4  15  -8 192.081 9.04866   1
   4  15  -7 81.3811 7.76767   1
   4  15  -6 137.456 6.84676   1
   4  15  -5 145.372 7.34331   1
   4  15  -4 166.891 24.1853   1
   4  15  -3  154.71 12.1123   1
   4  15  -2 136.995  6.6882   1
   4  15  -1 271.557 9.44665   1
   4  15   0 112.119 7.55503   1
   4  15   1 261.022 9.24026   1
   4  15   2 141.177 8.75343   1
   4  15   3  154.33 5.88828   1
   4  15   4 159.939 6.00613   1
   4  15   5 161.642  5.6237   1
   4  15   6 123.013  6.3462   1
   4  15   7 88.5714 5.54989   1
   4  15   8 202.475 6.32822   1
   4  15   9 40.4411 2.71081   1
   5   0   1 793.174 17.9472   1
   5   0   2 53.3088 1.68705   1
   5   0   3 1147.23 25.9298   1
   5   0   4 7.53802 1.12613   1
   5   0   5 1888.59 42.2717   1
   5   0   6 98.4775 2.56404   1
   5   0   7 969.942 21.7876   1
   5   0   8 76.6429 2.17797   1
   5   0   9 1033.66 23.1641   1
   5   0  10 293.083 6.81282   1
   5   0  11 541.746 12.3982   1
   5   0  12 277.514 6.51591   1
   5   0  13 83.1137 2.31001   1
   5   0  14 902.986 20.3852   1
   5   0  15 89.0861 2.17086   1
   5   0  16  263.66 6.16124   1
   5   0  17 74.2791 1.83627   1
   5   0  18 146.636 3.62139   1
   5   0  19 26.0835 0.89955   1
   5   0  20 205.045 4.70001   1
   5   0  21 164.049 3.87883   1
   5   0  22 60.2367 1.73946   1
   5   0  23 6.93382 0.77639   1
   5   0  24 67.0226 2.12872   1
   5   0  25 3.76629 0.92815   1
   5   0  26 88.7054 3.52676   1
   5   0  27 266.248 7.83061   1
   5   0  28 28.3603 3.22427   1
   5   0  29  292.69 7.88116   1
   5   0  30 3.30362 1.29716   1
   5   0  31 629.493 16.9469   1
   5   0  32 1.68773 1.18405   1
   5   0  33 530.624 13.6517   1
   5   0  34-1.17415 3.24255   1
   5   0  35  434.47 11.3593   1
   5   0  36 45.1438 2.08846   1
   5   0  37 178.665 5.72404   1
   5   0  38 3.05953  1.3307   1
   5   0  39 196.175 6.27474   1
   5   0  40 30.0593 2.38487   1
   5   0  41 321.426 12.2906   1
   5   0  42 6.94103 2.00886   1
   5   0  43 109.418 6.48579   1
   5   0  44 14.9002 2.37464   1
   5   0  45 183.391 7.43427   1
   5   1 -45 86.9611 4.87778   1
   5   1 -44  52.805 2.96518   1
   5   1 -43 27.1827 2.44119   1
   5   1 -42 165.801 6.51786   1
   5   1 -41 75.0426  3.5994   1
   5   1 -40 79.2383 3.27068   1
   5   1 -39 3.00481 1.60448   1
   5   1 -38  30.471 1.99263   1
   5   1 -37 25.9274 1.78357   1
   5   1 -36  52.317  2.6649   1
   5   1 -35 68.2444 3.37435   1
   5   1 -34 24.4796 1.58976   1
   5   1 -33 41.0658 1.97854   1
   5   1 -32 106.275 3.57244   1
   5   1 -31 332.893 9.31613   1
   5   1 -30 266.636 8.63206   1
   5   1 -29 354.818 8.40529   1
   5   1 -28 275.326 11.1558   1
   5   1 -27 416.253 28.3812   1
   5   1 -26 687.835 16.2954   1
   5   1 -25 498.094  11.635   1
   5   1 -24 659.515 15.1571   1
   5   1 -23 217.628  5.4229   1
   5   1 -22 501.398 11.4166   1
   5   1 -21 31.1698 1.00781   1
   5   1 -20 674.553 15.3368   1
   5   1 -19 170.455 4.22303   1
   5   1 -18 292.337  7.0378   1
   5   1 -17 108.354 2.97642   1
   5   1 -16 600.407 13.7557   1
   5   1 -15 361.997 8.23884   1
   5   1 -14 967.913 22.0477   1
   5   1 -13 1034.26 23.5063   1
   5   1 -12 853.813 19.6249   1
   5   1 -11 707.965 16.0588   1
   5   1 -10 400.893 9.17631   1
   5   1  -9 1194.56  26.957   1
   5   1  -8 403.739 9.23436   1
   5   1  -7  490.97 11.3856   1
   5   1  -6  642.99 14.5989   1
   5   1  -5 100.152 2.66398   1
   5   1  -4 147.663 3.60013   1
   5   1  -3 33.8389 1.35339   1
   5   1  -2 156.034  3.7791   1
   5   1  -1 225.395 5.34659   1
   5   1   0 48.6132 1.67708   1
   5   1   1 227.523 5.32835   1
   5   1   2 157.775 3.86027   1
   5   1   3 36.8503  1.4265   1
   5   1   4 151.255 4.00749   1
   5   1   5 106.188 3.11018   1
   5   1   6 657.232  14.836   1
   5   1   7 503.414 11.5028   1
   5   1   8 423.059  9.7189   1
   5   1   9 1226.10 27.6425   1
   5   1  10 379.999 8.72544   1
   5   1  11 728.606 16.7699   1
   5   1  12 830.757 18.7868   1
   5   1  13 1059.04  24.035   1
   5   1  14 945.009 21.2943   1
   5   1  15  395.91 9.06157   1
   5   1  16 566.564 12.7842   1
   5   1  17 95.6727 2.27336   1
   5   1  18 287.898 6.58057   1
   5   1  19 175.851 4.26305   1
   5   1  20 669.587 15.2379   1
   5   1  21 35.2705 1.31911   1
   5   1  22 531.281 12.3771   1
   5   1  23 211.433  5.4079   1
   5   1  24 690.561 15.8805   1
   5   1  25 484.493  11.405   1
   5   1  26 709.406 16.6479   1
   5   1  27 410.906 10.6917   1
   5   1  28 250.749 11.2915   1
   5   1  29 354.977 11.0857   1
   5   1  30 256.088 7.03528   1
   5   1  31 320.309   8.299   1
   5   1  32 99.8925 3.04021   1
   5   1  33 39.6213 2.07303   1
   5   1  34 23.1767 1.59818   1
   5   1  35 66.2125 3.24402   1
   5   1  36 54.3603 2.82458   1
   5   1  37 26.2971 2.78536   1
   5   1  38 34.9746 2.92801   1
   5   1  39 2.39442 1.85655   1
   5   1  40 85.5815 3.65949   1
   5   1  41 73.7431  3.3851   1
   5   1  42 166.496 7.11728   1
   5   1  43 31.9168 2.82939   1
   5   1  44  50.964 3.82117   1
   5   1  45 86.8023 4.43151   1
   5   2 -44  160.18 5.99569   1
   5   2 -43 32.4084 2.85244   1
   5   2 -42 124.126 4.83145   1
   5   2 -41 93.9549 4.19767   1
   5   2 -40 359.159 13.9031   1
   5   2 -39 96.0456  6.3875   1
   5   2 -38 332.901 11.6253   1
   5   2 -37 183.889  5.3029   1
   5   2 -36 271.026 7.77333   1
   5   2 -35  70.437 2.93476   1
   5   2 -34 369.155 10.6204   1
   5   2 -33 3.00767 1.71665   1
   5   2 -32 360.414  9.7389   1
   5   2 -31 26.0728 1.51163   1
   5   2 -30  337.53 8.82329   1
   5   2 -29 15.0556 1.57423   1
   5   2 -28 167.397  5.3996   1
   5   2 -27 183.365 7.18584   1
   5   2 -26 237.261  5.6254   1
   5   2 -25 120.844 3.94385   1
   5   2 -24 111.269 3.36679   1
   5   2 -23 611.304 14.3441   1
   5   2 -22 40.7947 1.25317   1
   5   2 -21 574.862 13.1248   1
   5   2 -20 5.76613 1.03527   1
   5   2 -19 642.596  14.951   1
   5   2 -18 4.08368 0.76121   1
   5   2 -17 692.216 15.5169   1
   5   2 -16 72.2594 2.06543   1
   5   2 -15 774.538 17.5419   1
   5   2 -14 164.158 4.23849   1
   5   2 -13 173.636 4.03909   1
   5   2 -12  724.40 16.4504   1
   5   2 -11 93.8271 2.81176   1
   5   2 -10 260.222 6.10098   1
   5   2  -9  51.068 2.01557   1
   5   2  -8 668.019 15.5183   1
   5   2  -7 1.95525 1.35772   1
   5   2  -6 994.082 22.4481   1
   5   2  -5 308.305 7.29694   1
   5   2  -4 1054.01 24.0385   1
   5   2  -3 99.8425 2.57965   1
   5   2  -2 1312.53 29.6313   1
   5   2  -1 539.197 12.2851   1
   5   2   0 1154.64 26.2067   1
   5   2   1 542.031 12.2673   1
   5   2   2 1303.98  29.275   1
   5   2   3 109.711 2.98517   1
   5   2   4 1064.97 23.9669   1
   5   2   5 307.288  7.0984   1
   5   2   6 1010.43 22.8095   1
   5   2   7 2.46543 1.24403   1
   5   2   8 660.992 15.0573   1
   5   2   9 56.0475  1.9008   1
   5   2  10 238.577 5.70869   1
   5   2  11 88.9507  2.5277   1
   5   2  12 704.346 15.9909   1
   5   2  13 162.029 3.94618   1
   5   2  14 162.378 3.97589   1
   5   2  15 780.172 17.9936   1
   5   2  16 62.1507  1.7051   1
   5   2  17  705.64 15.9174   1
   5   2  18 4.51755 0.51292   1
   5   2  19 634.647 14.3245   1
   5   2  20 6.51777 0.61504   1
   5   2  21  581.57 13.2115   1
   5   2  22  39.934  1.1821   1
   5   2  23  617.61   14.87   1
   5   2  24 104.681 3.10497   1
   5   2  25 132.158 3.94572   1
   5   2  26 239.708 5.89712   1
   5   2  27 190.585 5.12613   1
   5   2  28 179.269 7.06011   1
   5   2  29 16.1255 1.51967   1
   5   2  30 329.512 8.98895   1
   5   2  31 31.2271 1.49899   1
   5   2  32 341.712 10.1181   1
   5   2  33  5.3893 1.42582   1
   5   2  34 343.592 9.14686   1
   5   2  35 67.5799 3.98289   1
   5   2  36 266.366 9.12813   1
   5   2  37  179.24 10.4008   1
   5   2  38 335.869 11.1184   1
   5   2  39 94.4555 4.13731   1
   5   2  40 352.088 12.1184   1
   5   2  41 90.0437 4.38802   1
   5   2  42  134.62 6.12428   1
   5   2  43 36.5106 4.06333   1
   5   2  44 174.206 9.38575   1
   5   3 -44 62.0561 2.98813   1
   5   3 -43 117.511 4.89756   1
   5   3 -42 187.554 8.90386   1
   5   3 -41 182.858 8.18665   1
   5   3 -40 93.8838 4.10364   1
   5   3 -39 26.5786 2.06089   1
   5   3 -38 59.8192 2.91236   1
   5   3 -37 49.9238 2.29183   1
   5   3 -36  60.577  2.3324   1
   5   3 -35 16.7807 1.57109   1
   5   3 -34 6.77584 1.72013   1
   5   3 -33 154.932  4.6297   1
   5   3 -32 0.61794 1.34545   1
   5   3 -31 208.428 6.50178   1
   5   3 -30 104.809 4.42471   1
   5   3 -29 125.045 3.56916   1
   5   3 -28 66.7165 2.59404   1
   5   3 -27 113.025 3.22132   1
   5   3 -26 141.868 3.96083   1
   5   3 -25 359.774 8.67852   1
   5   3 -24 243.918 5.77668   1
   5   3 -23 830.978 19.1065   1
   5   3 -22  271.91 7.51602   1
   5   3 -21  714.30 17.1189   1
   5   3 -20 28.6835  1.3138   1
   5   3 -19 1005.21 22.8433   1
   5   3 -18 37.6958 1.34671   1
   5   3 -17 776.995 18.9686   1
   5   3 -16 194.076 4.88508   1
   5   3 -15 607.061 14.7966   1
   5   3 -14 298.049 7.13661   1
   5   3 -13 499.347 12.4392   1
   5   3 -12 63.2725  2.1691   1
   5   3 -11 218.881 5.16952   1
   5   3 -10 603.726 13.8033   1
   5   3  -9 564.027 13.1576   1
   5   3  -8 174.889 4.35045   1
   5   3  -7 712.868 16.2373   1
   5   3  -6 36.5593 2.03636   1
   5   3  -5 555.132 12.8714   1
   5   3  -4 273.279 6.57195   1
   5   3  -3 420.024 9.89911   1
   5   3  -2 160.484 5.05737   1
   5   3  -1 27.2802 1.81288   1
   5   3   0 15.9318  1.5605   1
   5   3   1 29.6609 1.43559   1
   5   3   2 152.135 3.87691   1
   5   3   3 415.965 9.54142   1
   5   3   4 279.764 6.74948   1
   5   3   5 562.938 12.8327   1
   5   3   6  42.835  1.7041   1
   5   3   7 696.635 16.0887   1
   5   3   8 169.341  4.2798   1
   5   3   9 580.986 13.5664   1
   5   3  10 622.441 14.1857   1
   5   3  11 193.943 5.02506   1
   5   3  12 69.6644 1.75773   1
   5   3  13 470.843 10.9145   1
   5   3  14 287.204 6.68169   1
   5   3  15  614.43 13.9631   1
   5   3  16 201.981 5.26106   1
   5   3  17 766.376 17.2414   1
   5   3  18 40.7918 1.53228   1
   5   3  19 1022.32 23.2859   1
   5   3  20 31.4035 0.99308   1
   5   3  21 731.282 16.6661   1
   5   3  22 286.508 6.78184   1
   5   3  23 830.443 18.9291   1
   5   3  24 255.556 6.05823   1
   5   3  25 381.647 8.91418   1
   5   3  26 130.562 3.65732   1
   5   3  27 120.348 3.85701   1
   5   3  28 73.1782 2.23761   1
   5   3  29 119.312 4.90183   1
   5   3  30 109.214 3.99924   1
   5   3  31 199.711 6.03813   1
   5   3  32  0.0916 1.55779   1
   5   3  33  157.10 7.82039   1
   5   3  34 5.64771 1.89898   1
   5   3  35 14.7631 2.18413   1
   5   3  36 65.5397 3.35566   1
   5   3  37  53.769  3.7077   1
   5   3  38  66.863 5.00251   1
   5   3  39 25.0752 2.91227   1
   5   3  40 91.3042   4.678   1
   5   3  41 189.443 9.22925   1
   5   3  42  191.21 15.3244   1
   5   3  43 113.547 8.41611   1
   5   3  44 70.8203 6.66916   1
   5   4 -43 51.4828 3.64022   1
   5   4 -42  175.15  7.3515   1
   5   4 -41 180.406 6.15066   1
   5   4 -40 208.575 6.68993   1
   5   4 -39  344.58 10.5704   1
   5   4 -38 190.644 5.85029   1
   5   4 -37 227.606 6.70997   1
   5   4 -36 281.274 8.12532   1
   5   4 -35 155.285 5.29825   1
   5   4 -34 316.243 9.51746   1
   5   4 -33 145.392 4.05863   1
   5   4 -32 173.615  4.9852   1
   5   4 -31 57.4108 2.33697   1
   5   4 -30 118.142 3.93064   1
   5   4 -29 37.2031 2.18198   1
   5   4 -28 283.134 7.08364   1
   5   4 -27 94.2363 2.79587   1
   5   4 -26  186.91 9.72272   1
   5   4 -25 192.168 6.14312   1
   5   4 -24 82.7104 3.03826   1
   5   4 -23 324.376 8.87152   1
   5   4 -22 125.292 3.42062   1
   5   4 -21 393.728 9.43444   1
   5   4 -20 121.973 3.24939   1
   5   4 -19 385.234 9.10099   1
   5   4 -18 240.974 5.78191   1
   5   4 -17  565.47 13.5596   1
   5   4 -16 118.011 3.37648   1
   5   4 -15 161.157 4.37231   1
   5   4 -14  429.44  10.926   1
   5   4 -13 243.055 5.55901   1
   5   4 -12 474.358 11.4907   1
   5   4 -11 53.5247  1.4329   1
   5   4 -10 280.627 7.45364   1
   5   4  -9 14.7959 1.59189   1
   5   4  -8 154.621 3.97915   1
   5   4  -7 123.086 3.39605   1
   5   4  -6  708.25 16.1761   1
   5   4  -5 245.467 6.56941   1
   5   4  -4 734.987 16.9204   1
   5   4  -3 785.306 17.5813   1
   5   4  -2  755.38 17.1359   1
   5   4  -1 1057.54 24.6819   1
   5   4   0 714.596 17.2955   1
   5   4   1 1044.68  23.826   1
   5   4   2 708.805 16.1528   1
   5   4   3  794.80 17.9235   1
   5   4   4 707.549  16.045   1
   5   4   5 252.702 6.20541   1
   5   4   6 682.354 15.7992   1
   5   4   7 133.323 3.26758   1
   5   4   8 138.823 3.55528   1
   5   4   9 12.0802 1.77743   1
   5   4  10 270.039 6.97551   1
   5   4  11 57.7265 1.55008   1
   5   4  12 470.752 10.8845   1
   5   4  13 252.484 5.82928   1
   5   4  14 438.557 9.97355   1
   5   4  15 167.668 3.99848   1
   5   4  16 106.742 2.57107   1
   5   4  17 561.074  12.788   1
   5   4  18  234.31 5.59226   1
   5   4  19 403.107 9.72584   1
   5   4  20 119.221 2.98624   1
   5   4  21 394.634 9.30754   1
   5   4  22 123.575 3.12191   1
   5   4  23 327.907 8.01866   1
   5   4  24 79.9505 2.34385   1
   5   4  25 191.671  4.9456   1
   5   4  26 186.571 4.75049   1
   5   4  27 87.6433 2.59421   1
   5   4  28 266.374 7.20865   1
   5   4  29 31.0648 2.52118   1
   5   4  30 126.658 9.85481   1
   5   4  31 51.3466 6.43027   1
   5   4  32 181.622 5.96389   1
   5   4  33 142.103  6.0644   1
   5   4  34 347.423 24.0144   1
   5   4  35 157.176 7.25472   1
   5   4  36 282.188 9.99349   1
   5   4  37 230.576 10.3857   1
   5   4  38 194.247 10.1794   1
   5   4  39  351.74 17.8377   1
   5   4  40 193.473 16.3425   1
   5   4  41  178.60 13.4764   1
   5   4  42 181.641 18.5146   1
   5   4  43 47.4374 6.32013   1
   5   5 -42 71.8942 3.18211   1
   5   5 -41 1.79137 1.52928   1
   5   5 -40 52.1975 2.32381   1
   5   5 -39 22.2068 2.11663   1
   5   5 -38 49.2556 2.43198   1
   5   5 -37  12.767  1.8383   1
   5   5 -36 131.007  4.6955   1
   5   5 -35 55.5627 2.30676   1
   5   5 -34 13.7477 1.20893   1
   5   5 -33 183.356 6.74418   1
   5   5 -32  214.15 5.84275   1
   5   5 -31 125.622 3.61351   1
   5   5 -30 91.6728 4.77292   1
   5   5 -29 196.371 5.12364   1
   5   5 -28 109.282 3.65057   1
   5   5 -27 197.695 5.45999   1
   5   5 -26 291.695 8.10014   1
   5   5 -25 108.395 3.30657   1
   5   5 -24 338.477 9.45171   1
   5   5 -23 61.2174  3.0877   1
   5   5 -22 407.691 9.65803   1
   5   5 -21 13.5277 0.90043   1
   5   5 -20  573.08 13.2168   1
   5   5 -19  29.023 1.24491   1
   5   5 -18 608.921 15.0552   1
   5   5 -17 103.153 2.74894   1
   5   5 -16 627.223 14.3113   1
   5   5 -15 66.3484 1.96996   1
   5   5 -14 725.658 16.5087   1
   5   5 -13 209.845 4.98552   1
   5   5 -12 645.276  14.471   1
   5   5 -11 453.236  10.302   1
   5   5 -10 408.909 9.76902   1
   5   5  -9 641.747 14.9678   1
   5   5  -8 479.417 11.3552   1
   5   5  -7 744.469 17.6199   1
   5   5  -6 539.372 13.7301   1
   5   5  -5 366.874 8.81782   1
   5   5  -4 299.935 6.91705   1
   5   5  -3 6.19526 0.76926   1
   5   5  -2  169.53 4.26012   1
   5   5  -1 5.18331 1.37004   1
   5   5   0 254.583 6.22099   1
   5   5   1 5.72583 1.58813   1
   5   5   2 174.674 4.34459   1
   5   5   3  4.1215 0.78443   1
   5   5   4 309.001 7.24482   1
   5   5   5 344.216 8.30195   1
   5   5   6 513.262 12.0185   1
   5   5   7 725.691 16.8713   1
   5   5   8 454.306 10.3368   1
   5   5   9 648.283 15.7194   1
   5   5  10  392.40 8.89139   1
   5   5  11 461.734  10.431   1
   5   5  12 611.722 13.7582   1
   5   5  13 216.255 5.06984   1
   5   5  14 740.083 16.8806   1
   5   5  15 72.6575 2.58677   1
   5   5  16 639.057 15.0371   1
   5   5  17 107.747 2.71518   1
   5   5  18 605.899 13.7708   1
   5   5  19 32.8648 1.34874   1
   5   5  20  598.01 13.8824   1
   5   5  21 17.3124 0.87547   1
   5   5  22 404.246 9.74784   1
   5   5  23 56.7376 1.77498   1
   5   5  24 317.787 7.50353   1
   5   5  25 108.857 2.88785   1
   5   5  26  292.61 7.55463   1
   5   5  27 193.064 5.19569   1
   5   5  28  109.09 3.13087   1
   5   5  29 198.454 5.42343   1
   5   5  30 100.745 3.62892   1
   5   5  31 125.406 6.70806   1
   5   5  32 232.743 8.96338   1
   5   5  33 186.701 16.2211   1
   5   5  34 11.8168 2.48818   1
   5   5  35  67.022 9.57401   1
   5   5  36 127.772 5.99394   1
   5   5  37 12.8455 3.09428   1
   5   5  38 49.9818 4.73536   1
   5   5  39 20.3972 4.30501   1
   5   5  40 51.4215  7.1037   1
   5   5  41-0.15053  5.4693   1
   5   5  42  64.889 7.84455   1
   5   6 -41 130.203 4.64152   1
   5   6 -40 28.1084  2.1475   1
   5   6 -39 175.214 6.12504   1
   5   6 -38 20.2915 2.05425   1
   5   6 -37  304.78 8.75604   1
   5   6 -36  49.754 2.19463   1
   5   6 -35 289.649 8.52815   1
   5   6 -34 51.3472 2.31138   1
   5   6 -33 726.695 19.9098   1
   5   6 -32 57.5013 2.91612   1
   5   6 -31 562.578 15.3598   1
   5   6 -30 22.7297 1.58329   1
   5   6 -29 344.395 8.83222   1
   5   6 -28 85.3691 3.54009   1
   5   6 -27 127.648 3.67617   1
   5   6 -26 97.4209 3.04341   1
   5   6 -25 5.30851 1.08385   1
   5   6 -24 61.5288 2.13889   1
   5   6 -23 47.7733   2.016   1
   5   6 -22 90.7705 4.87792   1
   5   6 -21 102.708  3.1642   1
   5   6 -20 134.591 3.95494   1
   5   6 -19 15.7097 0.98195   1
   5   6 -18 206.807 5.17107   1
   5   6 -17 106.005 2.89226   1
   5   6 -16  226.14 5.45294   1
   5   6 -15 61.0485 2.48022   1
   5   6 -14 388.074 9.13317   1
   5   6 -13 29.2877 1.03516   1
   5   6 -12 333.899 7.83158   1
   5   6 -11 159.891 4.62059   1
   5   6 -10 36.9544 1.16279   1
   5   6  -9 522.418 11.8629   1
   5   6  -8  26.066 0.98069   1
   5   6  -7 965.859  22.083   1
   5   6  -6  67.074 1.92748   1
   5   6  -5 982.343 22.1961   1
   5   6  -4  199.44 4.71285   1
   5   6  -3 332.929 7.58411   1
   5   6  -2 123.515 2.94684   1
   5   6  -1 789.584 17.5974   1
   5   6   0 41.2021  1.8485   1
   5   6   1 797.656 18.1619   1
   5   6   2 131.783 3.40019   1
   5   6   3  312.19 7.10404   1
   5   6   4 204.669 4.76771   1
   5   6   5 943.528 21.1031   1
   5   6   6 73.7198 2.35289   1
   5   6   7 941.906 21.3257   1
   5   6   8 20.5205 0.86478   1
   5   6   9 521.982 12.0415   1
   5   6  10 45.8596 1.63331   1
   5   6  11  162.62 3.81265   1
   5   6  12  335.51 7.60105   1
   5   6  13 34.4304 1.20356   1
   5   6  14 378.983 8.66656   1
   5   6  15 63.3278 1.74116   1
   5   6  16 222.016 5.21702   1
   5   6  17  111.86 2.95682   1
   5   6  18 203.452 4.98649   1
   5   6  19 12.2036 0.81524   1
   5   6  20 143.557 3.59364   1
   5   6  21 90.3149 2.51034   1
   5   6  22 86.6644 2.58996   1
   5   6  23 43.0424 1.91258   1
   5   6  24 57.6174 1.90685   1
   5   6  25 6.52482 1.04522   1
   5   6  26  98.895 2.94208   1
   5   6  27 128.347 3.72833   1
   5   6  28 87.4725 3.27387   1
   5   6  29 332.003 8.84789   1
   5   6  30 18.1987 1.72089   1
   5   6  31 544.101 15.9603   1
   5   6  32 54.8899 3.11356   1
   5   6  33 702.528 21.2749   1
   5   6  34 53.0878 6.75186   1
   5   6  35 291.385 15.8862   1
   5   6  36 49.1539 4.78947   1
   5   6  37 305.702 16.8073   1
   5   6  38 21.2101 4.17919   1
   5   6  39 175.195 10.0448   1
   5   6  40 24.4362  5.2843   1
   5   6  41  127.50 11.6711   1
   5   7 -39 6.39059 1.87554   1
   5   7 -38 25.4494 2.18849   1
   5   7 -37 4.30038 1.67751   1
   5   7 -36 12.5265  1.6768   1
   5   7 -35   32.55 2.09544   1
   5   7 -34 3.87659 1.60876   1
   5   7 -33 199.751 6.08709   1
   5   7 -32 8.76387  1.4067   1
   5   7 -31 160.994 4.53341   1
   5   7 -30 32.1833 1.90072   1
   5   7 -29 232.622 6.58369   1
   5   7 -28 184.097 5.61698   1
   5   7 -27 365.292 8.94641   1
   5   7 -26  371.22 9.97634   1
   5   7 -25 208.891   6.857   1
   5   7 -24 378.818 9.73313   1
   5   7 -23 108.766 3.02835   1
   5   7 -22 373.203 9.89845   1
   5   7 -21 148.859 3.93496   1
   5   7 -20 216.179 7.44683   1
   5   7 -19 69.2101 4.39038   1
   5   7 -18  347.01 9.46255   1
   5   7 -17 159.963  4.4927   1
   5   7 -16 509.661 13.0324   1
   5   7 -15 449.942 10.7652   1
   5   7 -14 367.666 8.67693   1
   5   7 -13 624.046 14.4673   1
   5   7 -12 634.791 14.9226   1
   5   7 -11 868.485 19.5817   1
   5   7 -10  353.11 8.19797   1
   5   7  -9 378.293 9.36996   1
   5   7  -8 119.299 3.00442   1
   5   7  -7  367.26 8.48744   1
   5   7  -6 26.7348 1.17825   1
   5   7  -5 155.199 3.93117   1
   5   7  -4 81.5384 2.11015   1
   5   7  -3 27.0052  1.0408   1
   5   7  -2 89.3552 2.32499   1
   5   7  -1 31.2536 1.16816   1
   5   7   0 64.6737 2.02207   1
   5   7   1  30.072  1.4367   1
   5   7   2 91.8948 2.85841   1
   5   7   3  30.662 1.21852   1
   5   7   4 76.7707  1.9924   1
   5   7   5 154.031 3.64968   1
   5   7   6 21.8572  1.1001   1
   5   7   7 361.461 9.49376   1
   5   7   8 122.467 3.49865   1
   5   7   9 362.216 8.33852   1
   5   7  10 343.966 9.55506   1
   5   7  11 840.404 19.0593   1
   5   7  12 606.654 14.4612   1
   5   7  13 615.461 15.2762   1
   5   7  14 349.475 8.00694   1
   5   7  15 448.044 10.2799   1
   5   7  16 502.752 12.5161   1
   5   7  17 162.022 4.75264   1
   5   7  18 340.675 8.39621   1
   5   7  19 60.6531 2.82102   1
   5   7  20 230.924 6.04962   1
   5   7  21 154.456 3.90314   1
   5   7  22 384.661 10.9579   1
   5   7  23 118.421 3.80547   1
   5   7  24 393.574 9.86411   1
   5   7  25 211.473 5.94369   1
   5   7  26 382.683 10.4255   1
   5   7  27 350.731 9.70102   1
   5   7  28 198.942 6.39811   1
   5   7  29 234.088 7.97762   1
   5   7  30 26.7009 1.98361   1
   5   7  31  150.77 5.02631   1
   5   7  32 7.05447 1.89692   1
   5   7  33 204.491 6.83466   1
   5   7  34 2.91334 2.62087   1
   5   7  35 30.7084 3.06185   1
   5   7  36 9.14734 4.16787   1
   5   7  37 2.46873 2.88027   1
   5   7  38 18.4101 3.70591   1
   5   7  39 5.40412 3.45024   1
   5   8 -37 47.2896 3.10784   1
   5   8 -36 331.452 10.0507   1
   5   8 -35 78.4623 3.16547   1
   5   8 -34 362.442 10.4772   1
   5   8 -33 51.5998 2.40553   1
   5   8 -32 309.761 9.20097   1
   5   8 -31 15.3605 1.77029   1
   5   8 -30 366.172 11.2595   1
   5   8 -29 0.13981 1.53363   1
   5   8 -28 368.581 10.3858   1
   5   8 -27 52.8427 2.36239   1
   5   8 -26 53.2367  2.3845   1
   5   8 -25  67.955 2.39717   1
   5   8 -24 22.0114 1.41131   1
   5   8 -23 210.587 5.66404   1
   5   8 -22 48.0596 1.75464   1
   5   8 -21  340.20 8.70084   1
   5   8 -20 77.4105 3.09724   1
   5   8 -19 320.034 9.53519   1
   5   8 -18 67.1149 2.55072   1
   5   8 -17 553.843 13.7436   1
   5   8 -16 30.7042 1.60978   1
   5   8 -15 372.433  9.7238   1
   5   8 -14 75.1961 2.18505   1
   5   8 -13 17.2601 1.27747   1
   5   8 -12 179.053 5.48158   1
   5   8 -11 7.42873 0.91354   1
   5   8 -10  372.74 8.72472   1
   5   8  -9  7.6322 0.82234   1
   5   8  -8 498.737  11.531   1
   5   8  -7  20.243 1.17544   1
   5   8  -6 509.333 11.7821   1
   5   8  -5 24.6894 1.58674   1
   5   8  -4 594.443 14.6528   1
   5   8  -3 93.8625 2.74487   1
   5   8  -2  547.98 13.0341   1
   5   8  -1 77.4729 2.36588   1
   5   8   0 782.369 18.2351   1
   5   8   1 80.2026 3.02439   1
   5   8   2 561.164 13.2241   1
   5   8   3  89.246 2.36415   1
   5   8   4  595.61 13.6659   1
   5   8   5 28.4664 1.26033   1
   5   8   6  532.82 12.8274   1
   5   8   7 22.6294 0.88858   1
   5   8   8 472.155  12.154   1
   5   8   9 5.28995 0.73793   1
   5   8  10 357.447 9.32508   1
   5   8  11 8.15005 1.31789   1
   5   8  12 173.227 4.62644   1
   5   8  14 69.2455 5.92249   1
   5   8  15 340.104 8.53357   1
   5   8  16 35.2989 1.52263   1
   5   8  17 551.518 13.3542   1
   5   8  18   67.84 2.22917   1
   5   8  19 330.382 8.39699   1
   5   8  20 71.2371  2.1983   1
   5   8  21 338.338 8.60927   1
   5   8  22 42.5115 1.64271   1
   5   8  23  206.14 5.37958   1
   5   8  24 22.5366 1.42113   1
   5   8  25 71.6816 2.51471   1
   5   8  26 55.6616 2.18796   1
   5   8  27 59.6249 3.01984   1
   5   8  28 359.609  10.705   1
   5   8  29 0.54724 1.36204   1
   5   8  30  381.71 11.5607   1
   5   8  31 13.8793 2.36108   1
   5   8  32 314.091 10.1947   1
   5   8  33 43.9691  4.7238   1
   5   8  34 339.507 16.6312   1
   5   8  35 72.9069 4.38188   1
   5   8  36 343.968 13.2976   1
   5   8  37 39.3697 4.15912   1
   5   9 -35  59.204 3.02708   1
   5   9 -34  10.529 2.05354   1
   5   9 -33 125.024 4.39221   1
   5   9 -32 42.9114 2.73693   1
   5   9 -31 30.1926 2.88509   1
   5   9 -30 47.2949 2.64354   1
   5   9 -29 32.4187 2.38963   1
   5   9 -28 82.8534 3.17148   1
   5   9 -27 106.298 3.65395   1
   5   9 -26 175.396 5.04812   1
   5   9 -25 252.262  7.7314   1
   5   9 -24 78.2401 2.92583   1
   5   9 -23 334.527 9.74686   1
   5   9 -22 81.9696 3.13659   1
   5   9 -21 354.385 9.35071   1
   5   9 -20 106.224 3.10772   1
   5   9 -19 666.265 18.5429   1
   5   9 -18 66.9538 2.49451   1
   5   9 -17  553.25 14.5756   1
   5   9 -16 110.183 4.80301   1
   5   9 -15 255.416 6.55243   1
   5   9 -14 66.6269  2.4367   1
   5   9 -13 325.353 8.04185   1
   5   9 -12 206.166 5.40421   1
   5   9 -11  266.36 7.72828   1
   5   9 -10 86.7558 3.31181   1
   5   9  -9 156.166 4.74847   1
   5   9  -8 74.4007 2.32942   1
   5   9  -7 187.527 5.36659   1
   5   9  -6 106.783 2.98382   1
   5   9  -5 275.306 8.22606   1
   5   9  -4  105.89 2.80524   1
   5   9  -3  157.56 3.96263   1
   5   9  -2 220.837 5.49266   1
   5   9  -1 5.15536 0.84795   1
   5   9   0 358.318 10.5484   1
   5   9   1 5.94044 1.67747   1
   5   9   2 218.073 5.94117   1
   5   9   3 158.992 4.03531   1
   5   9   4 108.325 3.35579   1
   5   9   5 263.976 7.28226   1
   5   9   6 100.228 3.53762   1
   5   9   7 193.393 9.40963   1
   5   9   8  71.298 2.54483   1
   5   9   9 162.318 4.40666   1
   5   9  10 79.9398 2.23178   1
   5   9  11 260.091 6.45119   1
   5   9  12 200.441 4.97868   1
   5   9  13 306.538 7.28581   1
   5   9  14 62.0951 2.91088   1
   5   9  15 247.673 6.53195   1
   5   9  16 113.607 3.04439   1
   5   9  17 549.111 12.8695   1
   5   9  18 78.1848 2.28831   1
   5   9  19 669.026 16.5815   1
   5   9  20 109.796 4.70718   1
   5   9  21 342.706 8.50159   1
   5   9  22 76.9071 2.47374   1
   5   9  23 348.088 10.0554   1
   5   9  24   77.12 2.68263   1
   5   9  25 256.193 8.67418   1
   5   9  26 178.105 5.27701   1
   5   9  27 115.522 3.85018   1
   5   9  28 72.3701 3.05093   1
   5   9  29 27.7571 2.26044   1
   5   9  30 42.3516 3.78732   1
   5   9  31 28.6186 2.92283   1
   5   9  32 46.2219 3.18129   1
   5   9  33 111.146 6.02277   1
   5   9  34 6.74985 3.01782   1
   5   9  35 58.5434 4.60201   1
   5  10 -32 16.4672 2.43865   1
   5  10 -31 20.4012 2.33402   1
   5  10 -30 61.6724 3.48846   1
   5  10 -29  78.091  4.3819   1
   5  10 -28 87.1235 3.60701   1
   5  10 -27 119.447 4.20832   1
   5  10 -26 153.811  7.1705   1
   5  10 -25 64.6936 3.01406   1
   5  10 -24 97.7624 3.56119   1
   5  10 -23  111.06  3.7364   1
   5  10 -22 78.8894 2.85612   1
   5  10 -21 98.2072 3.76744   1
   5  10 -20 188.844 5.43583   1
   5  10 -19 68.6127 2.68317   1
   5  10 -18 75.8027 3.18936   1
   5  10 -17 82.0235 2.68995   1
   5  10 -16 202.773 5.58995   1
   5  10 -15 77.2892 5.19946   1
   5  10 -14 208.094 6.46262   1
   5  10 -13 102.499 3.26623   1
   5  10 -12 180.546 4.94552   1
   5  10 -11 47.7938 2.45924   1
   5  10 -10 65.1438 2.49156   1
   5  10  -9 90.5122 2.94751   1
   5  10  -8 100.352 3.05576   1
   5  10  -7 74.5438  2.8758   1
   5  10  -6 109.929 3.32645   1
   5  10  -5 304.843 7.29354   1
   5  10  -4 274.199  7.8801   1
   5  10  -3 555.759 15.8498   1
   5  10  -2 281.329 7.07942   1
   5  10  -1  730.16  17.175   1
   5  10   0 75.4726 2.44779   1
   5  10   1 741.612  17.289   1
   5  10   2 261.982 6.41354   1
   5  10   3 522.088 12.7414   1
   5  10   4 252.381 6.55375   1
   5  10   5 305.132 7.31756   1
   5  10   6 99.2442 3.24844   1
   5  10   7 76.3259 2.24273   1
   5  10   8 93.7091 3.26994   1
   5  10   9 81.8518 2.74544   1
   5  10  10 67.7321 2.14945   1
   5  10  11 50.8148 2.13643   1
   5  10  12 180.574   4.544   1
   5  10  13 103.925 2.80039   1
   5  10  14 202.648 5.61253   1
   5  10  15 79.5944 2.50652   1
   5  10  16 187.991 5.67488   1
   5  10  17 80.3926 2.48826   1
   5  10  18 71.2431 2.32806   1
   5  10  19 73.9694 2.50318   1
   5  10  20 182.792 5.05779   1
   5  10  21 98.5302  3.0148   1
   5  10  22 84.6363 2.88251   1
   5  10  23 115.549 3.60216   1
   5  10  24  100.46 4.06949   1
   5  10  25 66.7125 2.89784   1
   5  10  26 152.939 5.99152   1
   5  10  27 119.523 4.38243   1
   5  10  28 93.0602 3.98035   1
   5  10  29 74.0203  3.7239   1
   5  10  30 61.0393 3.55993   1
   5  10  31 24.3468 2.79121   1
   5  10  32 19.0291 2.59063   1
   5  11 -29 71.4344 6.09034   1
   5  11 -28 88.9764 5.01953   1
   5  11 -27 21.6175 2.81892   1
   5  11 -26 151.949 7.31015   1
   5  11 -25 3.10111 1.99845   1
   5  11 -24 291.788 9.94826   1
   5  11 -23 13.9689 2.20845   1
   5  11 -22 288.145 8.64425   1
   5  11 -21 16.5404  1.9318   1
   5  11 -20 305.487 10.3868   1
   5  11 -19 16.7646 1.94209   1
   5  11 -18 418.325 11.9735   1
   5  11 -17 6.01246 1.80702   1
   5  11 -16  398.21 16.3903   1
   5  11 -15 61.3908 8.73145   1
   5  11 -14 172.842 9.66392   1
   5  11 -13  11.793 2.65841   1
   5  11 -12 154.937 8.54555   1
   5  11 -11 43.1758 4.32856   1
   5  11 -10 377.307 11.3936   1
   5  11  -9 220.482 7.14324   1
   5  11  -8 262.655 8.02194   1
   5  11  -7 334.755 10.9491   1
   5  11  -6 177.796 4.79316   1
   5  11  -5  176.09 5.25895   1
   5  11  -4 100.782 5.33613   1
   5  11  -3 58.3499 2.04417   1
   5  11  -2 109.372 3.53981   1
   5  11  -1  48.181 2.00775   1
   5  11   0 203.804 6.15122   1
   5  11   1 47.1923 1.77774   1
   5  11   2 108.761 3.65102   1
   5  11   3 51.1614 2.53185   1
   5  11   4 94.3041 3.01341   1
   5  11   5 175.176 4.54195   1
   5  11   6 172.171  4.5193   1
   5  11   7 328.315 7.99162   1
   5  11   8 253.232 6.57572   1
   5  11   9 220.504 6.26386   1
   5  11  10 341.017 8.59121   1
   5  11  11 46.0663 2.03749   1
   5  11  12 156.278 5.18589   1
   5  11  13 6.93295 1.67638   1
   5  11  14 165.204 6.54665   1
   5  11  15 60.8615 2.17193   1
   5  11  16  396.56 10.9442   1
   5  11  17   8.001 1.41617   1
   5  11  18 409.807  10.503   1
   5  11  19 12.5732 1.51567   1
   5  11  20  301.44 10.6621   1
   5  11  21  18.455 1.72955   1
   5  11  22 255.066 8.80325   1
   5  11  23  16.263 2.14091   1
   5  11  24 292.896 9.73953   1
   5  11  25 1.84419 1.68842   1
   5  11  26 148.101 7.58653   1
   5  11  27 16.6017  2.1289   1
   5  11  28 91.0909  4.2912   1
   5  11  29 62.9143 5.08602   1
   5  12 -25 37.5799 4.31103   1
   5  12 -24 56.2119 3.10919   1
   5  12 -23  14.145  2.2364   1
   5  12 -22  17.646  2.4927   1
   5  12 -21 64.9199 3.57617   1
   5  12 -20 29.5003 2.47286   1
   5  12 -19 57.9659 4.19141   1
   5  12 -18 9.78305 3.23792   1
   5  12 -17 93.3073 7.12249   1
   5  12 -16 18.4243 2.68805   1
   5  12 -15 95.6814 6.88652   1
   5  12 -14 133.077   5.209   1
   5  12 -13 61.4972 3.67696   1
   5  12 -12 134.192 5.42326   1
   5  12 -11 133.131 5.54578   1
   5  12 -10  54.332 3.52225   1
   5  12  -9 299.275 10.2459   1
   5  12  -8 117.091 5.25975   1
   5  12  -7 392.581 12.7275   1
   5  12  -6 127.059 7.94993   1
   5  12  -5 265.595 8.05839   1
   5  12  -4 47.2278 2.70238   1
   5  12  -3 190.123 5.79346   1
   5  12  -2 135.554 6.16754   1
   5  12  -1 180.018  5.3042   1
   5  12   0 250.018 7.17799   1
   5  12   1  184.38  4.9106   1
   5  12   2 140.907 5.37515   1
   5  12   3 183.863 5.86325   1
   5  12   4 57.7636  3.1116   1
   5  12   5 264.786 7.23523   1
   5  12   6 131.157 3.77432   1
   5  12   7 410.275 10.0376   1
   5  12   8 120.728 4.09861   1
   5  12   9 285.074 7.67419   1
   5  12  10 47.3791 2.10699   1
   5  12  11 128.642 3.69783   1
   5  12  12 122.872   3.947   1
   5  12  13  63.857 3.11503   1
   5  12  14 126.945 5.03182   1
   5  12  15 84.5079  5.9286   1
   5  12  16  16.732 2.17836   1
   5  12  17 98.0369 3.87502   1
   5  12  18 9.35114 2.07944   1
   5  12  19  55.497 4.23921   1
   5  12  20 31.9967 3.06691   1
   5  12  21 62.0414 3.48664   1
   5  12  22 13.4475 2.27019   1
   5  12  23 14.4842 2.50806   1
   5  12  24 64.8598 4.47245   1
   5  12  25 37.9525 2.70814   1
   5  13 -20  42.564 4.82623   1
   5  13 -19 101.998 5.20723   1
   5  13 -18 43.5177 3.60183   1
   5  13 -17 159.435 9.84713   1
   5  13 -16  148.24 6.91581   1
   5  13 -15 210.512 22.7373   1
   5  13 -14 106.453 5.78199   1
   5  13 -13 201.137 10.1564   1
   5  13 -12 90.3147 5.49065   1
   5  13 -11 294.694 9.57525   1
   5  13 -10 133.284 7.40052   1
   5  13  -9 232.466 14.6638   1
   5  13  -8 32.8839 2.70426   1
   5  13  -7 76.0813 10.9443   1
   5  13  -6 1.35967 3.45433   1
   5  13  -5 59.5308 8.05714   1
   5  13  -4 45.0069 3.33617   1
   5  13  -3 15.7714 3.99922   1
   5  13  -2 63.7185 2.79936   1
   5  13  -1 8.33151 2.07925   1
   5  13   0 22.2867 1.89127   1
   5  13   1  9.3544 1.70309   1
   5  13   2 57.9655 3.01866   1
   5  13   3 12.6469  1.8889   1
   5  13   4 47.9935 2.33454   1
   5  13   5 70.3694 2.72246   1
   5  13   6 7.10077 1.57421   1
   5  13   7 77.7566 2.97312   1
   5  13   8 28.0756 1.82129   1
   5  13   9 222.647 9.99511   1
   5  13  10 128.094 4.10358   1
   5  13  11 305.536 12.4644   1
   5  13  12 95.6332 6.42914   1
   5  13  13 221.333 7.11463   1
   5  13  14 104.259 4.46938   1
   5  13  15 204.859 6.56716   1
   5  13  16 124.635 8.46951   1
   5  13  17 144.217 5.73864   1
   5  13  18 46.1522  3.6203   1
   5  13  19 107.394 4.60231   1
   5  13  20 44.0373 2.79935   1
   5  14 -12 59.1711 6.67907   1
   5  14 -11 5.96007 3.22137   1
   5  14 -10 148.784  8.0561   1
   5  14  -9 26.1129 5.63227   1
   5  14  -8 275.283 16.9693   1
   5  14  -7 170.056 10.6904   1
   5  14  -6 261.108 11.1212   1
   5  14  -5 137.529  10.391   1
   5  14  -4 187.311 7.47965   1
   5  14  -3 77.5966 4.51842   1
   5  14  -2 227.571 14.9788   1
   5  14  -1 24.3133 3.28381   1
   5  14   0 163.372 5.51955   1
   5  14   1  28.675 2.45695   1
   5  14   2  236.68 9.35485   1
   5  14   3 77.7734 5.00941   1
   5  14   4 187.528 6.01268   1
   5  14   5 140.332 6.10908   1
   5  14   6 251.942 7.48466   1
   5  14   7 163.479 5.36958   1
   5  14   8 282.762 8.91134   1
   5  14   9 21.6417 2.54643   1
   5  14  10 145.998  5.1683   1
   5  14  11 11.9124  2.2346   1
   5  14  12 58.6306 2.97786   1
   6   0   0 389.396 10.4212   1
   6   0   1 2.19634 0.96626   1
   6   0   2 589.485 13.5451   1
   6   0   3 19.9233 1.43734   1
   6   0   4 487.908 11.1854   1
   6   0   5 18.1219 1.29384   1
   6   0   6 574.177 13.2162   1
   6   0   7  187.92 4.69205   1
   6   0   8 331.021 8.01105   1
   6   0   9 450.637 10.1606   1
   6   0  10 4.05898 0.49797   1
   6   0  11 359.168 8.13552   1
   6   0  12 538.326 12.6529   1
   6   0  13 1110.78 25.0529   1
   6   0  14 34.9537 1.27941   1
   6   0  15 303.719 7.26154   1
   6   0  16 37.4801 1.41109   1
   6   0  17  144.29 3.47972   1
   6   0  18 82.4001 2.27264   1
   6   0  19 361.716 8.41295   1
   6   0  20 1.84571  0.7281   1
   6   0  21 102.977 2.66059   1
   6   0  22 9.35426 0.94842   1
   6   0  23 113.349 3.50347   1
   6   0  24 20.1314 1.29418   1
   6   0  25  149.02 3.90951   1
   6   0  26 23.6206 1.29818   1
   6   0  27 287.839 7.42629   1
   6   0  28 83.9366 3.27387   1
   6   0  29 78.4892  2.7426   1
   6   0  30  217.99 7.46831   1
   6   0  31 63.0781 2.90178   1
   6   0  32  321.37  9.3258   1
   6   0  33  19.916  1.6211   1
   6   0  34 564.055 15.3848   1
   6   0  35  25.462 1.98719   1
   6   0  36 329.206 9.28261   1
   6   0  37 4.12392 1.96179   1
   6   0  38 417.281 13.0626   1
   6   0  39 1.73791 1.93361   1
   6   0  40 273.772  9.7606   1
   6   0  41 16.1845 2.68876   1
   6   0  42 61.1842 4.91893   1
   6   1 -42 142.044  9.7878   1
   6   1 -41 72.0423 3.75085   1
   6   1 -40 169.362 6.31604   1
   6   1 -39 33.9618 2.23105   1
   6   1 -38 206.102 6.59377   1
   6   1 -37 53.6582 2.77129   1
   6   1 -36 134.482 5.48052   1
   6   1 -35 120.956 5.66642   1
   6   1 -34 343.458 9.98866   1
   6   1 -33 168.676 6.78453   1
   6   1 -32 325.841 11.8548   1
   6   1 -31 358.452 9.01853   1
   6   1 -30 205.753 6.05487   1
   6   1 -29 458.066 11.4893   1
   6   1 -28 60.8031 2.11639   1
   6   1 -27 302.109 8.92792   1
   6   1 -26 42.8486 1.93393   1
   6   1 -25 408.336 10.5007   1
   6   1 -24 106.229 3.00595   1
   6   1 -23 153.033 4.15972   1
   6   1 -22 138.467  3.6721   1
   6   1 -21 1.25451 0.65178   1
   6   1 -20 215.061 6.05717   1
   6   1 -19 13.7064 0.91638   1
   6   1 -18  124.62 3.15831   1
   6   1 -17 19.2475 0.89618   1
   6   1 -16 88.2978 2.37045   1
   6   1 -15 152.269 3.78012   1
   6   1 -14 83.5528 2.08526   1
   6   1 -13 709.699 16.0417   1
   6   1 -12  84.617 2.56184   1
   6   1 -11  712.75 16.5069   1
   6   1 -10 24.9256 0.90758   1
   6   1  -9 908.457  20.498   1
   6   1  -8 652.782 14.8252   1
   6   1  -7 674.031 15.7844   1
   6   1  -6 908.818 21.0162   1
   6   1  -5 517.169 11.6992   1
   6   1  -4  715.67 16.0488   1
   6   1  -3 291.333 6.81672   1
   6   1  -2 574.339 12.9815   1
   6   1  -1 90.7287 2.56969   1
   6   1   0 446.803 10.2086   1
   6   1   1 93.3933  2.3958   1
   6   1   2 591.858 13.7941   1
   6   1   3 286.562 6.81542   1
   6   1   4 743.432 16.8961   1
   6   1   5 504.654 11.6033   1
   6   1   6  931.16 21.1211   1
   6   1   7 641.122 15.8687   1
   6   1   8 682.333 15.5161   1
   6   1   9 904.175 20.5719   1
   6   1  10 17.8866  0.8009   1
   6   1  11  708.65 16.0118   1
   6   1  12 73.7606 1.88765   1
   6   1  13 674.645   15.91   1
   6   1  14 79.4945 2.06048   1
   6   1  15 139.947 3.56472   1
   6   1  16 84.3914 2.10355   1
   6   1  17 17.3742 0.77296   1
   6   1  18 123.034 2.99011   1
   6   1  19 18.3956 0.98352   1
   6   1  20 209.475 5.04231   1
   6   1  21  3.3601  0.8263   1
   6   1  22 131.711 3.69535   1
   6   1  23 167.261 4.20934   1
   6   1  24 103.771 2.99428   1
   6   1  25  430.00 10.0368   1
   6   1  26  51.727 1.79306   1
   6   1  27 309.677 7.96129   1
   6   1  28 69.7175 3.33617   1
   6   1  29 455.557 13.7172   1
   6   1  30 199.742 6.31458   1
   6   1  31 352.357  9.7843   1
   6   1  32 320.648 9.24203   1
   6   1  33 157.846 8.81521   1
   6   1  34 333.565  12.233   1
   6   1  35 112.932 4.14594   1
   6   1  36 124.989 4.78845   1
   6   1  37 52.5323 3.94998   1
   6   1  38 204.179 8.46022   1
   6   1  39  30.674 2.74717   1
   6   1  40 186.282 9.53691   1
   6   1  41   72.47  4.9736   1
   6   1  42 152.133 8.80604   1
   6   2 -41 377.491 14.8321   1
   6   2 -40 22.0428 2.69489   1
   6   2 -39  545.74 19.4759   1
   6   2 -38 13.0138 2.30423   1
   6   2 -37 406.736 12.2855   1
   6   2 -36 6.59045 1.99725   1
   6   2 -35 343.043 10.8016   1
   6   2 -34  119.94 6.36303   1
   6   2 -33  338.55 22.2365   1
   6   2 -32 171.708 5.98532   1
   6   2 -31 56.7867 2.42783   1
   6   2 -30  233.57 6.50073   1
   6   2 -29 19.5873  1.4953   1
   6   2 -28 187.966 5.33908   1
   6   2 -27 59.1891 2.29581   1
   6   2 -26 92.8895 3.63005   1
   6   2 -25  34.169 2.64698   1
   6   2 -24 210.587 5.61382   1
   6   2 -23 88.8234 2.77209   1
   6   2 -22 289.719 7.03336   1
   6   2 -21 56.3642 2.67781   1
   6   2 -20  197.43 5.26273   1
   6   2 -19  134.09 3.62304   1
   6   2 -18 200.359 4.83759   1
   6   2 -17 147.742 3.62894   1
   6   2 -16 394.125 9.21737   1
   6   2 -15 48.6459 1.94919   1
   6   2 -14 564.737 14.4403   1
   6   2 -13 206.372 4.87918   1
   6   2 -12 295.285 6.94003   1
   6   2 -11 17.1202 0.79488   1
   6   2 -10  400.92 9.21886   1
   6   2  -9 129.477 3.48986   1
   6   2  -8 535.107 12.2012   1
   6   2  -7  242.03 5.97022   1
   6   2  -6 553.979 13.0631   1
   6   2  -5 435.204 10.2731   1
   6   2  -4 45.5578 1.93637   1
   6   2  -3 962.539 21.4333   1
   6   2  -2 48.8976 1.32899   1
   6   2  -1 1318.26  29.643   1
   6   2   0  3.5278 0.49775   1
   6   2   1 1325.35 29.7329   1
   6   2   2 45.2598 1.33007   1
   6   2   3 983.808  22.176   1
   6   2   4 46.0695 1.71992   1
   6   2   5 434.531 9.98061   1
   6   2   6 565.474 12.8196   1
   6   2   7 260.741 5.96149   1
   6   2   8 546.042 12.3889   1
   6   2   9 146.465 3.45518   1
   6   2  10 404.624 9.27754   1
   6   2  11 13.1383 0.69624   1
   6   2  12 306.409 7.06659   1
   6   2  13 205.263 4.75538   1
   6   2  14 539.347 12.2939   1
   6   2  15 54.8466 1.79358   1
   6   2  16 386.994 9.04025   1
   6   2  17 147.237 3.66477   1
   6   2  18 203.475 4.78402   1
   6   2  19  124.96 3.16284   1
   6   2  20  193.24 4.55342   1
   6   2  21 56.1194 1.56211   1
   6   2  22 290.456 6.90282   1
   6   2  23 88.5694 2.57757   1
   6   2  24 223.329 6.03729   1
   6   2  25  37.617 1.51626   1
   6   2  26 108.647 2.92753   1
   6   2  27 62.5023 1.95367   1
   6   2  28  177.66 5.08591   1
   6   2  29 19.9358 1.50065   1
   6   2  30 233.609 7.99478   1
   6   2  31  59.182 2.82299   1
   6   2  32 172.044 5.10841   1
   6   2  33 331.602 9.74992   1
   6   2  34 114.179 3.77942   1
   6   2  35 350.037 10.3653   1
   6   2  36  6.7635 3.02469   1
   6   2  37 377.453 15.3834   1
   6   2  38 10.0796 2.60983   1
   6   2  39 569.086 31.2637   1
   6   2  40 15.6638 3.55808   1
   6   2  41 404.621 18.4977   1
   6   3 -41 146.952 5.71213   1
   6   3 -40 69.5884 3.74277   1
   6   3 -39 175.773 6.30554   1
   6   3 -38 9.97473 2.22108   1
   6   3 -37 309.365 12.1127   1
   6   3 -36 11.3783 2.02476   1
   6   3 -35 199.885 7.41803   1
   6   3 -34 11.0581 3.01005   1
   6   3 -33 124.296 5.75933   1
   6   3 -32 82.9751 3.45024   1
   6   3 -31 126.116 6.95408   1
   6   3 -30 216.908  8.7972   1
   6   3 -29 99.7773 5.10108   1
   6   3 -28 205.302 5.69588   1
   6   3 -27 111.675  3.6732   1
   6   3 -26 345.552 8.68987   1
   6   3 -25 102.549 2.98168   1
   6   3 -24 244.822 7.17755   1
   6   3 -23 51.4787 3.18577   1
   6   3 -22 240.956 5.95927   1
   6   3 -21  12.383 1.17085   1
   6   3 -20 443.815 11.1131   1
   6   3 -19 22.5586 1.43302   1
   6   3 -18 138.054 3.44155   1
   6   3 -17 30.4376 1.22131   1
   6   3 -16 187.058 4.79541   1
   6   3 -15  98.666 2.94466   1
   6   3 -14 217.288 5.25568   1
   6   3 -13 90.6011 2.61774   1
   6   3 -12 373.284 9.41762   1
   6   3 -11 89.5359 2.57433   1
   6   3 -10 355.524 8.10763   1
   6   3  -9 64.3762 1.78381   1
   6   3  -8 349.794 8.73649   1
   6   3  -7 103.709 2.56271   1
   6   3  -6 601.263 13.6867   1
   6   3  -5 436.806 9.92719   1
   6   3  -4 216.428 5.00495   1
   6   3  -3 689.027 15.3991   1
   6   3  -2 149.731 3.58213   1
   6   3  -1 623.648 14.3707   1
   6   3   0 119.859 3.18893   1
   6   3   1 610.072 14.2389   1
   6   3   2 146.853 3.92036   1
   6   3   3 684.988  15.451   1
   6   3   4 217.375 4.99849   1
   6   3   5 447.667  10.211   1
   6   3   6 598.528 13.5377   1
   6   3   7 119.721 2.87706   1
   6   3   8 332.774 7.62594   1
   6   3   9 63.2281 1.75113   1
   6   3  10 350.092 8.00828   1
   6   3  11 87.1111 2.29417   1
   6   3  12 365.207 8.31615   1
   6   3  13 94.9596 2.63648   1
   6   3  14 217.159 5.26073   1
   6   3  15 95.3422 2.48604   1
   6   3  16 174.189 4.51981   1
   6   3  17 29.2162 1.03361   1
   6   3  18 142.926 3.71827   1
   6   3  19 23.8788 1.06538   1
   6   3  20 446.528 10.3759   1
   6   3  21 12.8115 1.42604   1
   6   3  22  236.55 5.79048   1
   6   3  23 49.9795  2.0931   1
   6   3  24 250.134 6.77828   1
   6   3  25 100.743 2.88444   1
   6   3  26 349.788 8.83981   1
   6   3  27 119.174 3.26481   1
   6   3  28 216.997  7.1092   1
   6   3  29 85.1224 2.90013   1
   6   3  30 209.515  7.4965   1
   6   3  31 124.818  4.5632   1
   6   3  32 81.3249 3.34995   1
   6   3  33 123.429 5.06871   1
   6   3  34 8.65789 3.21116   1
   6   3  35 194.564 8.14282   1
   6   3  36 7.69724 4.04671   1
   6   3  37 318.983 19.6094   1
   6   3  38 6.50804 3.11077   1
   6   3  39 155.776 8.91922   1
   6   3  40 59.8111 7.86052   1
   6   3  41 158.871 11.7394   1
   6   4 -40 52.7884 2.96015   1
   6   4 -39 298.712 11.9382   1
   6   4 -38 56.8144 3.20283   1
   6   4 -37 212.244 8.02117   1
   6   4 -36 178.076 6.56813   1
   6   4 -35 128.597  4.5247   1
   6   4 -34  191.86 5.92873   1
   6   4 -33 194.656 6.05264   1
   6   4 -32  450.02 12.6006   1
   6   4 -31 38.4408 2.54969   1
   6   4 -30 349.288 11.5737   1
   6   4 -29 30.1406 2.24487   1
   6   4 -28 54.7272 2.20392   1
   6   4 -27 82.6349 2.63887   1
   6   4 -26 168.964  5.7719   1
   6   4 -25 74.4629 2.98596   1
   6   4 -24 201.479 5.35298   1
   6   4 -23 123.693 4.41428   1
   6   4 -22 194.238   4.926   1
   6   4 -21 239.495 6.67469   1
   6   4 -20 231.866 6.07524   1
   6   4 -19 201.014  6.4896   1
   6   4 -18 180.896  4.9353   1
   6   4 -17  100.66 2.84584   1
   6   4 -16  338.77 9.13008   1
   6   4 -15 142.121 4.29998   1
   6   4 -14 251.057 5.95797   1
   6   4 -13 50.7376 1.55491   1
   6   4 -12 198.052   5.441   1
   6   4 -11 37.6974 1.64763   1
   6   4 -10 148.184 3.62876   1
   6   4  -9 30.1359 1.01689   1
   6   4  -8 414.205 9.61333   1
   6   4  -7 331.868 7.57021   1
   6   4  -6 542.763 12.4461   1
   6   4  -5 517.329 12.0387   1
   6   4  -4 485.522 11.5568   1
   6   4  -3 274.703 6.60535   1
   6   4  -2 301.326 7.31418   1
   6   4  -1 1230.10 27.6981   1
   6   4   0 271.559 6.49438   1
   6   4   1 1226.14 27.5672   1
   6   4   2  295.56 6.86286   1
   6   4   3 274.346 6.27922   1
   6   4   4 483.986 11.0748   1
   6   4   5 499.832 11.4966   1
   6   4   6 536.973 12.7069   1
   6   4   7 324.282 7.41001   1
   6   4   8 407.497 9.38406   1
   6   4   9 22.8689 0.96959   1
   6   4  10 152.598 3.69325   1
   6   4  11 38.0119 1.25621   1
   6   4  12 212.307 5.25729   1
   6   4  13 45.8063 1.44364   1
   6   4  14 269.925 7.11011   1
   6   4  15 143.202 3.82147   1
   6   4  16 371.203 8.63834   1
   6   4  17 101.469 2.58952   1
   6   4  18 183.306 4.85918   1
   6   4  19 203.246 4.84225   1
   6   4  20 216.062 5.36967   1
   6   4  21 250.906 6.07004   1
   6   4  22 179.665 4.95967   1
   6   4  23 117.373 3.36103   1
   6   4  24 193.436 4.91125   1
   6   4  25 78.8907 2.41342   1
   6   4  26 154.414 4.08612   1
   6   4  27 79.4972 2.86553   1
   6   4  28 54.1895  3.1022   1
   6   4  29 38.9258 3.05904   1
   6   4  30 355.613 12.6564   1
   6   4  31 47.1017 3.52191   1
   6   4  32  446.47 15.6045   1
   6   4  33 195.602 13.1725   1
   6   4  34 200.394 9.93049   1
   6   4  35  151.07 11.1532   1
   6   4  36 200.615 10.9539   1
   6   4  37  212.13  10.969   1
   6   4  38 60.8146 8.15148   1
   6   4  39 302.034 13.2627   1
   6   4  40  51.853 7.71466   1
   6   5 -39  11.167 2.38259   1
   6   5 -38 107.445 4.26027   1
   6   5 -37 17.4304 2.10124   1
   6   5 -36 180.311 5.88079   1
   6   5 -35 16.3521  1.8387   1
   6   5 -34 243.399 8.20741   1
   6   5 -33 23.5319 1.98467   1
   6   5 -32 125.123  4.0445   1
   6   5 -31 276.233  7.9867   1
   6   5 -30  87.189 2.98551   1
   6   5 -29 382.084  12.067   1
   6   5 -28  181.72  5.0188   1
   6   5 -27 472.685 12.1613   1
   6   5 -26 101.886 3.50158   1
   6   5 -25 419.891 12.0913   1
   6   5 -24 10.8784 1.21005   1
   6   5 -23 146.154 4.55559   1
   6   5 -22 158.958 4.14913   1
   6   5 -21  78.474 2.48031   1
   6   5 -20 237.792 6.37519   1
   6   5 -19 33.8672 1.73792   1
   6   5 -18 283.471 7.00293   1
   6   5 -17 87.4017 10.8059   1
   6   5 -16 130.729  6.0513   1
   6   5 -15 271.405 6.90293   1
   6   5 -14 27.8232 2.15951   1
   6   5 -13 405.152 10.9117   1
   6   5 -12 121.864  3.7432   1
   6   5 -11 866.574 20.4283   1
   6   5 -10 105.027 2.71377   1
   6   5  -9 504.097 12.7823   1
   6   5  -8 106.454 2.66088   1
   6   5  -7 193.719 5.05889   1
   6   5  -6 394.812 9.81205   1
   6   5  -5 117.616 3.33247   1
   6   5  -4 503.481 11.5565   1
   6   5  -3 13.9533 0.81105   1
   6   5  -2 483.631  11.052   1
   6   5  -1 2.81523 0.64886   1
   6   5   0  478.80 10.8314   1
   6   5   1 3.69338 0.68676   1
   6   5   2 470.887 10.7117   1
   6   5   3 12.0973 0.79643   1
   6   5   4 489.756 11.0671   1
   6   5   5 114.752 2.87667   1
   6   5   6 387.898 9.00157   1
   6   5   7 189.517 4.48531   1
   6   5   8 120.932 2.92235   1
   6   5   9 486.746 11.0767   1
   6   5  10 117.686 2.90156   1
   6   5  11 869.127 19.8014   1
   6   5  12  132.54 3.33522   1
   6   5  13 413.105 9.71854   1
   6   5  14 33.5983 1.58944   1
   6   5  15 267.627 6.51301   1
   6   5  16 132.721  3.7104   1
   6   5  17 91.2837 3.01219   1
   6   5  18 296.467   7.141   1
   6   5  19 35.7305 1.72989   1
   6   5  20 229.921 5.98947   1
   6   5  21 79.8644 2.18288   1
   6   5  22 159.837 3.99723   1
   6   5  23 144.992 3.77781   1
   6   5  24 11.2585 1.04172   1
   6   5  25 414.666 10.9816   1
   6   5  26 102.992 3.40617   1
   6   5  27 468.043 12.0066   1
   6   5  28  168.81 4.88344   1
   6   5  29 376.815 10.9379   1
   6   5  30 74.7764 4.32443   1
   6   5  31  277.09 8.00935   1
   6   5  32 138.856 5.98065   1
   6   5  33 22.7154 5.69563   1
   6   5  34 254.876 32.7033   1
   6   5  35 20.2266 5.46653   1
   6   5  36 198.688 16.5322   1
   6   5  37  18.661 4.48772   1
   6   5  38 111.881 6.42796   1
   6   5  39 14.9528 6.42441   1
   6   6 -37 36.3337 2.54148   1
   6   6 -36 274.427 9.39553   1
   6   6 -35 36.9329 2.68085   1
   6   6 -34  286.20 9.02655   1
   6   6 -33 45.7156 2.79377   1
   6   6 -32 184.645 5.71803   1
   6   6 -31  104.43 3.76334   1
   6   6 -30 264.917 7.54111   1
   6   6 -29 214.512 6.13637   1
   6   6 -28  120.35 3.75913   1
   6   6 -27 286.959 7.97855   1
   6   6 -26 30.8719 1.74305   1
   6   6 -25 233.218 6.31527   1
   6   6 -24 20.4181 1.32595   1
   6   6 -23 122.956 3.54542   1
   6   6 -22 13.5114 1.23641   1
   6   6 -21 177.109 4.76596   1
   6   6 -20 4.20383   1.162   1
   6   6 -19 135.758 3.69942   1
   6   6 -18 10.4838  1.5525   1
   6   6 -17 81.1705 2.51948   1
   6   6 -16 11.5961 1.09694   1
   6   6 -15 271.272 7.31845   1
   6   6 -14 14.6556 1.57967   1
   6   6 -13 355.565 14.8252   1
   6   6 -12  13.717 1.23932   1
   6   6 -11 288.254 6.70873   1
   6   6 -10 108.076 2.77865   1
   6   6  -9 198.659 4.82043   1
   6   6  -8 138.754 3.59115   1
   6   6  -7 109.125 2.73725   1
   6   6  -6 447.673 10.5264   1
   6   6  -5 138.299 3.33102   1
   6   6  -4 629.831 14.2522   1
   6   6  -3 139.393 3.55604   1
   6   6  -2 647.757 14.5773   1
   6   6  -1 120.982 3.44294   1
   6   6   0 718.399 16.1816   1
   6   6   1 118.422 2.91028   1
   6   6   2 646.788 14.8011   1
   6   6   3 137.887 4.19211   1
   6   6   4 626.371 15.1998   1
   6   6   5 132.723 3.40029   1
   6   6   6 438.973  11.232   1
   6   6   7 108.867  3.4386   1
   6   6   8 132.542 3.62928   1
   6   6   9 196.881 5.63417   1
   6   6  10  109.16 2.92622   1
   6   6  11 282.795 7.82927   1
   6   6  12 15.2816 1.45285   1
   6   6  13 368.567 15.9106   1
   6   6  14 11.8472  2.5301   1
   6   6  15 288.991 6.93589   1
   6   6  16 12.2259 1.44895   1
   6   6  17 86.6924 2.46726   1
   6   6  18 9.62503 1.03263   1
   6   6  19 129.784 3.57213   1
   6   6  20 5.75055 0.87072   1
   6   6  21  178.59 4.37746   1
   6   6  22 12.5727 1.07409   1
   6   6  23 122.754 3.97633   1
   6   6  24 21.6119 1.33909   1
   6   6  25 217.182 5.81169   1
   6   6  26 33.9213 1.70005   1
   6   6  27 271.851 7.58839   1
   6   6  28 120.168 4.92796   1
   6   6  29 214.999 8.84334   1
   6   6  30 267.194 8.70413   1
   6   6  31 104.694 10.8119   1
   6   6  32 179.176 7.12936   1
   6   6  33 48.1855 6.46768   1
   6   6  34 294.241 13.1377   1
   6   6  35  36.178 6.58219   1
   6   6  36 271.074 13.2013   1
   6   6  37 39.2137 4.64349   1
   6   7 -36 91.4262 4.45722   1
   6   7 -35 47.0065 2.57435   1
   6   7 -34 130.306 4.46485   1
   6   7 -33 166.719 6.44641   1
   6   7 -32 332.026 9.27297   1
   6   7 -31 217.384 6.60006   1
   6   7 -30 124.691 5.08286   1
   6   7 -29 94.9611 3.29709   1
   6   7 -28  74.742 3.33987   1
   6   7 -27 95.4347 3.09097   1
   6   7 -26  119.89 4.10408   1
   6   7 -25 107.937 3.81261   1
   6   7 -24 78.9292 2.86171   1
   6   7 -23 63.1424  2.5346   1
   6   7 -22  203.81 6.75776   1
   6   7 -21 18.2218 1.61551   1
   6   7 -20 205.253 6.95249   1
   6   7 -19 47.1699 2.16085   1
   6   7 -18 116.955 4.91116   1
   6   7 -17 217.959 5.84812   1
   6   7 -16  79.839 2.57069   1
   6   7 -15 194.348 6.07733   1
   6   7 -14 56.4889 2.31996   1
   6   7 -13 178.686 4.93869   1
   6   7 -12 33.0486 1.47942   1
   6   7 -11 297.436 7.18131   1
   6   7 -10 120.344 4.15499   1
   6   7  -9 270.263 6.85386   1
   6   7  -8 347.112 9.13473   1
   6   7  -7 325.405 8.50985   1
   6   7  -6 614.543 16.0757   1
   6   7  -5 220.187 9.17472   1
   6   7  -4 371.369 10.2544   1
   6   7  -3 156.558 3.92585   1
   6   7  -2 214.622 5.29849   1
   6   7  -1  164.49 4.12137   1
   6   7   0 215.061 5.25497   1
   6   7   1 169.999  4.5023   1
   6   7   2 222.984 9.83928   1
   6   7   3 164.581 4.27004   1
   6   7   4 383.601 14.1999   1
   6   7   5 224.529  5.6184   1
   6   7   6 625.251 14.6211   1
   6   7   7 342.449 12.0795   1
   6   7   8 344.413 10.6147   1
   6   7   9 271.203 7.11113   1
   6   7  10 109.205 3.17998   1
   6   7  11 298.527 7.32601   1
   6   7  12 31.8344  1.8191   1
   6   7  13 179.188 4.43868   1
   6   7  14 50.4347 1.81134   1
   6   7  15 193.818 5.23552   1
   6   7  16  79.917 2.67395   1
   6   7  17 214.025 5.29156   1
   6   7  18 118.476 3.69246   1
   6   7  19 42.5992 1.61657   1
   6   7  20 205.531 5.09308   1
   6   7  21 18.9635  1.1258   1
   6   7  22 203.859 5.32666   1
   6   7  23  63.059 2.31516   1
   6   7  24 82.5602 3.39088   1
   6   7  25 107.286 3.44018   1
   6   7  26 119.763 4.01805   1
   6   7  27 96.1782 3.39127   1
   6   7  28  78.459 3.09243   1
   6   7  29 96.5192 3.60703   1
   6   7  30 116.975 5.36967   1
   6   7  31 216.242 8.18919   1
   6   7  32 305.398 10.3454   1
   6   7  33 160.954 13.3691   1
   6   7  34 120.568 9.45097   1
   6   7  35 54.1721 7.76652   1
   6   7  36 89.6163 9.52585   1
   6   8 -34 13.6936 2.06055   1
   6   8 -33  104.64 6.06685   1
   6   8 -32 42.0735  2.7445   1
   6   8 -31 36.1556 2.45075   1
   6   8 -30 250.818 8.68433   1
   6   8 -29 77.3521 3.50119   1
   6   8 -28 200.673 6.02033   1
   6   8 -27 87.9253  3.6158   1
   6   8 -26 137.654  4.4209   1
   6   8 -25 88.7523 5.52164   1
   6   8 -24 222.676 11.9303   1
   6   8 -23 77.0278  3.5684   1
   6   8 -22 230.252 6.33911   1
   6   8 -21 29.7153 2.02145   1
   6   8 -20 93.8791 3.79771   1
   6   8 -19 37.1483 1.83435   1
   6   8 -18 110.199 5.92869   1
   6   8 -17 22.3187 1.82807   1
   6   8 -16 237.947 6.04074   1
   6   8 -15  155.33 4.27198   1
   6   8 -14 103.455 3.35066   1
   6   8 -13   32.51 1.62271   1
   6   8 -12 133.994 4.77991   1
   6   8 -11 2.27483 1.03487   1
   6   8 -10 373.518  9.4641   1
   6   8  -9 18.9521 1.37598   1
   6   8  -8 346.556 9.11582   1
   6   8  -7 28.2609 1.49619   1
   6   8  -6 59.0579 2.08709   1
   6   8  -5 385.015 9.95092   1
   6   8  -4 29.3512 1.33664   1
   6   8  -3 689.524 16.6002   1
   6   8  -2 65.6236  2.4721   1
   6   8  -1 1158.90 26.2942   1
   6   8   0 274.119 7.08123   1
   6   8   1 1125.61 26.0194   1
   6   8   2 64.7355 1.93084   1
   6   8   3  681.51 15.7283   1
   6   8   4 31.0748 1.26853   1
   6   8   5 400.562 10.1314   1
   6   8   6 57.4234 1.75628   1
   6   8   7 32.5205 1.36515   1
   6   8   8 354.506 9.37138   1
   6   8   9 16.5569 1.04524   1
   6   8  10 380.908 8.83165   1
   6   8  11  4.3684 0.96773   1
   6   8  12 131.495 4.32565   1
   6   8  13 25.6699 1.52381   1
   6   8  14 91.9352 3.36901   1
   6   8  15 147.328 4.44327   1
   6   8  16  226.66 6.67381   1
   6   8  17 23.7533 1.70714   1
   6   8  18 105.572 3.52496   1
   6   8  19 36.9966 1.68899   1
   6   8  20 88.7998 2.97178   1
   6   8  21 27.8131 1.39403   1
   6   8  22 233.732 6.74537   1
   6   8  23 77.7394 2.56609   1
   6   8  24 219.631 5.93737   1
   6   8  25 91.5531 2.99204   1
   6   8  26 141.467  4.5855   1
   6   8  27 92.6867 3.75683   1
   6   8  28 205.054 7.69938   1
   6   8  29 83.1974 3.47747   1
   6   8  30 259.287 8.83668   1
   6   8  31 36.7339 2.70467   1
   6   8  32 43.1719 3.03815   1
   6   8  33 103.593 4.88511   1
   6   8  34 9.61298 3.15082   1
   6   9 -31  125.73 4.97102   1
   6   9 -30 45.2489 3.17329   1
   6   9 -29 61.6924 5.16888   1
   6   9 -28  50.855 4.06602   1
   6   9 -27 194.403 11.2967   1
   6   9 -26 97.9173 3.91432   1
   6   9 -25  126.35 5.17321   1
   6   9 -24 100.747 3.64187   1
   6   9 -23  115.74 4.17559   1
   6   9 -22 138.289 4.23177   1
   6   9 -21 61.9822 2.39981   1
   6   9 -20 218.663 6.71497   1
   6   9 -19 21.4518 1.71514   1
   6   9 -18 291.728 8.60071   1
   6   9 -17 32.1023 2.45646   1
   6   9 -16 190.379 7.90992   1
   6   9 -15 62.4344 2.35263   1
   6   9 -14 138.818 4.19428   1
   6   9 -13 52.4138 1.91839   1
   6   9 -12 173.495 6.82663   1
   6   9 -11 94.2272 2.81041   1
   6   9 -10 152.229 4.04745   1
   6   9  -9  101.37 2.95082   1
   6   9  -8 79.9035 2.47741   1
   6   9  -7 197.815 5.10221   1
   6   9  -6 141.597 3.94834   1
   6   9  -5 326.927  8.6554   1
   6   9  -4 96.1263  2.7578   1
   6   9  -3 312.474 8.08113   1
   6   9  -2 157.611 4.45979   1
   6   9  -1 265.475 6.93269   1
   6   9   0 111.452 3.29139   1
   6   9   1 266.888 6.70121   1
   6   9   2 159.249 4.11986   1
   6   9   3 315.285  7.8965   1
   6   9   4 97.8714 3.08356   1
   6   9   5 350.208 8.14683   1
   6   9   6  144.05 4.52296   1
   6   9   7 206.679 5.11826   1
   6   9   8 80.3231  2.6117   1
   6   9   9 101.344 2.76743   1
   6   9  10  150.58 4.39544   1
   6   9  11 92.4862 2.71552   1
   6   9  12 177.187 4.45543   1
   6   9  13  53.881 1.96121   1
   6   9  14  115.72 3.18589   1
   6   9  15 55.6819 1.91787   1
   6   9  16 175.001 5.29983   1
   6   9  17 30.8045 1.69227   1
   6   9  18 283.908 7.44331   1
   6   9  19 27.4822 1.53935   1
   6   9  20 216.191 5.66279   1
   6   9  21 66.7312 2.50164   1
   6   9  22 137.467  4.3465   1
   6   9  23 121.013 3.63442   1
   6   9  24 101.334 3.42457   1
   6   9  25 129.054 3.96617   1
   6   9  26  105.06 3.88412   1
   6   9  27 186.395 6.01497   1
   6   9  28 49.8812 2.65644   1
   6   9  29 65.5042 3.25381   1
   6   9  30  41.714 5.94247   1
   6   9  31 108.551 5.72662   1
   6  10 -28 35.1967 2.57374   1
   6  10 -27 81.0391 4.26165   1
   6  10 -26 8.99417 2.32187   1
   6  10 -25 156.499 7.56222   1
   6  10 -24 80.3728 3.52077   1
   6  10 -23 139.634 6.09844   1
   6  10 -22 87.3869  4.1776   1
   6  10 -21 184.712 5.84052   1
   6  10 -20 19.6651 2.12989   1
   6  10 -19 242.965  7.7222   1
   6  10 -18 74.9312 3.34812   1
   6  10 -17 101.484 3.38276   1
   6  10 -16 180.516 5.41994   1
   6  10 -15 168.093 7.49173   1
   6  10 -14 12.6928  1.8416   1
   6  10 -13 85.9324 2.94179   1
   6  10 -12 13.7071  1.8258   1
   6  10 -11 11.4187  1.4815   1
   6  10 -10 108.937 3.63099   1
   6  10  -9 111.386 5.30909   1
   6  10  -8 304.201 7.81311   1
   6  10  -7  153.18 4.46821   1
   6  10  -6 365.893 10.1791   1
   6  10  -5 113.159 4.46028   1
   6  10  -4 228.595 6.19865   1
   6  10  -3 147.555 4.04574   1
   6  10  -2 261.521  6.3943   1
   6  10  -1 118.966 3.41749   1
   6  10   0 317.947 7.69008   1
   6  10   1  118.83 3.31094   1
   6  10   2 261.985  6.3633   1
   6  10   3 144.472 4.11591   1
   6  10   4 243.826 6.09107   1
   6  10   5 101.485 3.00321   1
   6  10   6 352.372    8.85   1
   6  10   7 155.766 4.13886   1
   6  10   8 306.266 8.09749   1
   6  10   9 115.492 3.24041   1
   6  10  10 112.129 4.11957   1
   6  10  11 8.58009 1.31318   1
   6  10  12 19.6809 1.43372   1
   6  10  13 82.0983 2.77713   1
   6  10  14 19.3604  1.4989   1
   6  10  15 184.484 5.29923   1
   6  10  16 198.491 6.06609   1
   6  10  17 99.9978 3.13793   1
   6  10  18  84.402 3.15406   1
   6  10  19 254.697 7.10609   1
   6  10  20 13.6613 1.63334   1
   6  10  21 195.126 5.59072   1
   6  10  22 78.5874 3.80025   1
   6  10  23  143.91 4.50591   1
   6  10  24 73.5745 2.99354   1
   6  10  25 162.916 5.62357   1
   6  10  26 6.52556 2.19413   1
   6  10  27 82.0128  3.7309   1
   6  10  28 33.9524 2.80309   1
   6  11 -24 69.2295  4.5564   1
   6  11 -23  159.11 6.77576   1
   6  11 -22 19.3975 3.16047   1
   6  11 -21 32.7198 3.15769   1
   6  11 -20 125.605 11.1223   1
   6  11 -19 98.2668 6.62812   1
   6  11 -18 62.5404 4.47276   1
   6  11 -17 125.914 5.74171   1
   6  11 -16 41.5052 2.88468   1
   6  11 -15 136.495 6.11016   1
   6  11 -14 41.6059 3.02007   1
   6  11 -13 283.544 9.12543   1
   6  11 -12 108.888 4.10816   1
   6  11 -11  357.28 12.4473   1
   6  11 -10 55.4116 2.81752   1
   6  11  -9 306.991 9.85967   1
   6  11  -8 174.546 5.55065   1
   6  11  -7 42.3155  3.3983   1
   6  11  -6 187.083 8.16102   1
   6  11  -5 2.37777 1.51721   1
   6  11  -4 153.602 5.43297   1
   6  11  -3 11.7419 1.62849   1
   6  11  -2 237.828 6.76251   1
   6  11  -1 7.71875 1.35438   1
   6  11   0 275.183 8.14794   1
   6  11   1 7.41565 1.44841   1
   6  11   2 246.594 6.26702   1
   6  11   3 12.5744 1.30933   1
   6  11   4 149.671 4.12474   1
   6  11   5 1.23088 1.25302   1
   6  11   6 182.524 4.70389   1
   6  11   7 35.7364 1.52227   1
   6  11   8 193.992 6.35467   1
   6  11   9 302.771 10.6219   1
   6  11  10  61.393 2.38363   1
   6  11  11  371.83 11.4026   1
   6  11  12 112.281 4.22546   1
   6  11  13  287.27 10.0631   1
   6  11  14 45.8864 2.10266   1
   6  11  15 146.449 5.15366   1
   6  11  16 42.2222 2.15632   1
   6  11  17 128.914 6.03727   1
   6  11  18  59.613 2.32799   1
   6  11  19 91.9646 4.54137   1
   6  11  20 116.786 5.08268   1
   6  11  21 29.5813 2.03462   1
   6  11  22 21.2474 2.11086   1
   6  11  23 156.176 6.60383   1
   6  11  24 69.8553 4.92678   1
   6  12 -19 83.7521 5.24579   1
   6  12 -18   12.11 7.17988   1
   6  12 -17 89.4757 6.36121   1
   6  12 -16  40.702 4.48898   1
   6  12 -15 125.447 8.26576   1
   6  12 -14 50.6017 11.2076   1
   6  12 -13 146.815 6.99786   1
   6  12 -12 61.8531 4.28697   1
   6  12 -11 75.6226 7.62207   1
   6  12 -10 123.846 9.33158   1
   6  12  -9  51.736  5.7218   1
   6  12  -8 278.253 13.3756   1
   6  12  -7  139.58 8.66193   1
   6  12  -6 147.727 5.95885   1
   6  12  -5 65.8317  3.2077   1
   6  12  -4  112.56 5.46454   1
   6  12  -3   59.93 2.88595   1
   6  12  -2 147.277  7.6714   1
   6  12  -1 126.288 5.30181   1
   6  12   0 23.0195  2.0419   1
   6  12   1 121.535 4.53624   1
   6  12   2 148.857 4.69296   1
   6  12   3 61.8169 2.81529   1
   6  12   4 125.631 3.85673   1
   6  12   5 61.8521 2.56587   1
   6  12   6 144.628  6.3357   1
   6  12   7 136.115 6.67672   1
   6  12   8  267.80 8.99783   1
   6  12   9 63.1314 2.97256   1
   6  12  10 131.686  4.2786   1
   6  12  11 80.3044 3.68436   1
   6  12  12 67.4454 3.17888   1
   6  12  13 156.647 6.51256   1
   6  12  14   45.59 2.46871   1
   6  12  15 135.333 5.57423   1
   6  12  16 41.7737 2.85919   1
   6  12  17 76.4396 4.12215   1
   6  12  18 10.2362 2.53323   1
   6  12  19 89.6033 6.12033   1
   6  13 -12 48.6544 4.02867   1
   6  13 -11 59.9979 6.98181   1
   6  13 -10 90.9476 11.4914   1
   6  13  -9 160.846 11.9769   1
   6  13  -8 147.132 10.9644   1
   6  13  -7 92.3964 7.69039   1
   6  13  -6 153.382 12.4647   1
   6  13  -5 123.787 9.86961   1
   6  13  -4 209.711 23.9694   1
   6  13  -3 106.991 5.91829   1
   6  13  -2 89.4651 5.62049   1
   6  13  -1 45.1168 5.87474   1
   6  13   0 14.1405 2.37492   1
   6  13   1 49.0116    2.88   1
   6  13   2  100.67  3.6535   1
   6  13   3 100.576 3.84039   1
   6  13   4 224.168 8.94883   1
   6  13   5 143.711 4.87288   1
   6  13   6 141.374 5.56477   1
   6  13   7 100.032 5.11806   1
   6  13   8 161.273  6.3494   1
   6  13   9 163.612 5.76235   1
   6  13  10 100.947 3.90383   1
   6  13  11 64.5565 3.53835   1
   6  13  12 52.5716 3.09962   1
   7   0   1  0.9842 0.58815   1
   7   0   2 1.09639  0.6527   1
   7   0   3 9.43594 0.64672   1
   7   0   4 9.92046 0.65201   1
   7   0   5 28.3737 1.04092   1
   7   0   6 163.368 4.14669   1
   7   0   7 10.3922 0.66721   1
   7   0   8 116.202   2.804   1
   7   0   9 180.663 4.35905   1
   7   0  10 282.801 6.99075   1
   7   0  11 160.867 4.14408   1
   7   0  12 326.746 7.68678   1
   7   0  13 22.6728 1.07847   1
   7   0  14 802.837 18.3516   1
   7   0  15 60.9003 2.03311   1
   7   0  16 925.443 21.3715   1
   7   0  17 83.8478 2.56456   1
   7   0  18 522.448 13.3112   1
   7   0  19 5.35133 1.05334   1
   7   0  20 689.419 16.0129   1
   7   0  21 1.36523 0.91643   1
   7   0  22 562.934  14.557   1
   7   0  23 25.4357 1.39931   1
   7   0  24 315.407 8.02144   1
   7   0  25 2.31978 1.09586   1
   7   0  26 152.546 4.17827   1
   7   0  27 36.9616 2.59144   1
   7   0  28 87.9127 2.99697   1
   7   0  29 155.644 4.79501   1
   7   0  30  93.236 3.39725   1
   7   0  31 76.1132 3.07646   1
   7   0  32 28.8292 2.13134   1
   7   0  33 27.3968 2.14568   1
   7   0  34 18.7955 2.11201   1
   7   0  35 42.6376 2.52761   1
   7   0  36 12.9977 2.33739   1
   7   0  37 43.6146 2.85422   1
   7   0  38 0.61552 2.26446   1
   7   1 -38 122.743 4.74802   1
   7   1 -37 77.9919 5.52299   1
   7   1 -36 82.0509 3.64319   1
   7   1 -35 131.851 4.92653   1
   7   1 -34 43.6984 3.11186   1
   7   1 -33 197.961 7.02466   1
   7   1 -32 24.7615 2.06001   1
   7   1 -31 428.301 11.7773   1
   7   1 -30 9.35556 1.68503   1
   7   1 -29 241.645 6.92978   1
   7   1 -28 36.2899 1.87168   1
   7   1 -27 195.704 6.57713   1
   7   1 -26 253.496 7.59381   1
   7   1 -25 120.492 4.22678   1
   7   1 -24 296.513 7.57089   1
   7   1 -23 54.1257 1.97245   1
   7   1 -22 192.673 5.10422   1
   7   1 -21 81.5642  3.0144   1
   7   1 -20 102.947  3.6065   1
   7   1 -19 65.6802 2.32577   1
   7   1 -18 165.456 4.54382   1
   7   1 -17 129.706 3.71917   1
   7   1 -16 612.683 14.2779   1
   7   1 -15  120.15 4.75023   1
   7   1 -14 295.074 8.73965   1
   7   1 -13  149.60 4.27732   1
   7   1 -12 363.092 8.27083   1
   7   1 -11 555.434 13.1517   1
   7   1 -10 120.043 3.54383   1
   7   1  -9 709.119 16.7351   1
   7   1  -8 32.0459 1.13141   1
   7   1  -7  497.10  11.779   1
   7   1  -6 28.2704 1.22946   1
   7   1  -5 550.811 13.1027   1
   7   1  -4 148.101 3.83976   1
   7   1  -3 350.567 8.06555   1
   7   1  -2 419.131  9.6641   1
   7   1  -1   91.77 2.60079   1
   7   1   0  338.93 8.02484   1
   7   1   1  94.718 2.48576   1
   7   1   2 418.171 9.85154   1
   7   1   3 356.149 8.18717   1
   7   1   4 146.217 3.43779   1
   7   1   5 566.583 12.8498   1
   7   1   6   27.73 1.03003   1
   7   1   7 511.976 11.6297   1
   7   1   8  28.208  0.9802   1
   7   1   9 712.535 16.3315   1
   7   1  10 129.662 3.25957   1
   7   1  11 544.229 12.5297   1
   7   1  12 352.873 8.25736   1
   7   1  13 143.257 3.58579   1
   7   1  14 290.928  7.0818   1
   7   1  15 121.474 3.69055   1
   7   1  16 624.231 14.3824   1
   7   1  17 121.433 3.97869   1
   7   1  18 164.815 4.75964   1
   7   1  19 64.9304 2.08761   1
   7   1  20 102.505 2.77144   1
   7   1  21 80.0899 2.46974   1
   7   1  22 187.699 5.10902   1
   7   1  23 52.0139 2.85599   1
   7   1  24 311.216 8.06935   1
   7   1  25 117.626 3.32296   1
   7   1  26  264.84 6.66184   1
   7   1  27 189.785 6.48216   1
   7   1  28   40.69  2.1491   1
   7   1  29 234.316 7.08182   1
   7   1  30 13.1723 1.60696   1
   7   1  31 419.861 11.9583   1
   7   1  32   23.74 2.50275   1
   7   1  33 194.738 7.89109   1
   7   1  34 34.8145 2.25776   1
   7   1  35 124.647 4.99629   1
   7   1  36 73.8259 3.47731   1
   7   1  37  76.485 4.46678   1
   7   1  38 131.721 6.13404   1
   7   2 -37 20.4343 2.32363   1
   7   2 -36 27.9359   2.267   1
   7   2 -35 35.3621 2.75858   1
   7   2 -34 32.6639 2.69918   1
   7   2 -33 38.2344 3.39439   1
   7   2 -32 33.5573 2.35606   1
   7   2 -31 15.5424 1.88237   1
   7   2 -30 103.114 3.87362   1
   7   2 -29 24.7047 1.70099   1
   7   2 -28 247.622 7.90702   1
   7   2 -27  45.572 2.88659   1
   7   2 -26 315.546 8.94797   1
   7   2 -25 121.837 4.01984   1
   7   2 -24  124.34 3.63896   1
   7   2 -23 459.036 12.2608   1
   7   2 -22 20.6553  1.5007   1
   7   2 -21 866.852 21.5298   1
   7   2 -20  5.4321 1.15091   1
   7   2 -19 1169.76 28.4362   1
   7   2 -18 0.95394 1.31437   1
   7   2 -17 681.975  15.932   1
   7   2 -16 136.346 3.55727   1
   7   2 -15 728.408 17.6943   1
   7   2 -14 192.765 5.20354   1
   7   2 -13 410.522 10.2467   1
   7   2 -12 514.486 15.7818   1
   7   2 -11 37.8152 1.88386   1
   7   2 -10 323.321 7.76246   1
   7   2  -9  96.178 2.52627   1
   7   2  -8 113.478 2.82551   1
   7   2  -7  97.284 2.81569   1
   7   2  -6 53.5759 1.84932   1
   7   2  -5 74.4288 1.99434   1
   7   2  -4 89.5369 2.49431   1
   7   2  -3 64.6268 1.75725   1
   7   2  -2 35.5561 1.70805   1
   7   2  -1 9.54417 0.81963   1
   7   2   0 32.1242 1.13341   1
   7   2   1 11.4157 0.77689   1
   7   2   2 40.3314  1.4247   1
   7   2   3 64.5262 1.73541   1
   7   2   4 95.0132  2.5494   1
   7   2   5 78.7899 2.06516   1
   7   2   6 59.5981 1.62192   1
   7   2   7 102.095 2.89968   1
   7   2   8 119.308 2.96187   1
   7   2   9 92.0204 2.55736   1
   7   2  10 319.482 7.45948   1
   7   2  11 33.2178 2.06499   1
   7   2  12 502.018 11.9586   1
   7   2  13  395.80 9.74792   1
   7   2  14 206.511 4.97474   1
   7   2  15 729.511 17.6481   1
   7   2  16 146.722 3.63894   1
   7   2  17 677.079 15.7989   1
   7   2  18 4.25605 0.92937   1
   7   2  19 1123.80 25.6253   1
   7   2  20 8.55512 1.27442   1
   7   2  21  871.30   20.90   1
   7   2  22 29.0635  1.5446   1
   7   2  23 451.693 11.1127   1
   7   2  24 121.348 4.04167   1
   7   2  25 127.049 3.81857   1
   7   2  26 326.258 8.70357   1
   7   2  27 51.1752 2.51496   1
   7   2  28 255.051 7.78704   1
   7   2  29 27.7241 2.06799   1
   7   2  30  102.01 4.54238   1
   7   2  31 18.7325 2.67125   1
   7   2  32 29.8531 2.62015   1
   7   2  33 31.5112 2.75952   1
   7   2  34 28.4833 2.49983   1
   7   2  35 37.6553 3.13041   1
   7   2  36 24.2618 2.94505   1
   7   2  37 15.3525 3.57299   1
   7   3 -37-2.59936 5.07513   1
   7   3 -36 103.768 5.20717   1
   7   3 -35 9.43762 3.04616   1
   7   3 -34 223.393 9.12233   1
   7   3 -33  16.603 4.06026   1
   7   3 -32 188.311 6.92509   1
   7   3 -31 16.0951 2.32846   1
   7   3 -30 239.648  7.2584   1
   7   3 -29 4.50816 1.76725   1
   7   3 -28 217.151 6.64147   1
   7   3 -27 10.7346 1.42443   1
   7   3 -26 195.111 6.13918   1
   7   3 -25 20.8282 1.49528   1
   7   3 -24 141.639 4.19646   1
   7   3 -23 78.1418 2.53982   1
   7   3 -22 99.1252 2.84411   1
   7   3 -21 156.071 4.37024   1
   7   3 -20 65.0301 2.28107   1
   7   3 -19 123.811 3.48644   1
   7   3 -18 45.7113 2.46889   1
   7   3 -17 248.054 8.28154   1
   7   3 -16 51.7084  2.0488   1
   7   3 -15 173.454 4.56607   1
   7   3 -14 62.4205 4.46547   1
   7   3 -13 69.8979 2.55498   1
   7   3 -12 229.038  10.548   1
   7   3 -11 62.9415  2.3094   1
   7   3 -10  419.26 11.9201   1
   7   3  -9 11.0015 1.09049   1
   7   3  -8 479.903 12.8667   1
   7   3  -7 12.2868 0.85963   1
   7   3  -6 447.299 12.0625   1
   7   3  -5 9.51338 0.87455   1
   7   3  -4  598.77 14.0048   1
   7   3  -3 14.4829 0.81742   1
   7   3  -2 600.015 14.2511   1
   7   3  -1 6.65403 0.68403   1
   7   3   0  442.53 10.1471   1
   7   3   1 6.93092  0.7047   1
   7   3   2 595.672  13.619   1
   7   3   3 12.7596 0.93731   1
   7   3   4 601.963 13.6584   1
   7   3   5  9.5937 1.13277   1
   7   3   6 455.689 11.4463   1
   7   3   7 12.7956 1.12952   1
   7   3   8 480.895 11.9727   1
   7   3   9 15.4316 1.04932   1
   7   3  10 408.234 10.4108   1
   7   3  11 57.7662 3.16774   1
   7   3  12 226.642 5.55272   1
   7   3  13 65.1851 1.84541   1
   7   3  14 64.0259 1.87821   1
   7   3  15 182.113 4.58417   1
   7   3  16 49.4044 1.61205   1
   7   3  17 245.465  6.2353   1
   7   3  18 42.3753 1.50905   1
   7   3  19 117.325 3.16439   1
   7   3  20 62.9125 2.29214   1
   7   3  21  153.34 4.20907   1
   7   3  22 102.478 2.94878   1
   7   3  23 74.0821 3.15567   1
   7   3  24 139.278 3.90025   1
   7   3  25 23.8804 1.75261   1
   7   3  26 195.813 5.59444   1
   7   3  27 12.4645 1.52956   1
   7   3  28 209.098 5.66906   1
   7   3  29 6.14772 1.91737   1
   7   3  30 236.503 8.92225   1
   7   3  31 15.0259  2.5556   1
   7   3  32 190.208 8.07981   1
   7   3  33 16.0863 3.90743   1
   7   3  34 207.477 12.0385   1
   7   3  35 15.7307 3.63917   1
   7   3  36 97.9515 6.78518   1
   7   3  37-4.94746 4.54631   1
   7   4 -36 14.8403 2.36049   1
   7   4 -35 9.58083 2.58213   1
   7   4 -34  70.949 4.38622   1
   7   4 -33 18.6486 3.27999   1
   7   4 -32 5.27886 2.25406   1
   7   4 -31 7.99834 1.91263   1
   7   4 -30 41.2264 2.75627   1
   7   4 -29 45.5129 2.55976   1
   7   4 -28 147.339 4.40881   1
   7   4 -27 108.407 5.43884   1
   7   4 -26  231.55 6.80645   1
   7   4 -25 255.733 7.76344   1
   7   4 -24 163.814 4.54214   1
   7   4 -23 387.871 10.4026   1
   7   4 -22 131.884 5.88684   1
   7   4 -21  597.06 15.3588   1
   7   4 -20  153.57 4.48956   1
   7   4 -19 572.424 15.0966   1
   7   4 -18 200.149 7.77198   1
   7   4 -17 460.041 13.0868   1
   7   4 -16 247.825 7.97513   1
   7   4 -15 368.982 10.5293   1
   7   4 -14 716.642  17.576   1
   7   4 -13 214.423 6.53846   1
   7   4 -12 634.807  16.041   1
   7   4 -11 67.2949 2.39011   1
   7   4 -10 227.969 5.94956   1
   7   4  -9 133.199 4.22504   1
   7   4  -8 122.624 3.58244   1
   7   4  -7   96.21 3.79001   1
   7   4  -6  81.282 2.73455   1
   7   4  -5 21.8992 1.50307   1
   7   4  -4  141.76 5.46721   1
   7   4  -3 79.0516 2.56611   1
   7   4  -2 101.327  2.7199   1
   7   4  -1  22.409 1.03447   1
   7   4   0 1.11979 0.79612   1
   7   4   1 19.5307 1.64391   1
   7   4   2 95.2509 4.02324   1
   7   4   3 76.9657 2.52658   1
   7   4   4 139.505 3.75474   1
   7   4   5 19.9114 1.06827   1
   7   4   6  72.116 2.62656   1
   7   4   7 95.4921 3.67845   1
   7   4   8 110.142 4.67985   1
   7   4   9 144.173 4.56662   1
   7   4  10 236.076 6.64418   1
   7   4  11 77.7961 2.35634   1
   7   4  12 635.546 15.6702   1
   7   4  13 233.102 5.90233   1
   7   4  14 712.139 18.4891   1
   7   4  15 381.936 9.55827   1
   7   4  16 245.993 5.88213   1
   7   4  17 456.987 10.7118   1
   7   4  18 196.608 5.51011   1
   7   4  19 553.112 13.0463   1
   7   4  20 162.193 4.11439   1
   7   4  21 582.255 13.8506   1
   7   4  22 135.072 4.91331   1
   7   4  23 386.218 10.2535   1
   7   4  24 167.721 5.54853   1
   7   4  25 247.604 7.10747   1
   7   4  26 240.683 6.78721   1
   7   4  27 103.309 3.47125   1
   7   4  28 140.843 4.76123   1
   7   4  29 41.4277 3.10012   1
   7   4  30  35.004 2.41252   1
   7   4  31 9.36851 2.51618   1
   7   4  32 7.65273 2.72293   1
   7   4  33 23.5985 4.07578   1
   7   4  34 81.7292  6.2977   1
   7   4  35 14.5666 4.24805   1
   7   4  36 25.5502 6.95925   1
   7   5 -35 72.5915 7.39826   1
   7   5 -34-0.35017 4.99357   1
   7   5 -33 320.367 21.8528   1
   7   5 -32 24.0809  2.4488   1
   7   5 -31 394.124 13.9346   1
   7   5 -30 14.4433 3.47789   1
   7   5 -29 276.966 10.2384   1
   7   5 -28 4.36191 1.77729   1
   7   5 -27 162.858 4.77907   1
   7   5 -26 48.4738 2.39561   1
   7   5 -25 87.5824 3.19598   1
   7   5 -24 240.773 7.17227   1
   7   5 -23 31.6449 1.76247   1
   7   5 -22 116.625 3.80895   1
   7   5 -21 16.0904 1.47867   1
   7   5 -20 82.7082 3.51468   1
   7   5 -19 5.46015 1.24703   1
   7   5 -18 199.395 6.07167   1
   7   5 -17 4.50671  1.2794   1
   7   5 -16 159.645 6.55839   1
   7   5 -15 9.92003 1.18042   1
   7   5 -14 159.326 4.78931   1
   7   5 -13 112.595 3.25582   1
   7   5 -12  24.884 1.51407   1
   7   5 -11 341.684 9.84918   1
   7   5 -10 15.1677 1.12291   1
   7   5  -9 678.186 16.4371   1
   7   5  -8 19.6717 1.50957   1
   7   5  -7 710.101 17.2658   1
   7   5  -6 15.8182 0.98789   1
   7   5  -5 554.442 13.1928   1
   7   5  -4 54.6734 2.62543   1
   7   5  -3 251.464 5.96696   1
   7   5  -2 248.143 5.87796   1
   7   5  -1 188.045 4.75349   1
   7   5   0 351.525 8.55446   1
   7   5   1 186.055 4.85257   1
   7   5   2 246.889 6.62379   1
   7   5   3  245.42 5.92666   1
   7   5   4 56.3103 2.26885   1
   7   5   5 553.328 12.6264   1
   7   5   6 17.5652 1.22993   1
   7   5   7 691.766 16.1917   1
   7   5   8 18.2029 0.99028   1
   7   5   9 691.802  16.695   1
   7   5  10 15.9323 1.53861   1
   7   5  11 342.377 8.75972   1
   7   5  12 25.7526 1.29047   1
   7   5  13 114.403 3.89449   1
   7   5  14 155.876 5.06763   1
   7   5  15 13.1966  1.0824   1
   7   5  16 159.093 4.19384   1
   7   5  17 4.81537 1.10353   1
   7   5  18 192.965 5.66811   1
   7   5  19 4.41319 1.03217   1
   7   5  20 82.0956 2.47147   1
   7   5  21  15.989  1.2845   1
   7   5  22 113.261  3.1973   1
   7   5  23 27.9059 1.56145   1
   7   5  24 229.501 7.48069   1
   7   5  25 89.3513 3.60079   1
   7   5  26  53.309 2.54954   1
   7   5  27 157.124 4.65095   1
   7   5  28 3.70052  2.1503   1
   7   5  29 274.664 13.0876   1
   7   5  30 19.0319 4.19019   1
   7   5  31  403.77 13.0443   1
   7   5  32 22.3202 5.30168   1
   7   5  33 354.926 26.3316   1
   7   5  34 0.01003 3.63262   1
   7   6 -33 12.0634 3.64453   1
   7   6 -32 43.7292 3.33705   1
   7   6 -31 19.6766 2.79672   1
   7   6 -30 61.8153  4.6643   1
   7   6 -29 32.6674 2.54679   1
   7   6 -28 122.927 4.67818   1
   7   6 -27 7.45365 1.67627   1
   7   6 -26 223.402 6.71654   1
   7   6 -25 62.5896 2.60196   1
   7   6 -24 266.095  7.6577   1
   7   6 -23 83.7076 2.97847   1
   7   6 -22 394.943 12.7999   1
   7   6 -21 86.7597 3.30732   1
   7   6 -20 420.644 20.5291   1
   7   6 -19 73.9459 5.32144   1
   7   6 -18  453.86 11.7846   1
   7   6 -17 50.0009 2.11281   1
   7   6 -16 602.646 14.8738   1
   7   6 -15  108.20 5.62432   1
   7   6 -14  417.56 10.5505   1
   7   6 -13 192.096 5.21737   1
   7   6 -12 358.224 9.75052   1
   7   6 -11  95.553 3.70647   1
   7   6 -10 285.495 7.36514   1
   7   6  -9 137.934 3.68767   1
   7   6  -8 184.797 4.59953   1
   7   6  -7 157.148 5.16266   1
   7   6  -6 79.5585 2.33603   1
   7   6  -5 45.6516 2.02306   1
   7   6  -4 25.5275 1.53355   1
   7   6  -3 78.2609 2.19672   1
   7   6  -2 21.0132 1.50348   1
   7   6  -1 1.37255 0.81076   1
   7   6   0 57.3621 1.79324   1
   7   6   1 3.21507 0.80327   1
   7   6   2 20.1756 1.07115   1
   7   6   3 73.3705 2.04524   1
   7   6   4 29.2176 1.24614   1
   7   6   5 40.3304 1.58397   1
   7   6   6 77.9068 3.18181   1
   7   6   7 158.155 3.98495   1
   7   6   8  191.00 4.61761   1
   7   6   9 135.721 3.53515   1
   7   6  10 295.748 7.04122   1
   7   6  11 92.4457 3.47397   1
   7   6  12 364.369 8.55696   1
   7   6  13 196.587 5.88902   1
   7   6  14 413.411 10.4153   1
   7   6  15 112.686 3.08079   1
   7   6  16 587.418 16.5871   1
   7   6  17   52.51 2.36058   1
   7   6  18  458.03 11.0497   1
   7   6  19 83.7952 3.31058   1
   7   6  20 412.213 9.86632   1
   7   6  21 90.5033 2.97868   1
   7   6  22 383.693 10.1805   1
   7   6  23  89.811 2.71313   1
   7   6  24 258.817 7.10599   1
   7   6  25 68.8664 2.52017   1
   7   6  26 213.288 6.05634   1
   7   6  27 7.13823 1.79261   1
   7   6  28 118.028 6.49542   1
   7   6  29 26.8843 4.10297   1
   7   6  30 57.4152  3.7565   1
   7   6  31 23.5865 3.35659   1
   7   6  32 49.4189 4.93926   1
   7   6  33 13.0498 5.49833   1
   7   7 -31 96.0503 4.42682   1
   7   7 -30 37.5497 2.73892   1
   7   7 -29  103.79 4.48212   1
   7   7 -28 153.233 5.44908   1
   7   7 -27 113.713  4.5286   1
   7   7 -26 284.814 10.2555   1
   7   7 -25 43.5459 2.63198   1
   7   7 -24 242.766 7.22777   1
   7   7 -23 37.1104 2.41191   1
   7   7 -22  219.93  6.8523   1
   7   7 -21 40.1597  2.4263   1
   7   7 -20 50.3202 2.36777   1
   7   7 -19  109.84 5.45447   1
   7   7 -18  84.475 3.89962   1
   7   7 -17 20.3896 1.97017   1
   7   7 -16 183.846 6.95914   1
   7   7 -15 58.4628 2.33391   1
   7   7 -14 267.577 7.28389   1
   7   7 -13 83.1579 4.74782   1
   7   7 -12 341.641 9.37801   1
   7   7 -11 112.887  3.2617   1
   7   7 -10 115.932 3.23381   1
   7   7  -9 233.128 6.07104   1
   7   7  -8 58.6572 3.44506   1
   7   7  -7 191.875 7.12099   1
   7   7  -6 80.2994 3.07423   1
   7   7  -5 277.981 8.65883   1
   7   7  -4 196.298 5.36614   1
   7   7  -3 158.984 4.44329   1
   7   7  -2 285.451 7.03111   1
   7   7  -1  71.974 2.17348   1
   7   7   0 332.147  8.3423   1
   7   7   1 75.1778 2.56337   1
   7   7   2 299.354 7.26078   1
   7   7   3 163.603 4.60466   1
   7   7   4 200.925 6.46108   1
   7   7   5 288.423 7.32645   1
   7   7   6 81.1597 2.41559   1
   7   7   7 205.243 5.74488   1
   7   7   8 63.0191 2.13555   1
   7   7   9 228.566 5.55383   1
   7   7  10 114.859 3.84711   1
   7   7  11 122.643 3.61313   1
   7   7  12 322.109 8.01559   1
   7   7  13 80.8534 2.39951   1
   7   7  14 256.105 6.74085   1
   7   7  15 60.5559 2.80414   1
   7   7  16 180.036 4.70982   1
   7   7  17 19.1277 1.27459   1
   7   7  18 76.3782 2.64211   1
   7   7  19 109.209 3.15413   1
   7   7  20 51.6038 2.35639   1
   7   7  21 38.4765 1.71629   1
   7   7  22 216.551 7.06983   1
   7   7  23 38.4126  2.0234   1
   7   7  24 247.598 6.65389   1
   7   7  25 46.2756  2.4124   1
   7   7  26 288.935 9.61963   1
   7   7  27  112.91 5.47152   1
   7   7  28 154.246 5.40842   1
   7   7  29 112.118 7.58627   1
   7   7  30 31.1932 8.26426   1
   7   7  31 85.7169 6.63342   1
   7   8 -29  6.6575 2.07247   1
   7   8 -28 97.3327 6.04653   1
   7   8 -27 44.8111 4.82012   1
   7   8 -26 98.4667 4.32361   1
   7   8 -25 123.783 5.82031   1
   7   8 -24 61.3377 2.95471   1
   7   8 -23 263.121 8.44464   1
   7   8 -22 64.5017 2.80569   1
   7   8 -21 527.469 15.7217   1
   7   8 -20  118.18 4.81009   1
   7   8 -19 727.726 22.7831   1
   7   8 -18 44.8939 3.84333   1
   7   8 -17  533.69 15.3871   1
   7   8 -16 3.05876 1.77838   1
   7   8 -15 396.429 14.4373   1
   7   8 -14 32.2437 2.14967   1
   7   8 -13 237.493 7.69777   1
   7   8 -12 148.722 6.25398   1
   7   8 -11  75.091 2.90985   1
   7   8 -10 285.706 7.48214   1
   7   8  -9 142.513 5.25246   1
   7   8  -8 119.473 4.00429   1
   7   8  -7 231.378 6.28587   1
   7   8  -6 61.6388 2.91137   1
   7   8  -5 150.814  3.9962   1
   7   8  -4 49.7688 2.17741   1
   7   8  -3 126.969 3.34871   1
   7   8  -2 31.1353 1.32427   1
   7   8  -1 19.4143 1.20508   1
   7   8   0 5.01987 0.99524   1
   7   8   1 22.2702 1.26458   1
   7   8   2 34.2554  1.4514   1
   7   8   3 123.318 3.27558   1
   7   8   4  55.522 1.89148   1
   7   8   5  148.06 3.95697   1
   7   8   6 64.6637 2.03456   1
   7   8   7  236.69 6.71113   1
   7   8   8 114.197 3.27295   1
   7   8   9 148.015 4.10322   1
   7   8  10 285.965 7.00506   1
   7   8  11 67.4503 2.48672   1
   7   8  12 145.919 4.68633   1
   7   8  13  222.65 6.56959   1
   7   8  14 32.7818 1.59421   1
   7   8  15 401.018 10.0749   1
   7   8  16 3.34544 1.19959   1
   7   8  17 510.716 14.9492   1
   7   8  18 47.7088 1.91662   1
   7   8  19 699.657 19.9186   1
   7   8  20  117.09 3.99644   1
   7   8  21 543.564 15.1235   1
   7   8  22 65.8033 2.58945   1
   7   8  23 249.708 8.24167   1
   7   8  24  61.775 2.70457   1
   7   8  25 112.221 4.99634   1
   7   8  26 84.4247 3.84198   1
   7   8  27 46.7949 2.83747   1
   7   8  28 99.0312 5.16239   1
   7   8  29 6.64863 1.92766   1
   7   9 -26 90.5396 3.93037   1
   7   9 -25 92.8406 4.26135   1
   7   9 -24 63.2647 3.31355   1
   7   9 -23 70.0795 4.67307   1
   7   9 -22 45.6271 2.65032   1
   7   9 -21 90.0674 5.12407   1
   7   9 -20 93.5504 3.80032   1
   7   9 -19 60.4239 2.92457   1
   7   9 -18 97.1235 3.67369   1
   7   9 -17 14.6322 2.07452   1
   7   9 -16 73.3776 3.35545   1
   7   9 -15 51.5548 3.13497   1
   7   9 -14 59.1294 3.18257   1
   7   9 -13 145.421  5.1777   1
   7   9 -12 141.613 4.55812   1
   7   9 -11 104.929 3.36889   1
   7   9 -10  109.52 4.41841   1
   7   9  -9 23.9005  2.0349   1
   7   9  -8 309.708  9.0425   1
   7   9  -7 74.1605 2.68091   1
   7   9  -6 315.262 8.17503   1
   7   9  -5 110.551 4.02018   1
   7   9  -4 149.566 4.08537   1
   7   9  -3 43.8089 1.94557   1
   7   9  -2  245.74 6.29881   1
   7   9  -1 43.0607 1.67776   1
   7   9   0 360.741 8.83912   1
   7   9   1 42.5831 2.30562   1
   7   9   2 260.973 7.49677   1
   7   9   3 41.6957  1.6868   1
   7   9   4 156.279 4.25256   1
   7   9   5 111.416 3.97923   1
   7   9   6 323.787 9.41569   1
   7   9   7 77.0815 2.42543   1
   7   9   8 316.601 9.17721   1
   7   9   9  21.582 1.38631   1
   7   9  10 114.732  5.2503   1
   7   9  11 101.436 4.02827   1
   7   9  12 143.803 3.89922   1
   7   9  13  138.88 4.37783   1
   7   9  14 57.7443  3.1121   1
   7   9  15 42.9614 1.97092   1
   7   9  16  79.125 2.60879   1
   7   9  17 10.1472 1.37192   1
   7   9  18  95.383 3.01785   1
   7   9  19 65.9786 2.97632   1
   7   9  20 101.101 4.13046   1
   7   9  21 88.3093 3.40649   1
   7   9  22  49.829 2.81437   1
   7   9  23 69.5556 2.85617   1
   7   9  24 64.1888 3.21914   1
   7   9  25 91.1882 4.01948   1
   7   9  26 96.8661 5.11558   1
   7  10 -22 140.386 5.27122   1
   7  10 -21 83.0554 3.97975   1
   7  10 -20 151.782 6.55741   1
   7  10 -19 164.728  7.9771   1
   7  10 -18 137.381 5.13265   1
   7  10 -17 71.1586 3.40511   1
   7  10 -16 298.622  13.019   1
   7  10 -15 63.7119 3.80231   1
   7  10 -14 350.558 11.7522   1
   7  10 -13 84.4688 4.04782   1
   7  10 -12 334.765  17.123   1
   7  10 -11 62.3817 3.21125   1
   7  10 -10 246.684 7.11341   1
   7  10  -9 118.258 4.39765   1
   7  10  -8  68.028 2.69196   1
   7  10  -7 46.3845 2.18203   1
   7  10  -6 32.3439 2.66364   1
   7  10  -5 87.7334 3.45399   1
   7  10  -4 37.4853 1.95113   1
   7  10  -3 108.649 3.33679   1
   7  10  -2 5.07048 1.39713   1
   7  10  -1  23.636 1.72812   1
   7  10   0 25.1709 1.61184   1
   7  10   1 22.1168  1.5135   1
   7  10   2 5.18012 1.37908   1
   7  10   3 99.6632 3.04573   1
   7  10   4 37.8491 1.77592   1
   7  10   5  85.766 2.65896   1
   7  10   6 28.3066  1.6214   1
   7  10   7 41.1321 1.99633   1
   7  10   8 70.9154 2.66875   1
   7  10   9 116.053 3.54696   1
   7  10  10 245.626 6.43904   1
   7  10  11  73.423 3.40935   1
   7  10  12  328.55 10.1778   1
   7  10  13 82.1696 3.21219   1
   7  10  14 319.838 8.48839   1
   7  10  15 70.0245 3.41543   1
   7  10  16 307.284 10.2423   1
   7  10  17  60.764  2.4941   1
   7  10  18 132.971 5.30255   1
   7  10  19 146.453 4.67142   1
   7  10  20 134.025 5.07809   1
   7  10  21 83.5909 3.58327   1
   7  10  22 147.995 4.76786   1
   7  11 -17 30.7987  6.5704   1
   7  11 -16 93.4374 4.96076   1
   7  11 -15 8.93451 3.76121   1
   7  11 -14 36.3822 5.38403   1
   7  11 -13  11.822 2.73802   1
   7  11 -12 9.67198 2.44511   1
   7  11 -11 184.891 6.28998   1
   7  11 -10 81.5111 4.85042   1
   7  11  -9  416.61 12.2757   1
   7  11  -8 78.8289 3.45178   1
   7  11  -7 358.045 12.7276   1
   7  11  -6 40.5291 2.19061   1
   7  11  -5 345.539 12.0993   1
   7  11  -4 3.01152 1.58706   1
   7  11  -3 166.307 5.77818   1
   7  11  -2 62.5605 2.61345   1
   7  11  -1 128.536  4.1233   1
   7  11   0 68.2298 3.50361   1
   7  11   1 136.413 4.10942   1
   7  11   2 63.8082 2.48028   1
   7  11   3 169.907 5.04344   1
   7  11   4 3.62404   1.504   1
   7  11   5 340.065 9.05585   1
   7  11   6 38.8575 2.20243   1
   7  11   7 396.395 12.7744   1
   7  11   8 73.4381 3.01172   1
   7  11   9  436.59 14.1837   1
   7  11  10  79.023 2.75084   1
   7  11  11 175.798 5.69567   1
   7  11  12 6.05257 1.75882   1
   7  11  13 13.1324 1.74821   1
   7  11  14 34.2815 2.30707   1
   7  11  15 9.53797  1.8519   1
   7  11  16 106.546 5.66802   1
   7  11  17 27.0273 2.89089   1
   7  12  -9 34.4346 4.57959   1
   7  12  -8 80.8156 3.78368   1
   7  12  -7 0.88841 2.32336   1
   7  12  -6 52.0041 3.12749   1
   7  12  -5 53.1663 2.93102   1
   7  12  -4 19.7379 2.34099   1
   7  12  -3 24.4356 2.25333   1
   7  12  -2 13.6991 1.84066   1
   7  12  -1 31.8183 2.16459   1
   7  12   0 3.99533 2.04963   1
   7  12   1 36.0452 2.30014   1
   7  12   2  11.415 1.77686   1
   7  12   3 25.1871 2.01129   1
   7  12   4 22.0667 2.07541   1
   7  12   5 53.2362 2.54712   1
   7  12   6 51.8656 2.46596   1
   7  12   7 5.14669  1.6431   1
   7  12   8 73.8828 3.37202   1
   7  12   9 39.2463 2.66007   1
   8   0   0 1190.29 29.3059   1
   8   0   1 27.5691 1.31351   1
   8   0   2 701.645 15.9927   1
   8   0   3 60.2488 2.15606   1
   8   0   4 546.931 12.6623   1
   8   0   5 56.9112 2.09753   1
   8   0   6 593.947 13.7038   1
   8   0   7 49.1646 1.97012   1
   8   0   8  307.27 7.33361   1
   8   0   9 8.00433   0.925   1
   8   0  10 87.6557 2.90787   1
   8   0  11 6.19929 1.08569   1
   8   0  12 71.1657 2.67461   1
   8   0  13 2.38431 1.07402   1
   8   0  14 102.118 2.90052   1
   8   0  15 144.434 4.70454   1
   8   0  16 4.63596  1.1973   1
   8   0  17 26.5502 2.44667   1
   8   0  18 9.01731 1.33772   1
   8   0  19 11.9075  1.3634   1
   8   0  20 1.42304 1.26999   1
   8   0  21 72.6879 2.55875   1
   8   0  22 11.5827 1.40972   1
   8   0  23 47.1418 2.03582   1
   8   0  24 136.886 5.17656   1
   8   0  25 3.40662 1.47508   1
   8   0  26 141.367 6.05161   1
   8   0  27 7.09696 1.55866   1
   8   0  28 168.558 5.45156   1
   8   0  29 0.87866 1.75485   1
   8   0  30 229.657 7.83713   1
   8   0  31 37.9605 3.64026   1
   8   0  32 270.967 9.87544   1
   8   0  33 11.5456 2.49005   1
   8   1 -33 43.4854 3.37605   1
   8   1 -32 54.0636 3.92579   1
   8   1 -31 75.0297 3.66243   1
   8   1 -30 16.4332 2.13274   1
   8   1 -29 145.389 6.28896   1
   8   1 -28 7.81861 2.61515   1
   8   1 -27 293.269 12.9902   1
   8   1 -26 18.7131 1.89691   1
   8   1 -25 283.907 8.16185   1
   8   1 -24 90.0623 3.21318   1
   8   1 -23  206.79 5.90067   1
   8   1 -22 328.649 11.3058   1
   8   1 -21 140.283 4.09738   1
   8   1 -20 265.593 8.22758   1
   8   1 -19 214.914 5.71026   1
   8   1 -18 316.073 11.6488   1
   8   1 -17 232.352 6.24894   1
   8   1 -16  282.15 9.23918   1
   8   1 -15  285.88 7.37683   1
   8   1 -14 20.5918 1.44686   1
   8   1 -13 619.293 15.0056   1
   8   1 -12 80.7337 2.66331   1
   8   1 -11 357.464 8.68758   1
   8   1 -10 62.0448 1.93928   1
   8   1  -9 186.735 4.63406   1
   8   1  -8 50.6426 1.66121   1
   8   1  -7 81.3731  2.3891   1
   8   1  -6  123.74 3.26543   1
   8   1  -5 10.1187 0.92314   1
   8   1  -4  164.60 4.07613   1
   8   1  -3 10.1687 0.95313   1
   8   1  -2 72.2585  2.0898   1
   8   1  -1 36.0143 1.38183   1
   8   1   0 68.9764 1.99169   1
   8   1   1 40.1302 1.37032   1
   8   1   2 74.4861 2.22343   1
   8   1   3 15.4545 1.04555   1
   8   1   4 166.098 4.29462   1
   8   1   5 8.48326 0.88172   1
   8   1   6 123.365 3.19321   1
   8   1   7 79.2356 2.63951   1
   8   1   8 48.9496  1.6575   1
   8   1   9 186.227 4.68811   1
   8   1  10 68.7428 2.22694   1
   8   1  11 351.131 8.77916   1
   8   1  12 93.5704 2.72664   1
   8   1  13  599.25 14.8207   1
   8   1  14 21.2618 1.46583   1
   8   1  15 293.288 9.10654   1
   8   1  16 274.891 8.85267   1
   8   1  17 237.697 6.89265   1
   8   1  18 314.141 8.36139   1
   8   1  19 221.021 5.90831   1
   8   1  20 261.419 7.20773   1
   8   1  21 144.386 4.22989   1
   8   1  22 322.157 8.52794   1
   8   1  23 216.315 6.12328   1
   8   1  24 79.0783 3.03141   1
   8   1  25 295.061 8.90294   1
   8   1  26 15.6926 1.90553   1
   8   1  27 296.241 8.70918   1
   8   1  28  7.0511 1.85162   1
   8   1  29 142.973 5.31157   1
   8   1  30 9.47408 2.97006   1
   8   1  31  81.745 5.03625   1
   8   1  32 57.6914 4.27129   1
   8   1  33 39.6427 4.30288   1
   8   2 -32 177.811  8.6226   1
   8   2 -31 110.286 5.25542   1
   8   2 -30 145.128 5.29101   1
   8   2 -29 126.006 5.21559   1
   8   2 -28 61.1739 2.98052   1
   8   2 -27 105.502 4.30008   1
   8   2 -26 3.49874 1.90752   1
   8   2 -25 115.804  4.0516   1
   8   2 -24 23.3542 1.78297   1
   8   2 -23 125.198 3.95031   1
   8   2 -22 25.5327 2.42178   1
   8   2 -21 49.9544 3.16171   1
   8   2 -20 85.3813 3.12263   1
   8   2 -19 15.8924 1.65992   1
   8   2 -18 54.4505 2.71565   1
   8   2 -17 41.4455 2.98977   1
   8   2 -16 98.0977 3.31595   1
   8   2 -15 75.1516 2.60158   1
   8   2 -14 66.1824 2.26436   1
   8   2 -13 41.8882 1.85954   1
   8   2 -12 6.33224 1.44055   1
   8   2 -11 83.7536 3.49574   1
   8   2 -10 147.543 5.52548   1
   8   2  -9 111.398 3.25051   1
   8   2  -8 380.814 9.02731   1
   8   2  -7 80.6716 2.26102   1
   8   2  -6 265.195 6.33835   1
   8   2  -5 436.125  10.304   1
   8   2  -4 102.446 3.11533   1
   8   2  -3 785.589  18.367   1
   8   2  -2 92.2908 3.40196   1
   8   2  -1 910.552  20.707   1
   8   2   0 11.9771 1.28645   1
   8   2   1 913.958 21.2416   1
   8   2   2 82.6887 2.45904   1
   8   2   3 768.183 19.2724   1
   8   2   4 101.276 3.06051   1
   8   2   5 431.846 11.2735   1
   8   2   6 261.834 6.77557   1
   8   2   7 88.0676 2.45533   1
   8   2   8 370.907  9.5023   1
   8   2   9 116.579 3.88024   1
   8   2  10  138.71 3.64188   1
   8   2  11 80.3728 2.70434   1
   8   2  12 9.58593 1.06772   1
   8   2  13 44.2277 2.23252   1
   8   2  14 66.2372 2.17489   1
   8   2  15 78.1594 2.47718   1
   8   2  16 94.2666 2.72004   1
   8   2  17 39.1133  1.5835   1
   8   2  18 57.6591 3.52066   1
   8   2  19 15.3084 2.37293   1
   8   2  20 85.1304 3.31894   1
   8   2  21 59.6163 2.41971   1
   8   2  22  26.193 1.89542   1
   8   2  23 130.488 4.55647   1
   8   2  24 19.0997 1.68131   1
   8   2  25 106.828 3.64246   1
   8   2  26 3.72567 1.80189   1
   8   2  27  112.05 3.99279   1
   8   2  28 61.8948 2.94604   1
   8   2  29 125.262 5.38735   1
   8   2  30 149.237 5.61639   1
   8   2  31 105.725 6.92794   1
   8   2  32 168.193 7.23688   1
   8   3 -31 0.00899 2.44203   1
   8   3 -30 119.372 6.53759   1
   8   3 -29 1.96837 2.37245   1
   8   3 -28 173.511 6.24786   1
   8   3 -27 13.3625 2.51549   1
   8   3 -26 218.403 7.52334   1
   8   3 -25 51.1006 4.04429   1
   8   3 -24 384.876 16.0798   1
   8   3 -23 60.5224 3.02162   1
   8   3 -22 372.926 11.3792   1
   8   3 -21  44.245 2.35597   1
   8   3 -20 362.711 12.3806   1
   8   3 -19 6.86858 1.71448   1
   8   3 -18 544.715 15.1681   1
   8   3 -17 32.2808 2.39659   1
   8   3 -16  405.70 12.8829   1
   8   3 -15 56.1568 2.95524   1
   8   3 -14 305.298 8.26208   1
   8   3 -13 68.0569  2.3807   1
   8   3 -12 394.141 11.7215   1
   8   3 -11  66.711 3.77646   1
   8   3 -10 332.784 8.65822   1
   8   3  -9  32.362  1.3823   1
   8   3  -8 116.094 3.14604   1
   8   3  -7 9.01677 1.03524   1
   8   3  -6 61.7877 1.95603   1
   8   3  -5 28.7832  1.2899   1
   8   3  -4 65.0249 2.24057   1
   8   3  -3 23.9769 1.27631   1
   8   3  -2 7.40141 0.90808   1
   8   3  -1 9.35565 1.04904   1
   8   3   0 31.1112 1.35951   1
   8   3   1 7.65582 0.87748   1
   8   3   2  7.1959 0.97764   1
   8   3   3 21.0758 1.06488   1
   8   3   4 63.0287 2.16815   1
   8   3   5 28.1227 1.22075   1
   8   3   6 60.3648 1.84083   1
   8   3   7 8.47358 0.86707   1
   8   3   8 116.205 3.09227   1
   8   3   9 36.3521 1.49911   1
   8   3  10 332.259 8.23045   1
   8   3  11 65.5062 2.35695   1
   8   3  12 395.473 9.45128   1
   8   3  13 71.9036 2.25685   1
   8   3  14 319.757  8.5548   1
   8   3  15 54.7622 2.51397   1
   8   3  16 403.518 11.1338   1
   8   3  17 36.3445  2.4298   1
   8   3  18  540.76 14.7579   1
   8   3  19 9.72615 1.46599   1
   8   3  20 357.599 10.1207   1
   8   3  21 41.1495  2.0416   1
   8   3  22 366.832 10.5243   1
   8   3  23 54.6143 2.55973   1
   8   3  24 383.293 10.4254   1
   8   3  25 49.8444 2.43871   1
   8   3  26  218.96 6.44208   1
   8   3  27 11.0718 2.05076   1
   8   3  28  176.58 6.58375   1
   8   3  29 1.37287 1.83409   1
   8   3  30 112.138 4.42893   1
   8   3  31 2.94925 2.16809   1
   8   4 -30 205.788 8.93842   1
   8   4 -29 63.0511 3.61675   1
   8   4 -28 72.1758 3.68949   1
   8   4 -27 62.7891 3.38508   1
   8   4 -26 5.84256 2.02032   1
   8   4 -25 76.2071 3.12711   1
   8   4 -24 6.85759 2.12675   1
   8   4 -23 101.541 5.53775   1
   8   4 -22 20.5526 1.93501   1
   8   4 -21 86.5083 3.64768   1
   8   4 -20 4.49731 2.41086   1
   8   4 -19 89.2377 3.21557   1
   8   4 -18 23.3658 1.84911   1
   8   4 -17 43.8284 2.34847   1
   8   4 -16 67.7666 2.73071   1
   8   4 -15 90.7813 3.08225   1
   8   4 -14 7.89061 1.32338   1
   8   4 -13 101.244 3.49107   1
   8   4 -12 32.6723 1.82718   1
   8   4 -11  95.134    3.40   1
   8   4 -10 197.947 5.29587   1
   8   4  -9 79.0395 3.31802   1
   8   4  -8 399.226 9.80327   1
   8   4  -7 148.754 5.17213   1
   8   4  -6 379.764 9.59972   1
   8   4  -5 349.214 8.77779   1
   8   4  -4 186.456 5.74995   1
   8   4  -3 412.267 11.0573   1
   8   4  -2 110.402 3.41964   1
   8   4  -1 521.273 14.2078   1
   8   4   0   83.54  2.6946   1
   8   4   1 524.628  12.082   1
   8   4   2 105.357 3.00326   1
   8   4   3 409.683 9.75293   1
   8   4   4  188.01 5.15969   1
   8   4   5 330.829 7.94888   1
   8   4   6 375.365 8.87718   1
   8   4   7 140.111 3.68144   1
   8   4   8 400.388  10.966   1
   8   4   9 75.0671 2.45882   1
   8   4  10 195.583 4.86844   1
   8   4  11 89.9985 2.64936   1
   8   4  12 27.1156  1.2633   1
   8   4  13 105.391 3.78902   1
   8   4  14 6.47238 1.06511   1
   8   4  15  95.657 2.95513   1
   8   4  16 65.1097 2.43291   1
   8   4  17  45.519 2.09537   1
   8   4  18 25.9309 1.47564   1
   8   4  19 90.6994 2.83244   1
   8   4  20 3.93441 1.25165   1
   8   4  21 78.7377 2.73141   1
   8   4  22 20.7394 1.78336   1
   8   4  23 94.9573 3.33917   1
   8   4  24 8.14672 1.72309   1
   8   4  25 84.5978 3.42627   1
   8   4  26 7.80203 2.18074   1
   8   4  27 70.1331 4.76362   1
   8   4  28 76.7416 3.51528   1
   8   4  29 65.4292  4.2515   1
   8   4  30 199.849 11.4755   1
   8   5 -29 214.032 10.2087   1
   8   5 -28 20.9848 5.05247   1
   8   5 -27 304.681 11.9849   1
   8   5 -26 16.4074 2.50651   1
   8   5 -25 249.947 8.70208   1
   8   5 -24 62.5902 2.96674   1
   8   5 -23 232.904 6.95315   1
   8   5 -22 91.7201 3.51085   1
   8   5 -21 162.377 14.5271   1
   8   5 -20 141.973 5.63189   1
   8   5 -19 205.777  10.192   1
   8   5 -18 154.618 6.39457   1
   8   5 -17 209.765 6.32734   1
   8   5 -16 37.5658 2.23456   1
   8   5 -15 364.451 12.8126   1
   8   5 -14 23.1082 1.87621   1
   8   5 -13 543.804 14.3706   1
   8   5 -12 101.536  5.1304   1
   8   5 -11 544.718 13.8985   1
   8   5 -10 51.4565 2.26854   1
   8   5  -9  354.65 10.8761   1
   8   5  -8  38.449 1.75565   1
   8   5  -7 119.141 3.41922   1
   8   5  -6 58.0255 2.15017   1
   8   5  -5 58.5923 2.40976   1
   8   5  -4 120.599 3.91363   1
   8   5  -3 6.84863 1.09103   1
   8   5  -2 56.0111 1.85202   1
   8   5  -1 3.57978 1.62154   1
   8   5   0 22.6205 1.46112   1
   8   5   1 4.23521 0.92123   1
   8   5   2 57.9767 1.93532   1
   8   5   3 5.62189 1.11635   1
   8   5   4  126.24 3.69713   1
   8   5   5 58.0776 2.50841   1
   8   5   6 61.0241 2.14905   1
   8   5   7 120.593 3.32261   1
   8   5   8 41.8676 1.66058   1
   8   5   9 349.816 9.67103   1
   8   5  10 40.7444 2.47116   1
   8   5  11 555.343 13.2874   1
   8   5  12 92.7198 2.79307   1
   8   5  13 564.195 13.5087   1
   8   5  14 24.5495 1.45228   1
   8   5  15 376.154 9.41673   1
   8   5  16 37.3975  2.2686   1
   8   5  17 201.971 5.17198   1
   8   5  18 158.808 4.28279   1
   8   5  19  201.03 6.41134   1
   8   5  20 146.166  4.2685   1
   8   5  21 172.161 4.86836   1
   8   5  22 94.8628 3.06653   1
   8   5  23 237.435 7.40033   1
   8   5  24 64.9797 2.96316   1
   8   5  25 243.726 8.91588   1
   8   5  26 15.5379 2.30202   1
   8   5  27 275.728 10.5824   1
   8   5  28 22.9951 2.61401   1
   8   5  29 220.926 8.65316   1
   8   6 -27 1.39904 2.41549   1
   8   6 -26  111.87  8.1973   1
   8   6 -25 0.47895 2.31067   1
   8   6 -24 52.3467 3.40194   1
   8   6 -23 4.43698 2.48232   1
   8   6 -22 37.5087 4.34088   1
   8   6 -21 7.74985 3.08792   1
   8   6 -20 111.361 5.45464   1
   8   6 -19 20.7979 2.33175   1
   8   6 -18 63.1839 2.84367   1
   8   6 -17 17.1886 1.85717   1
   8   6 -16 20.3967 2.58142   1
   8   6 -15  30.575 1.85884   1
   8   6 -14 128.457 4.19435   1
   8   6 -13 41.5243 2.24649   1
   8   6 -12 193.367 5.57613   1
   8   6 -11  5.2699 1.53896   1
   8   6 -10 260.682 7.61158   1
   8   6  -9 51.2636 2.39159   1
   8   6  -8 264.535 7.04874   1
   8   6  -7 55.1349 2.61709   1
   8   6  -6 376.279   9.905   1
   8   6  -5 48.4112   1.862   1
   8   6  -4  343.64 8.34653   1
   8   6  -3 33.8446 1.78854   1
   8   6  -2 314.018 7.56624   1
   8   6  -1 20.4667 1.31571   1
   8   6   0 301.236 9.21035   1
   8   6   1 20.7486 1.62966   1
   8   6   2 308.939 7.88899   1
   8   6   3  38.158 2.23489   1
   8   6   4 319.886 7.98216   1
   8   6   5 54.5151 2.02301   1
   8   6   6 362.513 8.94612   1
   8   6   7 55.7059 3.23974   1
   8   6   8 259.825 6.39519   1
   8   6   9 52.4179 2.03887   1
   8   6  10 238.469 6.14176   1
   8   6  11 7.71068 1.26614   1
   8   6  12 187.011 6.17802   1
   8   6  13 34.4279 1.55218   1
   8   6  14 134.187 4.06235   1
   8   6  15 31.7392 1.76093   1
   8   6  16   18.50 1.36755   1
   8   6  17  16.656 1.35984   1
   8   6  18 61.9746 2.29922   1
   8   6  19 20.8298 1.58723   1
   8   6  20 103.435 3.15859   1
   8   6  21 12.1535  1.5034   1
   8   6  22 40.2248 2.07507   1
   8   6  23 4.27935 1.71518   1
   8   6  24 47.7386 2.42216   1
   8   6  25 3.47072 2.16606   1
   8   6  26  99.897 4.18326   1
   8   6  27 2.67419 2.41229   1
   8   7 -25 144.244 6.21167   1
   8   7 -24 111.332 4.91879   1
   8   7 -23 79.8938 4.47843   1
   8   7 -22 192.147 7.20437   1
   8   7 -21 66.3085   3.271   1
   8   7 -20  262.65 7.67843   1
   8   7 -19 64.3642 3.83687   1
   8   7 -18 308.712 13.0663   1
   8   7 -17 54.6924 3.34873   1
   8   7 -16 247.451 7.99231   1
   8   7 -15 122.539 4.37256   1
   8   7 -14 65.8771 3.18085   1
   8   7 -13 272.425 7.67989   1
   8   7 -12 65.5319 3.00174   1
   8   7 -11 244.396 7.24587   1
   8   7 -10 137.563 4.67458   1
   8   7  -9 123.399 4.03846   1
   8   7  -8 104.183 3.14467   1
   8   7  -7 115.649 4.02189   1
   8   7  -6 361.341 9.39299   1
   8   7  -5 64.1753  2.4684   1
   8   7  -4 298.556 9.98137   1
   8   7  -3 7.77088 1.34572   1
   8   7  -2 56.8858 2.50369   1
   8   7  -1 37.3228 1.75024   1
   8   7   0 3.15383 1.27504   1
   8   7   1 36.7027 1.61285   1
   8   7   2 57.1086 2.03583   1
   8   7   3   7.529 1.39819   1
   8   7   4 308.808 7.81331   1
   8   7   5 67.4655 2.56447   1
   8   7   6 364.419  8.8043   1
   8   7   7  115.89 3.31064   1
   8   7   8 102.702 3.11458   1
   8   7   9 116.592 3.46959   1
   8   7  10  128.77 4.60828   1
   8   7  11 225.374 6.25575   1
   8   7  12 72.1003 2.58259   1
   8   7  13  273.52 8.52429   1
   8   7  14 60.9099 2.64383   1
   8   7  15 118.783 3.60232   1
   8   7  16 246.413 7.60662   1
   8   7  17 55.5693 2.28069   1
   8   7  18 286.272  7.7377   1
   8   7  19 63.4599 2.52828   1
   8   7  20 233.628 8.32287   1
   8   7  21 68.0005 2.70196   1
   8   7  22 192.153 6.52127   1
   8   7  23  85.802 3.11148   1
   8   7  24 105.917 4.67911   1
   8   7  25 131.951  8.5577   1
   8   8 -22 5.15385 2.29555   1
   8   8 -21 29.9196 2.65474   1
   8   8 -20 31.4848 2.56039   1
   8   8 -19 3.35491 2.26071   1
   8   8 -18 40.8808 2.80149   1
   8   8 -17 42.3041 2.89195   1
   8   8 -16 47.3222 2.80735   1
   8   8 -15 165.691 7.27212   1
   8   8 -14 38.4183 3.43304   1
   8   8 -13 183.034 9.45933   1
   8   8 -12  5.7422 2.67552   1
   8   8 -11 134.252 6.56032   1
   8   8 -10 61.2762 3.58735   1
   8   8  -9 126.839 5.06158   1
   8   8  -8 87.4565 3.87555   1
   8   8  -7  82.329 2.85986   1
   8   8  -6 96.4984 3.08265   1
   8   8  -5 227.377 7.37988   1
   8   8  -4 54.0622 2.49016   1
   8   8  -3  387.20 10.5039   1
   8   8  -2 38.3213 2.00544   1
   8   8  -1  370.95 9.64193   1
   8   8   0 6.83128  1.2724   1
   8   8   1  371.95 9.84563   1
   8   8   2 40.4365 1.84225   1
   8   8   3 377.998 10.3198   1
   8   8   4 52.7071 2.09625   1
   8   8   5  227.31 6.54687   1
   8   8   6 97.8847 3.09719   1
   8   8   7 86.4733 2.95294   1
   8   8   8 88.5808 3.32335   1
   8   8   9 125.078 3.90069   1
   8   8  10 64.5215 2.86927   1
   8   8  11 140.788 5.48036   1
   8   8  12 7.66764 1.51508   1
   8   8  13 184.586 5.73302   1
   8   8  14 40.0618 2.17796   1
   8   8  15 170.574 5.26696   1
   8   8  16 52.2323 2.91701   1
   8   8  17 38.7948 2.10035   1
   8   8  18 37.7914 2.48973   1
   8   8  19 4.23617 1.37584   1
   8   8  20 27.6412 1.86686   1
   8   8  21 23.3984 1.99636   1
   8   8  22 5.80136 1.82852   1
   8   9 -18 151.706 11.4339   1
   8   9 -17 71.9567 4.49706   1
   8   9 -16 299.843 19.4075   1
   8   9 -15  67.137 4.36838   1
   8   9 -14 182.265 7.45848   1
   8   9 -13 38.4788 4.06876   1
   8   9 -12 235.046  8.1604   1
   8   9 -11 22.2136 2.24941   1
   8   9 -10 338.011 9.76681   1
   8   9  -9 40.5002 2.62082   1
   8   9  -8 158.765 5.65928   1
   8   9  -7 47.2515 2.82813   1
   8   9  -6 115.333 5.43529   1
   8   9  -5 55.1745 2.44953   1
   8   9  -4 55.6308 2.84087   1
   8   9  -3 16.2696 1.92534   1
   8   9  -2 111.111 3.80094   1
   8   9  -1 14.4129 1.71517   1
   8   9   0 64.5535 2.82548   1
   8   9   1 13.2613 1.67607   1
   8   9   2  107.03 3.47583   1
   8   9   3 19.4194  1.6446   1
   8   9   4 57.2682 2.26925   1
   8   9   5 48.7443 2.08785   1
   8   9   6 125.149 3.88246   1
   8   9   7 41.3277 2.48555   1
   8   9   8 160.932 5.78888   1
   8   9   9 40.3366 2.33238   1
   8   9  10  333.15 10.0623   1
   8   9  11 20.3069 1.85231   1
   8   9  12 206.363 8.05384   1
   8   9  13 34.1685 2.12837   1
   8   9  14  170.27 5.14464   1
   8   9  15 61.7423 2.47412   1
   8   9  16 292.298 8.97494   1
   8   9  17 72.5847 2.99585   1
   8   9  18 153.818 5.07556   1
   8  10 -12 43.4032 6.64763   1
   8  10 -11 31.6567 3.78411   1
   8  10 -10  103.08 4.88475   1
   8  10  -9 28.1386 2.27469   1
   8  10  -8 305.527 14.4334   1
   8  10  -7 25.7394 2.23466   1
   8  10  -6  296.74 9.06675   1
   8  10  -5 88.7534 3.63295   1
   8  10  -4 158.074 6.75391   1
   8  10  -3 52.7902 2.83426   1
   8  10  -2 141.164 5.13671   1
   8  10  -1 135.869 5.44279   1
   8  10   0 100.329 4.63813   1
   8  10   1 139.948 4.47219   1
   8  10   2 125.822 4.26407   1
   8  10   3 52.6769 2.55048   1
   8  10   4 162.101 6.27538   1
   8  10   5 78.0559 3.07294   1
   8  10   6 299.244 12.7347   1
   8  10   7  28.347  2.0358   1
   8  10   8 310.255 12.4755   1
   8  10   9 27.9259 2.09831   1
   8  10  10  99.158 4.30528   1
   8  10  11 32.0814 2.25301   1
   8  10  12 48.6511 3.44409   1
   9   0   1 113.254 3.36688   1
   9   0   2 33.3267 1.91877   1
   9   0   3 239.997 6.94333   1
   9   0   4 27.8577 1.74851   1
   9   0   5 146.032 4.68922   1
   9   0   6 91.1608 3.34946   1
   9   0   7 41.3522 2.84969   1
   9   0   8 170.223 4.84273   1
   9   0   9 5.24325 1.71278   1
   9   0  10 249.977 7.52508   1
   9   0  11 2.57347 1.59119   1
   9   0  12 177.678 7.98387   1
   9   0  13  12.569 1.72961   1
   9   0  14  147.51 4.89228   1
   9   0  15 20.6487 2.35984   1
   9   0  16 328.929 9.76081   1
   9   0  17 5.79446 1.75215   1
   9   0  18 180.167 6.61492   1
   9   0  19 8.31649 2.10692   1
   9   0  20 111.223 4.81785   1
   9   0  21 63.9917 3.99631   1
   9   0  22 235.998 7.81149   1
   9   0  23 44.6561 2.83712   1
   9   0  24 176.269 8.33652   1
   9   0  25 5.66145 2.78394   1
   9   0  26 134.665 5.98174   1
   9   1 -26 59.6266 3.25027   1
   9   1 -25 22.5792 2.66098   1
   9   1 -24 101.581 4.07519   1
   9   1 -23 8.32104 2.55749   1
   9   1 -22 55.2467 4.36038   1
   9   1 -21 2.97251 1.91426   1
   9   1 -20 3.61671  2.0854   1
   9   1 -19 5.08878 1.85118   1
   9   1 -18 23.2269 2.12805   1
   9   1 -17 0.87163 1.80331   1
   9   1 -16 94.2956 5.82714   1
   9   1 -15 16.3673 2.02458   1
   9   1 -14  111.63 3.80923   1
   9   1 -13 69.1819 2.99022   1
   9   1 -12 59.6503 2.74755   1
   9   1 -11 133.301 4.12905   1
   9   1 -10 95.1885 3.18374   1
   9   1  -9 194.639 6.84223   1
   9   1  -8 103.367 3.62849   1
   9   1  -7 261.042 7.51667   1
   9   1  -6 84.8393 3.03386   1
   9   1  -5 320.179 7.74813   1
   9   1  -4 128.761 4.32096   1
   9   1  -3 302.782 7.50043   1
   9   1  -2 297.393 7.42342   1
   9   1  -1  212.54 5.41177   1
   9   1   0 442.844 11.9872   1
   9   1   1 202.965 5.96471   1
   9   1   2 288.889 7.62622   1
   9   1   3 299.647  8.1607   1
   9   1   4 127.113 4.39764   1
   9   1   5 320.965 10.2589   1
   9   1   6  75.893 3.22018   1
   9   1   7 257.578  8.4319   1
   9   1   8 99.9185 3.38495   1
   9   1   9 195.473 6.79108   1
   9   1  10 82.7938 3.32377   1
   9   1  11 128.905 3.95211   1
   9   1  12 59.5395 3.28594   1
   9   1  13 74.3941  3.2354   1
   9   1  14 123.152 4.94101   1
   9   1  15 19.9531 2.33118   1
   9   1  16 92.8493 3.71403   1
   9   1  17 1.60193 1.68351   1
   9   1  18 21.4279 2.07735   1
   9   1  19 5.25085 2.17812   1
   9   1  20 7.95283 2.31763   1
   9   1  21 3.58584 2.41276   1
   9   1  22 56.9395 3.20635   1
   9   1  23 2.94363 2.04833   1
   9   1  24 96.5926 4.05354   1
   9   1  25 16.6605 2.65292   1
   9   1  26 64.4232 5.11283   1
   9   2 -25 127.336  9.1527   1
   9   2 -24 21.6139 2.93034   1
   9   2 -23 150.169 6.36155   1
   9   2 -22 22.3227 3.04757   1
   9   2 -21 264.882 13.8671   1
   9   2 -20 24.2477 2.36557   1
   9   2 -19 252.452 7.99716   1
   9   2 -18 7.64067 1.91848   1
   9   2 -17 269.029 8.41796   1
   9   2 -16 37.6211 2.55551   1
   9   2 -15 100.905 3.47368   1
   9   2 -14 115.035 3.84358   1
   9   2 -13 67.8866 3.24178   1
   9   2 -12 188.007 5.84278   1
   9   2 -11 137.467 5.14961   1
   9   2 -10 142.024 5.91783   1
   9   2  -9 68.4135 2.57705   1
   9   2  -8 23.6276 1.56387   1
   9   2  -7 144.512 4.09702   1
   9   2  -6 74.9193 2.55362   1
   9   2  -5  175.18 4.69903   1
   9   2  -4 98.4773 3.21274   1
   9   2  -3 102.205 3.01524   1
   9   2  -2 211.458 6.71621   1
   9   2  -1 93.0053 3.12779   1
   9   2   0 202.388 5.55576   1
   9   2   1 93.8674  2.9544   1
   9   2   2 208.646 6.99117   1
   9   2   3 108.698  3.8345   1
   9   2   4 90.4576 2.69936   1
   9   2   5 167.517 6.35772   1
   9   2   6 61.5112 2.44841   1
   9   2   7 135.102 3.78609   1
   9   2   8 26.1964 1.76614   1
   9   2   9 62.6021 2.32742   1
   9   2  10 163.068 4.73971   1
   9   2  11 128.711 3.98984   1
   9   2  12 194.459  5.9653   1
   9   2  13 60.8672 2.64869   1
   9   2  14 114.858 4.58907   1
   9   2  15 104.992 5.26647   1
   9   2  16 36.2103 2.61335   1
   9   2  17 280.224 8.56895   1
   9   2  18 6.54075 1.84824   1
   9   2  19 249.754 7.83591   1
   9   2  20   19.29 2.10846   1
   9   2  21 241.593  7.0137   1
   9   2  22 18.9216 2.08033   1
   9   2  23 139.962 5.87407   1
   9   2  24 22.8994 2.35614   1
   9   2  25 125.713  7.4094   1
   9   3 -24  14.897 2.63852   1
   9   3 -23 9.00004 2.27227   1
   9   3 -22 4.66915 2.47213   1
   9   3 -21 42.1859 2.91529   1
   9   3 -20 13.2537 2.00333   1
   9   3 -19 104.558 6.91808   1
   9   3 -18 5.90006 2.14713   1
   9   3 -17 17.1813  2.3503   1
   9   3 -16 13.1726 2.10388   1
   9   3 -15  20.861 2.17415   1
   9   3 -14  10.939 1.74091   1
   9   3 -13 75.0879 3.03213   1
   9   3 -12 18.8937 1.86908   1
   9   3 -11 59.3773 2.73389   1
   9   3 -10 88.4772 3.11435   1
   9   3  -9 65.3919 2.48147   1
   9   3  -8 178.728  5.2181   1
   9   3  -7 134.094 3.89122   1
   9   3  -6 222.845 5.92835   1
   9   3  -5 201.707 5.52433   1
   9   3  -4 287.953 8.06446   1
   9   3  -3  103.09 3.41163   1
   9   3  -2 451.845 12.5507   1
   9   3  -1 26.5137 1.96429   1
   9   3   0 531.839  15.879   1
   9   3   1 23.6203 1.50071   1
   9   3   2 437.982 11.0482   1
   9   3   3  102.36 3.40067   1
   9   3   4 300.141 7.40227   1
   9   3   5 199.826 5.94702   1
   9   3   6 237.347 9.34433   1
   9   3   7  124.17 3.72629   1
   9   3   8 173.565 6.10359   1
   9   3   9 75.2029 2.65031   1
   9   3  10 87.0846 2.86026   1
   9   3  11 55.4965 2.03823   1
   9   3  12 16.9174 1.41879   1
   9   3  13 68.4945 3.22557   1
   9   3  14 11.0133 1.77642   1
   9   3  15 22.6826 1.94485   1
   9   3  16 14.4214 1.68718   1
   9   3  17  16.259 2.12553   1
   9   3  18 7.04636 1.97636   1
   9   3  19 97.2495 3.74649   1
   9   3  20 13.1201 2.14197   1
   9   3  21 42.5617 3.24136   1
   9   3  22 4.71307 2.20272   1
   9   3  23 9.38034 2.26908   1
   9   3  24 16.4554 2.71199   1
   9   4 -23  105.95  4.8894   1
   9   4 -22  36.006 2.63628   1
   9   4 -21  214.17 10.1878   1
   9   4 -20 5.74531 2.10262   1
   9   4 -19 178.595 7.34964   1
   9   4 -18 14.3359 2.18889   1
   9   4 -17 158.659 5.43235   1
   9   4 -16 67.9545  3.1053   1
   9   4 -15 146.067 7.59701   1
   9   4 -14 83.8286 3.43977   1
   9   4 -13 61.5995  2.7451   1
   9   4 -12 211.091  6.1835   1
   9   4 -11 68.4822 3.77478   1
   9   4 -10 262.923 8.23008   1
   9   4  -9  68.996 2.71696   1
   9   4  -8 118.985 4.15541   1
   9   4  -7 59.5685 3.49342   1
   9   4  -6 36.8493  2.0516   1
   9   4  -5 133.297  5.4099   1
   9   4  -4 17.5145  1.5298   1
   9   4  -3 240.719 7.04378   1
   9   4  -2  73.589  2.4813   1
   9   4  -1 189.778 6.12998   1
   9   4   0 99.5128 3.30454   1
   9   4   1 196.713 5.20794   1
   9   4   2 68.7896  2.6153   1
   9   4   3 226.711 6.73953   1
   9   4   4 19.1602 1.57756   1
   9   4   5 139.279 4.32556   1
   9   4   6 39.2164 2.07521   1
   9   4   7 68.4906 2.87729   1
   9   4   8 119.268  4.0429   1
   9   4   9 74.0437 2.60176   1
   9   4  10 242.865 7.64352   1
   9   4  11 70.9017 2.58254   1
   9   4  12 202.711 5.87503   1
   9   4  13 71.0216 3.04654   1
   9   4  14  89.144 2.95878   1
   9   4  15 140.655  4.6394   1
   9   4  16 67.6062 2.62148   1
   9   4  17 161.559 6.38939   1
   9   4  18 17.3673 1.72357   1
   9   4  19 172.117 5.93687   1
   9   4  20 8.71499 2.51432   1
   9   4  21 216.338 7.57964   1
   9   4  22 38.1528 2.79848   1
   9   4  23 102.812 8.38414   1
   9   5 -21 1.06073 2.18157   1
   9   5 -20 11.1915 2.47698   1
   9   5 -19 8.92093 2.18612   1
   9   5 -18 22.0225   2.461   1
   9   5 -17 2.38857 2.08341   1
   9   5 -16 72.8736 4.80954   1
   9   5 -15 6.67534 2.02712   1
   9   5 -14 54.3903 2.81837   1
   9   5 -13 52.0675 2.86733   1
   9   5 -12 53.1787 2.62208   1
   9   5 -11 79.8542 3.12033   1
   9   5 -10 128.338 4.92599   1
   9   5  -9 274.381 9.31981   1
   9   5  -8 51.2144 3.11367   1
   9   5  -7 326.382 9.65273   1
   9   5  -6 93.6949 3.41649   1
   9   5  -5 204.581 6.51231   1
   9   5  -4 91.7665 3.26999   1
   9   5  -3 242.728 6.85395   1
   9   5  -2 85.0472 3.06157   1
   9   5  -1 179.725 5.29711   1
   9   5   0 89.8443 3.28327   1
   9   5   1 170.358 4.85355   1
   9   5   2 87.8428 2.77729   1
   9   5   3 246.152 6.41914   1
   9   5   4 91.5116 2.91186   1
   9   5   5 215.087 7.94812   1
   9   5   6  98.784 3.55466   1
   9   5   7  320.13  9.0366   1
   9   5   8 58.9323 2.22495   1
   9   5   9 262.429 7.09735   1
   9   5  10 129.854 3.93602   1
   9   5  11 71.5478 2.65019   1
   9   5  12 50.1816 2.59793   1
   9   5  13  48.479 2.27919   1
   9   5  14 48.9103 3.11018   1
   9   5  15 7.33734 1.57541   1
   9   5  16 67.8146 2.76292   1
   9   5  17 1.58496 1.79188   1
   9   5  18 18.5003  1.9981   1
   9   5  19 7.13845   1.738   1
   9   5  20 10.7346 2.02991   1
   9   5  21 3.09647 2.24918   1
   9   6 -18 114.259 5.17497   1
   9   6 -17 14.2703  2.3366   1
   9   6 -16 146.265 5.49275   1
   9   6 -15 7.69554 2.29242   1
   9   6 -14 199.761 12.2411   1
   9   6 -13 16.4593 2.31536   1
   9   6 -12 150.463 6.22994   1
   9   6 -11 41.5192 2.57362   1
   9   6 -10 209.036 6.88557   1
   9   6  -9  153.18 5.06204   1
   9   6  -8 209.912 6.72019   1
   9   6  -7 55.1367 2.65888   1
   9   6  -6  105.16 4.34934   1
   9   6  -5 145.931 5.17266   1
   9   6  -4 100.081 4.20934   1
   9   6  -3 133.006 5.02435   1
   9   6  -2 122.051 3.93343   1
   9   6  -1 49.1103 2.01966   1
   9   6   0 136.766 3.99277   1
   9   6   1 51.4437 2.08555   1
   9   6   2 108.799 3.34281   1
   9   6   3 128.645 3.75247   1
   9   6   4 103.833  3.2254   1
   9   6   5  149.71 4.55431   1
   9   6   6 99.8032 3.51408   1
   9   6   7 51.2565 2.23471   1
   9   6   8 208.955 7.05331   1
   9   6   9 135.529 4.04179   1
   9   6  10  214.67 6.88986   1
   9   6  11 41.4844 2.81226   1
   9   6  12 173.151 5.42207   1
   9   6  13 15.6039 1.93506   1
   9   6  14 207.441  6.2091   1
   9   6  15 6.78089 1.68865   1
   9   6  16 149.949 4.91983   1
   9   6  17 14.2084 1.78057   1
   9   6  18 112.056 5.75088   1
   9   7 -15 0.81287 5.11807   1
   9   7 -14 49.8136 3.16754   1
   9   7 -13 42.8147 2.75116   1
   9   7 -12 67.2005  4.4198   1
   9   7 -11 128.009 4.83506   1
   9   7 -10 42.9274 3.16301   1
   9   7  -9 136.105  6.4876   1
   9   7  -8 30.4437 2.46665   1
   9   7  -7 144.155 6.51855   1
   9   7  -6 32.7437 2.41064   1
   9   7  -5 158.902 6.36012   1
   9   7  -4 149.381 4.89428   1
   9   7  -3 116.905 3.91764   1
   9   7  -2 273.286  9.0169   1
   9   7  -1 21.1362 1.95232   1
   9   7   0 195.785 5.78683   1
   9   7   1 15.7858 1.78317   1
   9   7   2 269.918 8.95462   1
   9   7   3 112.993 3.50331   1
   9   7   4 142.239 5.28836   1
   9   7   5 154.249 5.71823   1
   9   7   6 31.9688 2.15695   1
   9   7   7 151.065 6.66347   1
   9   7   8  30.618 2.29936   1
   9   7   9 132.217 4.31261   1
   9   7  10 42.8619 2.89713   1
   9   7  11 124.376  4.3078   1
   9   7  12  69.443 2.89406   1
   9   7  13 45.2973 2.78871   1
   9   7  14 59.3315  2.7476   1
   9   7  15 3.64094  2.3451   1
   9   8  -9 114.057 8.62917   1
   9   8  -8  47.646 3.36216   1
   9   8  -7 170.013 6.17784   1
   9   8  -6 107.063 4.31849   1
   9   8  -5 199.231  8.0302   1
   9   8  -4 151.512 6.71358   1
   9   8  -3 88.7439 3.46374   1
   9   8  -2 97.6129 4.36107   1
   9   8  -1  5.2065 2.11155   1
   9   8   0 164.098  7.5935   1
   9   8   1 6.06971 1.67473   1
   9   8   2 99.0628 3.63393   1
   9   8   3  83.649 3.25588   1
   9   8   4 130.282  4.3634   1
   9   8   5 203.667 7.94732   1
   9   8   6 107.273 4.95367   1
   9   8   7 171.271 5.45391   1
   9   8   8 51.1243 2.94459   1
   9   8   9 116.062 4.60025   1
  10   0   0 7.32487 3.06085   1
  10   0   1 2.59512 1.81897   1
  10   0   2 16.6972 2.02786   1
  10   0   3 18.8529  2.0749   1
  10   0   4  44.667 2.66189   1
  10   0   5 1.02168 1.99432   1
  10   0   6 95.0256 3.86454   1
  10   0   7 20.4936 3.84531   1
  10   0   8 170.756 11.4913   1
  10   0   9 74.0676 4.28373   1
  10   0  10 190.301    8.27   1
  10   0  11 232.872 11.2606   1
  10   0  12 86.8066 4.53355   1
  10   0  13 246.877  9.1517   1
  10   0  14 81.2046  6.1935   1
  10   0  15 303.867 17.0721   1
  10   1 -15  171.73 6.12114   1
  10   1 -14 58.3666 5.22252   1
  10   1 -13 118.711 6.84567   1
  10   1 -12 12.4053 3.00034   1
  10   1 -11 154.811 5.89352   1
  10   1 -10 89.3692 4.27342   1
  10   1  -9 149.378 5.73716   1
  10   1  -8 82.9481  5.0473   1
  10   1  -7 66.6843 3.04414   1
  10   1  -6 77.5308 4.07743   1
  10   1  -5 65.5541 3.35109   1
  10   1  -4 132.109 7.21684   1
  10   1  -3 23.0892 2.23229   1
  10   1  -2 103.445 4.91431   1
  10   1  -1  2.3328 1.72818   1
  10   1   0  88.665 3.50654   1
  10   1   1 3.30702 1.83755   1
  10   1   2 93.6686 4.00802   1
  10   1   3 20.6354 2.13835   1
  10   1   4 131.823 4.95823   1
  10   1   5 63.4868 3.57874   1
  10   1   6  70.605 3.99991   1
  10   1   7 61.5509 4.17355   1
  10   1   8 79.8929 4.70267   1
  10   1   9 141.999 8.40368   1
  10   1  10 105.042 4.51251   1
  10   1  11 164.752 14.9407   1
  10   1  12 13.2348 3.26348   1
  10   1  13 113.953 5.22996   1
  10   1  14 57.3118 5.50362   1
  10   1  15 146.337 13.4159   1
  10   2 -14 129.758 5.76582   1
  10   2 -13 104.957 4.22862   1
  10   2 -12 119.014 6.41352   1
  10   2 -11 86.0694 4.68737   1
  10   2 -10  145.48 6.77084   1
  10   2  -9 49.4187  2.8706   1
  10   2  -8 103.425 4.93553   1
  10   2  -7 72.3787 4.47396   1
  10   2  -6 29.7731 2.23441   1
  10   2  -5 44.3582  2.2809   1
  10   2  -4 18.3612 1.65275   1
  10   2  -3 37.8741 2.13946   1
  10   2  -2 0.54312 1.63519   1
  10   2  -1 64.2585 2.60885   1
  10   2   0  7.5176  1.4748   1
  10   2   1 67.3039 2.84297   1
  10   2   2 4.61721 1.69945   1
  10   2   3 34.2316 2.18371   1
  10   2   4 18.2078 2.17739   1
  10   2   5 43.8513 2.26266   1
  10   2   6 28.1729 2.04357   1
  10   2   7 77.0516 4.11982   1
  10   2   8  109.79 5.66336   1
  10   2   9 52.1092 3.16073   1
  10   2  10 148.673 7.88354   1
  10   2  11 91.6361 5.02296   1
  10   2  12 125.349 4.57209   1
  10   2  13  106.83 4.94108   1
  10   2  14 130.111 8.11799   1
  10   3 -12 102.024 6.06525   1
  10   3 -11 67.0518  3.2493   1
  10   3 -10 30.1024 2.50774   1
  10   3  -9 93.9866 5.59177   1
  10   3  -8 21.9407 2.42244   1
  10   3  -7  41.227 2.76631   1
  10   3  -6 9.40842 2.18436   1
  10   3  -5 69.9605 3.49847   1
  10   3  -4 2.48127 1.45039   1
  10   3  -3 149.592 4.78505   1
  10   3  -2 1.34169 1.52738   1
  10   3  -1 184.251 6.32698   1
  10   3   0 6.25488 1.75474   1
  10   3   1 183.002 5.35179   1
  10   3   2 1.95211 1.63883   1
  10   3   3 142.682 4.67908   1
  10   3   4 3.03119 1.74042   1
  10   3   5 71.7311 3.22685   1
  10   3   6 7.49494 1.69436   1
  10   3   7 46.9808 2.59815   1
  10   3   8 23.3676 2.16577   1
  10   3   9 99.6566 6.03822   1
  10   3  10 28.6505 2.56384   1
  10   3  11 72.8286 3.56772   1
  10   3  12 99.0995 7.91675   1
  10   4  -9 27.7378 2.81489   1
  10   4  -8 145.042 8.10724   1
  10   4  -7 35.4502  2.8749   1
  10   4  -6 96.6481 4.51253   1
  10   4  -5   17.75 2.32793   1
  10   4  -4  47.005 2.89761   1
  10   4  -3 81.3378 3.45737   1
  10   4  -2 4.34604  1.8132   1
  10   4  -1 83.7796 3.25156   1
  10   4   0 1.04097 1.95227   1
  10   4   1 90.2121  3.6384   1
  10   4   2  4.4729 1.67937   1
  10   4   3  85.627  3.6873   1
  10   4   4 39.9194  2.3856   1
  10   4   5 21.3967  2.0818   1
  10   4   6 102.581 3.78605   1
  10   4   7 34.8576 2.30303   1
  10   4   8 136.287  4.6344   1
  10   4   9 30.4693 2.31463   1
  10   5  -1 6.45971 4.64462   1
  10   5   0 80.1452  4.8932   1
  10   5   1-3.71133 4.52396   1
   0   0   0    0.00    0.00   1
;
loop_
_symmetry_equiv_pos_as_xyz
'x, y, z'
'-x+1/2, -y, z+1/2'
'x+1/2, -y+1/2, -z'
'-x, y+1/2, -z+1/2'
loop_
_atom_site_label
_atom_site_type_symbol
_atom_site_fract_x
_atom_site_fract_y
_atom_site_fract_z
_atom_site_U_iso_or_equiv
_atom_site_adp_type
_atom_site_occupancy
_atom_site_calc_flag
Ru1 Ru 0.18585(2) 0.65873(2) 0.73647(2) 0.00942(2) Uani 1 d
S1 S 0.31604(5) 0.50642(3) 0.68580(2) 0.01342(5) Uani 1 d
Cl1 Cl 0.24876(5) 0.83130(3) 0.68623(2) 0.01542(5) Uani 1 d
Cl2 Cl -0.15888(4) 0.64226(3) 0.70844(2) 0.01471(5) Uani 1 d
O1 O 0.08099(19) 0.57863(11) 0.55275(3) 0.0216(2) Uani 1 d
O2 O -0.22606(19) 0.74983(12) 0.54181(3) 0.0253(2) Uani 1 d
N1 N 0.09290(18) 0.61545(11) 0.62393(4) 0.01547(19) Uani 1 d
N2 N 0.3003(2) 0.44224(11) 0.60549(3) 0.0174(2) Uani 1 d
C1 C 0.23289(19) 0.52180(12) 0.63525(4) 0.01307(19) Uani 1 d
C2 C 0.0134(2) 0.63404(12) 0.58404(4) 0.0157(2) Uani 1 d
C3 C -0.1619(2) 0.72228(13) 0.58183(4) 0.0178(2) Uani 1 d
C4 C -0.2909(3) 0.77791(16) 0.61037(5) 0.0239(3) Uani 1 d
H4 H -0.2802 0.7732 0.6401 0.030(6) Uiso 1 calc
C5 C -0.4443(3) 0.84428(19) 0.58696(5) 0.0286(3) Uani 1 d
H5 H -0.5567 0.8927 0.5978 0.034(6) Uiso 1 calc
C6 C -0.3978(3) 0.82440(19) 0.54585(5) 0.0291(3) Uani 1 d
H6 H -0.475 0.8581 0.523 0.045(7) Uiso 1 calc
C7 C 0.4338(2) 0.32802(14) 0.61187(4) 0.0178(2) Uani 1 d
H7 H 0.4178 0.2987 0.6416 0.019(5) Uiso 1 calc
C8 C 0.6582(2) 0.36508(18) 0.60508(6) 0.0281(3) Uani 1 d
H8A H 0.6988 0.4304 0.6259 0.040(7) Uiso 1 calc
H8B H 0.6753 0.4009 0.5768 0.039(7) Uiso 1 calc
H8C H 0.7449 0.2877 0.6082 0.037(7) Uiso 1 calc
C10 C 0.4406(2) 0.71613(14) 0.77661(4) 0.0157(2) Uani 1 d
H10 H 0.5683 0.755 0.7694 0.023(5) Uiso 1 calc
C11 C 0.2671(2) 0.79543(12) 0.78628(4) 0.0148(2) Uani 1 d
H11 H 0.2802 0.8874 0.7859 0.028(6) Uiso 1 calc
C12 C 0.0770(2) 0.73886(13) 0.79642(4) 0.0157(2) Uani 1 d
H12 H -0.0379 0.7921 0.803 0.026(5) Uiso 1 calc
C13 C 0.0581(2) 0.60019(14) 0.79671(4) 0.0180(2) Uani 1 d
H13 H -0.0713 0.5615 0.8026 0.027(6) Uiso 1 calc
C14 C 0.2298(2) 0.52049(13) 0.78826(4) 0.0185(2) Uani 1 d
H14 H 0.2178 0.4285 0.7895 0.022(5) Uiso 1 calc
C15 C 0.4214(2) 0.57953(14) 0.77780(4) 0.0176(2) Uani 1 d
H15 H 0.537 0.5265 0.7716 0.020(5) Uiso 1 calc
C111 C 0.3498(2) 0.22165(13) 0.58339(4) 0.0183(2) Uani 1 d
C112 C 0.1770(3) 0.15244(17) 0.59623(5) 0.0286(3) Uani 1 d
H112 H 0.1199 0.1689 0.6232 0.047(7) Uiso 1 calc
C113 C 0.0860(3) 0.05960(19) 0.57039(8) 0.0384(4) Uani 1 d
H113 H -0.032 0.0133 0.5797 0.039(7) Uiso 1 calc
C114 C 0.1688(4) 0.03525(18) 0.53104(7) 0.0382(5) Uani 1 d
H114 H 0.1078 -0.0278 0.5131 0.054(8) Uiso 1 calc
C115 C 0.3396(4) 0.10290(18) 0.51806(6) 0.0343(4) Uani 1 d
H115 H 0.3963 0.0859 0.4911 0.048(8) Uiso 1 calc
C116 C 0.4309(3) 0.19597(16) 0.54377(5) 0.0259(3) Uani 1 d
H116 H 0.5488 0.242 0.5343 0.040(7) Uiso 1 calc
H2A H 0.259(4) 0.463(2) 0.5804(8) 0.033(6) Uiso 1 d
H1A H 0.044(3) 0.665(2) 0.6448(7) 0.025(5) Uiso 1 d
loop_
_atom_site_aniso_label
_atom_site_aniso_U_11
_atom_site_aniso_U_22
_atom_site_aniso_U_33
_atom_site_aniso_U_23
_atom_site_aniso_U_13
_atom_site_aniso_U_12
Ru1 0.01007(3) 0.00879(3) 0.00940(4) -0.00047(3) -0.00021(3) 0.00011(3)
S1 0.01642(11) 0.01322(11) 0.01062(11) -0.00200(9) -0.00246(11) 0.00472(11)
Cl1 0.02142(12) 0.01121(11) 0.01364(11) 0.00083(10) 0.00058(9) -0.00302(10)
Cl2 0.01064(10) 0.01919(12) 0.01430(11) 0.00192(9) -0.00085(8) -0.00103(9)
O1 0.0282(5) 0.0245(5) 0.0120(4) -0.0018(4) -0.0021(4) 0.0093(4)
O2 0.0314(6) 0.0323(6) 0.0121(4) 0.0013(4) -0.0043(4) 0.0155(5)
N1 0.0209(5) 0.0144(4) 0.0111(4) -0.0022(4) -0.0033(4) 0.0054(4)
N2 0.0240(5) 0.0172(4) 0.0110(4) -0.0019(4) -0.0013(4) 0.0072(4)
C1 0.0150(5) 0.0125(4) 0.0117(5) -0.0013(4) -0.0014(4) 0.0011(4)
C2 0.0204(5) 0.0146(5) 0.0121(5) 0.0003(4) -0.0027(4) 0.0022(4)
C3 0.0235(6) 0.0183(5) 0.0117(5) 0.0008(4) -0.0041(4) 0.0063(5)
C4 0.0308(7) 0.0270(7) 0.0139(5) 0.0012(5) -0.0025(5) 0.0133(6)
C5 0.0322(7) 0.0353(8) 0.0183(6) 0.0014(6) -0.0015(5) 0.0188(7)
C6 0.0330(7) 0.0373(9) 0.0170(6) 0.0024(6) -0.0049(5) 0.0183(7)
C7 0.0213(5) 0.0183(5) 0.0137(5) -0.0020(4) -0.0009(4) 0.0080(5)
C8 0.0215(6) 0.0355(8) 0.0272(7) -0.0051(6) -0.0008(5) 0.0055(6)
C10 0.0134(5) 0.0204(5) 0.0135(5) -0.0032(4) -0.0021(4) -0.0006(4)
C11 0.0186(5) 0.0127(5) 0.0131(5) -0.0026(4) -0.0013(4) -0.0003(4)
C12 0.0163(5) 0.0193(5) 0.0116(5) -0.0023(4) 0.0013(4) 0.0028(4)
C13 0.0204(6) 0.0210(6) 0.0128(5) 0.0006(4) 0.0016(4) -0.0060(5)
C14 0.0296(7) 0.0125(5) 0.0132(5) 0.0013(4) -0.0031(5) -0.0002(4)
C15 0.0213(6) 0.0189(5) 0.0126(5) -0.0019(4) -0.0042(4) 0.0080(5)
C111 0.0238(6) 0.0165(5) 0.0146(5) -0.0025(4) -0.0006(4) 0.0075(4)
C112 0.0306(7) 0.0266(7) 0.0284(7) -0.0042(6) 0.0037(6) 0.0003(7)
C113 0.0389(10) 0.0271(8) 0.0492(12) -0.0057(8) -0.0070(9) -0.0026(7)
C114 0.0514(11) 0.0239(7) 0.0395(10) -0.0117(7) -0.0202(9) 0.0106(8)
C115 0.0511(11) 0.0321(8) 0.0196(7) -0.0107(6) -0.0076(7) 0.0162(8)
C116 0.0368(8) 0.0259(7) 0.0151(6) -0.0035(5) 0.0024(5) 0.0084(6)
loop_
_atom_type_symbol
_atom_type_description
_atom_type_scat_dispersion_real
_atom_type_scat_dispersion_imag
_atom_type_scat_source
Ru Ru -1.2594 0.8363 'International Tables Vol C Tables 4.2.6.8 and 6.1.1.4'
S S 0.1246 0.1234 'International Tables Vol C Tables 4.2.6.8 and 6.1.1.4'
Cl Cl 0.1484 0.1585 'International Tables Vol C Tables 4.2.6.8 and 6.1.1.4'
O O 0.0106 0.006 'International Tables Vol C Tables 4.2.6.8 and 6.1.1.4'
N N 0.0061 0.0033 'International Tables Vol C Tables 4.2.6.8 and 6.1.1.4'
C C 0.0033 0.0016 'International Tables Vol C Tables 4.2.6.8 and 6.1.1.4'
H H 0 0 'International Tables Vol C Tables 4.2.6.8 and 6.1.1.4'
loop_
_exptl_crystal_face_index_h
_exptl_crystal_face_index_k
_exptl_crystal_face_index_l
_exptl_crystal_face_perp_dist
0 0 1 0.098
0 0 -1 0.08
0 -1 -2 0.236
0 1 -2 0.23
0 3 4 0.31
0 -4 5 0.286
1 0 0 0.254
-1 0 0 0.259
-1 0 -10 0.149
loop_
_geom_angle_atom_site_label_1
_geom_angle_atom_site_label_2
_geom_angle_atom_site_label_3
_geom_angle
C10 Ru1 C13 81.26(5)
C10 Ru1 C15 37.85(5)
C13 Ru1 C15 68.43(6)
C10 Ru1 C11 38.20(5)
C13 Ru1 C11 68.32(5)
C15 Ru1 C11 68.42(5)
C10 Ru1 C12 68.46(5)
C13 Ru1 C12 38.25(5)
C15 Ru1 C12 80.92(5)
C11 Ru1 C12 37.38(5)
C10 Ru1 C14 68.62(5)
C13 Ru1 C14 37.66(6)
C15 Ru1 C14 38.05(6)
C11 Ru1 C14 80.82(5)
C12 Ru1 C14 68.45(5)
C10 Ru1 S1 107.65(4)
C13 Ru1 S1 123.08(4)
C15 Ru1 S1 85.05(4)
C11 Ru1 S1 145.28(4)
C12 Ru1 S1 160.34(4)
C14 Ru1 S1 92.05(4)
C10 Ru1 Cl2 160.42(4)
C13 Ru1 Cl2 87.24(4)
C15 Ru1 Cl2 148.07(4)
C11 Ru1 Cl2 122.48(4)
C12 Ru1 Cl2 92.76(4)
C14 Ru1 Cl2 110.62(4)
S1 Ru1 Cl2 91.906(11)
C10 Ru1 Cl1 93.45(4)
C13 Ru1 Cl1 148.10(4)
C15 Ru1 Cl1 123.63(4)
C11 Ru1 Cl1 88.08(4)
C12 Ru1 Cl1 110.66(4)
C14 Ru1 Cl1 161.37(4)
S1 Ru1 Cl1 88.582(11)
Cl2 Ru1 Cl1 87.957(11)
C1 S1 Ru1 117.47(4)
C6 O2 C3 106.18(11)
C1 N1 C2 125.80(11)
C1 N1 H1A 116.0(14)
C2 N1 H1A 118.1(14)
C1 N2 C7 125.99(11)
C1 N2 H2A 113.6(16)
C7 N2 H2A 120.4(16)
N2 C1 N1 117.67(11)
N2 C1 S1 120.80(10)
N1 C1 S1 121.53(9)
O1 C2 N1 123.10(12)
O1 C2 C3 121.92(12)
N1 C2 C3 114.96(11)
C4 C3 O2 110.23(12)
C4 C3 C2 135.24(12)
O2 C3 C2 114.30(11)
C3 C4 C5 106.53(13)
C3 C4 H4 126.7
C5 C4 H4 126.7
C6 C5 C4 106.06(14)
C6 C5 H5 127
C4 C5 H5 127
C5 C6 O2 111.00(13)
C5 C6 H6 124.5
O2 C6 H6 124.5
N2 C7 C111 106.20(11)
N2 C7 C8 110.19(13)
C111 C7 C8 116.05(12)
N2 C7 H7 108
C111 C7 H7 108
C8 C7 H7 108
C7 C8 H8A 109.5
C7 C8 H8B 109.5
H8A C8 H8B 109.5
C7 C8 H8C 109.5
H8A C8 H8C 109.5
H8B C8 H8C 109.5
C15 C10 C11 119.59(13)
C15 C10 Ru1 71.20(8)
C11 C10 Ru1 71.29(7)
C15 C10 H10 120.2
C11 C10 H10 120.2
Ru1 C10 H10 129.7
C12 C11 C10 120.61(12)
C12 C11 Ru1 71.76(7)
C10 C11 Ru1 70.51(7)
C12 C11 H11 119.7
C10 C11 H11 119.7
Ru1 C11 H11 130.7
C11 C12 C13 119.34(13)
C11 C12 Ru1 70.86(7)
C13 C12 Ru1 70.07(8)
C11 C12 H12 120.3
C13 C12 H12 120.3
Ru1 C12 H12 131.5
C14 C13 C12 120.66(13)
C14 C13 Ru1 71.99(8)
C12 C13 Ru1 71.68(8)
C14 C13 H13 119.7
C12 C13 H13 119.7
Ru1 C13 H13 129
C13 C14 C15 119.24(12)
C13 C14 Ru1 70.35(8)
C15 C14 Ru1 70.27(7)
C13 C14 H14 120.4
C15 C14 H14 120.4
Ru1 C14 H14 131.8
C10 C15 C14 120.52(13)
C10 C15 Ru1 70.95(8)
C14 C15 Ru1 71.68(8)
C10 C15 H15 119.7
C14 C15 H15 119.7
Ru1 C15 H15 130.2
C112 C111 C116 118.35(14)
C112 C111 C7 118.87(13)
C116 C111 C7 122.65(14)
C111 C112 C113 121.37(17)
C111 C112 H112 119.3
C113 C112 H112 119.3
C114 C113 C112 119.5(2)
C114 C113 H113 120.2
C112 C113 H113 120.2
C115 C114 C113 119.61(17)
C115 C114 H114 120.2
C113 C114 H114 120.2
C114 C115 C116 121.07(17)
C114 C115 H115 119.5
C116 C115 H115 119.5
C115 C116 C111 120.08(18)
C115 C116 H116 120
C111 C116 H116 120
loop_
_geom_bond_atom_site_label_1
_geom_bond_atom_site_label_2
_geom_bond_distance
Ru1 C10 2.1738(13)
Ru1 C13 2.1744(14)
Ru1 C15 2.1771(14)
Ru1 C11 2.1840(13)
Ru1 C12 2.1957(13)
Ru1 C14 2.1957(13)
Ru1 S1 2.4027(3)
Ru1 Cl2 2.4188(3)
Ru1 Cl1 2.4240(3)
S1 C1 1.7048(12)
O1 C2 1.2289(17)
O2 C6 1.3612(19)
O2 C3 1.3699(16)
N1 C1 1.3735(16)
N1 C2 1.3840(17)
N1 H1A 0.89(2)
N2 C1 1.3263(16)
N2 C7 1.4752(17)
N2 H2A 0.87(2)
C2 C3 1.4593(18)
C3 C4 1.362(2)
C4 C5 1.420(2)
C4 H4 0.95
C5 C6 1.358(2)
C5 H5 0.95
C6 H6 0.95
C7 C111 1.522(2)
C7 C8 1.524(2)
C7 H7 1
C8 H8A 0.98
C8 H8B 0.98
C8 H8C 0.98
C10 C15 1.411(2)
C10 C11 1.4259(19)
C10 H10 0.95
C11 C12 1.4036(19)
C11 H11 0.95
C12 C13 1.4318(19)
C12 H12 0.95
C13 C14 1.411(2)
C13 H13 0.95
C14 C15 1.426(2)
C14 H14 0.95
C15 H15 0.95
C111 C112 1.392(2)
C111 C116 1.393(2)
C112 C113 1.392(3)
C112 H112 0.95
C113 C114 1.386(3)
C113 H113 0.95
C114 C115 1.374(3)
C114 H114 0.95
C115 C116 1.392(3)
C115 H115 0.95
C116 H116 0.95
loop_
_geom_torsion_atom_site_label_1
_geom_torsion_atom_site_label_2
_geom_torsion_atom_site_label_3
_geom_torsion_atom_site_label_4
_geom_torsion
C7 N2 C1 N1 -173.58(13)
C7 N2 C1 S1 5.7(2)
C2 N1 C1 N2 0.6(2)
C2 N1 C1 S1 -178.72(11)
Ru1 S1 C1 N2 179.13(10)
Ru1 S1 C1 N1 -1.59(13)
C1 N1 C2 O1 -10.0(2)
C1 N1 C2 C3 168.31(13)
C6 O2 C3 C4 0.20(19)
C6 O2 C3 C2 175.55(14)
O1 C2 C3 C4 166.04(18)
N1 C2 C3 C4 -12.3(3)
O1 C2 C3 O2 -7.8(2)
N1 C2 C3 O2 173.86(13)
O2 C3 C4 C5 -0.1(2)
C2 C3 C4 C5 -174.08(17)
C3 C4 C5 C6 0.0(2)
C4 C5 C6 O2 0.2(2)
C3 O2 C6 C5 -0.2(2)
C1 N2 C7 C111 138.98(14)
C1 N2 C7 C8 -94.57(17)
C15 C10 C11 C12 -0.8(2)
Ru1 C10 C11 C12 53.47(11)
C15 C10 C11 Ru1 -54.30(12)
C10 C11 C12 C13 -0.4(2)
Ru1 C11 C12 C13 52.49(12)
C10 C11 C12 Ru1 -52.90(11)
C11 C12 C13 C14 2.1(2)
Ru1 C12 C13 C14 54.91(12)
C11 C12 C13 Ru1 -52.85(12)
C12 C13 C14 C15 -2.4(2)
Ru1 C13 C14 C15 52.36(12)
C12 C13 C14 Ru1 -54.76(12)
C11 C10 C15 C14 0.5(2)
Ru1 C10 C15 C14 -53.87(12)
C11 C10 C15 Ru1 54.34(12)
C13 C14 C15 C10 1.1(2)
Ru1 C14 C15 C10 53.53(12)
C13 C14 C15 Ru1 -52.40(12)
N2 C7 C111 C112 -78.87(16)
C8 C7 C111 C112 158.30(14)
N2 C7 C111 C116 97.04(15)
C8 C7 C111 C116 -25.8(2)
C116 C111 C112 C113 0.0(2)
C7 C111 C112 C113 176.06(16)
C111 C112 C113 C114 0.0(3)
C112 C113 C114 C115 0.1(3)
C113 C114 C115 C116 -0.2(3)
C114 C115 C116 C111 0.2(3)
C112 C111 C116 C115 -0.1(2)
C7 C111 C116 C115 -176.00(14)
