#------------------------------------------------------------------------------
#$Date: 2015-07-05 14:13:24 +0300 (Sun, 05 Jul 2015) $
#$Revision: 140267 $
#$URL: svn://www.crystallography.net/cod/cif/1/52/05/1520515.cif $
#------------------------------------------------------------------------------
#
# This file is available in the Crystallography Open Database (COD),
# http://www.crystallography.net/
#
# All data on this site have been placed in the public domain by the
# contributors.
#
data_1520515
loop_
_publ_author_name
'Chang, Meng-Yang'
'Cheng, Yu-Chieh'
'Lu, Yi-Ju'
_publ_section_title
;
 Synthesis of Substituted Benzenes via Bi(OTf)3-Mediated Intramolecular
 Carbonyl Allylation of \a-Prenyl or \a-Geranyl \b-Arylketosulfones.
;
_journal_issue                   12
_journal_name_full               'Organic letters'
_journal_page_first              3142
_journal_page_last               3145
_journal_paper_doi               10.1021/acs.orglett.5b01461
_journal_volume                  17
_journal_year                    2015
_chemical_formula_sum            'C25 H29 N O5 S'
_chemical_formula_weight         455.55
_space_group_crystal_system      orthorhombic
_space_group_IT_number           43
_space_group_name_Hall           'F 2 -2d'
_space_group_name_H-M_alt        'F d d 2'
_symmetry_space_group_name_Hall  'F 2 -2d'
_symmetry_space_group_name_H-M   'F d d 2'
_atom_sites_solution_hydrogens   geom
_audit_creation_method           SHELXL-2014/6
_cell_angle_alpha                90
_cell_angle_beta                 90
_cell_angle_gamma                90
_cell_formula_units_Z            16
_cell_length_a                   22.419(8)
_cell_length_b                   52.094(18)
_cell_length_c                   7.523(3)
_cell_measurement_reflns_used    5138
_cell_measurement_temperature    100(2)
_cell_measurement_theta_max      26.3313
_cell_measurement_theta_min      2.8823
_cell_volume                     8786(6)
_computing_cell_refinement       'SAINT V8.34A (Bruker AXS Inc., 2013)'
_computing_data_collection       'APEX2 (Bruker AXS, 2010)'
_computing_data_reduction        'SAINT V8.34A (Bruker AXS Inc., 2013)'
_computing_molecular_graphics    'SHELXTL (Sheldrick, 2008)'
_computing_publication_material  SHELXTL
_computing_structure_refinement  'SHELXL-2014/6 (Sheldrick, 2014)'
_diffrn_ambient_temperature      100(2)
_diffrn_detector_area_resol_mean 8.3333
_diffrn_measured_fraction_theta_full 0.979
_diffrn_measured_fraction_theta_max 0.974
_diffrn_measurement_device_type  'Bruker APEX-II CCD'
_diffrn_measurement_method       '\f and \w scans'
_diffrn_radiation_type           MoK\a
_diffrn_radiation_wavelength     0.71073
_diffrn_reflns_av_R_equivalents  0.0881
_diffrn_reflns_av_unetI/netI     0.0853
_diffrn_reflns_laue_measured_fraction_full 0.979
_diffrn_reflns_laue_measured_fraction_max 0.974
_diffrn_reflns_limit_h_max       28
_diffrn_reflns_limit_h_min       -28
_diffrn_reflns_limit_k_max       66
_diffrn_reflns_limit_k_min       -63
_diffrn_reflns_limit_l_max       9
_diffrn_reflns_limit_l_min       -9
_diffrn_reflns_number            21321
_diffrn_reflns_point_group_measured_fraction_full 0.937
_diffrn_reflns_point_group_measured_fraction_max 0.929
_diffrn_reflns_theta_full        25.242
_diffrn_reflns_theta_max         26.859
_diffrn_reflns_theta_min         1.564
_exptl_absorpt_coefficient_mu    0.186
_exptl_absorpt_correction_T_max  0.9485
_exptl_absorpt_correction_T_min  0.7326
_exptl_absorpt_correction_type   multi-scan
_exptl_absorpt_process_details   'SADABS V2014/4 (Bruker AXS Inc.)'
_exptl_crystal_colour            Colorless
_exptl_crystal_density_diffrn    1.378
_exptl_crystal_density_meas      ?
_exptl_crystal_density_method    'not measured'
_exptl_crystal_description       Tabullar
_exptl_crystal_F_000             3872
_exptl_crystal_size_max          0.15
_exptl_crystal_size_mid          0.12
_exptl_crystal_size_min          0.05
_refine_diff_density_max         0.419
_refine_diff_density_min         -0.569
_refine_diff_density_rms         0.079
_refine_ls_abs_structure_details
;
 Flack x determined using 1244 quotients [(I+)-(I-)]/[(I+)+(I-)]
 (Parsons, Flack and Wagner, Acta Cryst. B69 (2013) 249-259).
;
_refine_ls_abs_structure_Flack   0.12(5)
_refine_ls_extinction_method     none
_refine_ls_goodness_of_fit_ref   1.099
_refine_ls_hydrogen_treatment    constr
_refine_ls_matrix_type           full
_refine_ls_number_parameters     292
_refine_ls_number_reflns         4396
_refine_ls_number_restraints     1
_refine_ls_restrained_S_all      1.098
_refine_ls_R_factor_all          0.0948
_refine_ls_R_factor_gt           0.0663
_refine_ls_shift/su_max          0.000
_refine_ls_shift/su_mean         0.000
_refine_ls_structure_factor_coef Fsqd
_refine_ls_weighting_details
'w=1/[\s^2^(Fo^2^)+(0.0333P)^2^+61.8427P] where P=(Fo^2^+2Fc^2^)/3'
_refine_ls_weighting_scheme      calc
_refine_ls_wR_factor_gt          0.1327
_refine_ls_wR_factor_ref         0.1413
_reflns_Friedel_coverage         0.768
_reflns_friedel_fraction_full    0.888
_reflns_friedel_fraction_max     0.876
_reflns_number_gt                3494
_reflns_number_total             4396
_reflns_threshold_expression     'I > 2\s(I)'
_cod_data_source_file            ol5b01461_si_004.cif
_cod_data_source_block           mo_150413lt_0m_a
_cod_depositor_comments
;
The following automatic conversions were performed:

'_exptl_crystal_density_meas' value 'not measured' was changed to '?'
- the value is perceived as not measured.

Automatic conversion script
Id: cif_fix_values 3271 2015-04-21 07:52:19Z andrius 

 Adding full bibliography for 1520513--1520517.cif.
;
_cod_database_code               1520515
_shelx_space_group_comment
;
The symmetry employed for this shelxl refinement is uniquely defined
by the following loop, which should always be used as a source of
symmetry information in preference to the above space-group names.
They are only intended as comments.
;
_shelxl_version_number           2014/6
_shelx_res_file
;
TITL mo_150413lt_0m_a.res in Cc  New: Fdd2
CELL  0.71073   22.4190   52.0940    7.5230    90.000    90.000    90.000
ZERR 16           0.0080    0.0180    0.0030     0.000     0.000     0.000
LATT -4
SYMM             - X ,            - Y ,              Z
SYMM     0.25000 - X ,    0.25000 + Y ,    0.25000 + Z
SYMM     0.75000 + X ,    0.75000 - Y ,    0.25000 + Z
SFAC C  H  O  S  N
UNIT 400  464  80  16  16
L.S. 4
ACTA
BOND $H
FMAP 2
PLAN 5
TEMP    -173
WGHT    0.033300   61.842701
FVAR       0.10356
C1    1    0.056878    0.161456    0.311631    11.00000    0.00343    0.02888 =
         0.02099   -0.00024   -0.00099   -0.00097
C2    1    0.009037    0.176228    0.204218    11.00000    0.01925    0.02605 =
         0.01913    0.00320    0.00600   -0.00052
AFIX  23
H2A   2    0.009039    0.170928    0.077843    11.00000   -1.20000
H2B   2   -0.031279    0.173548    0.254599    11.00000   -1.20000
AFIX   0
C3    1    0.029203    0.204387    0.225053    11.00000    0.02015    0.02242 =
         0.02397   -0.00205   -0.00035    0.00354
AFIX  13
H3    2   -0.004623    0.215610    0.263369    11.00000   -1.20000
AFIX   0
C4    1    0.057178    0.214093    0.054082    11.00000    0.03286    0.03381 =
         0.01778    0.00335    0.00416    0.00036
AFIX  23
H4A   2    0.082725    0.200459    0.003008    11.00000   -1.20000
H4B   2    0.025267    0.217954   -0.032863    11.00000   -1.20000
AFIX   0
C5    1    0.094405    0.238021    0.084113    11.00000    0.06098    0.02547 =
         0.03490    0.00365    0.00544   -0.01148
AFIX  23
H5A   2    0.112353    0.243648   -0.029635    11.00000   -1.20000
H5B   2    0.068746    0.252059    0.129078    11.00000   -1.20000
AFIX   0
C6    1    0.143099    0.232311    0.217437    11.00000    0.03182    0.02895 =
         0.03781   -0.00402    0.01286   -0.00965
AFIX  23
H6A   2    0.167564    0.247941    0.234410    11.00000   -1.20000
H6B   2    0.169379    0.218764    0.168602    11.00000   -1.20000
AFIX   0
C7    1    0.119406    0.223549    0.397909    11.00000    0.02696    0.02094 =
         0.02833   -0.00168    0.00064   -0.00203
C8    1    0.075922    0.201302    0.375342    11.00000    0.02164    0.01962 =
         0.02364   -0.00133    0.00211    0.00223
C9    1    0.044274    0.191852    0.544466    11.00000    0.02381    0.02451 =
         0.02001   -0.00037    0.00840    0.00509
AFIX  23
H9A   2    0.069448    0.194519    0.650994    11.00000   -1.20000
H9B   2    0.005648    0.200725    0.561592    11.00000   -1.20000
AFIX   0
C10   1    0.035149    0.163208    0.506970    11.00000    0.00569    0.02927 =
         0.01864    0.00059    0.00512    0.00267
AFIX  13
H10   2   -0.008228    0.158848    0.513892    11.00000   -1.20000
AFIX   0
C11   1    0.086092    0.245463    0.489843    11.00000    0.03441    0.02577 =
         0.03431   -0.00682    0.01015    0.00135
AFIX 137
H11A  2    0.112547    0.260355    0.500789    11.00000   -1.50000
H11B  2    0.073369    0.239910    0.608391    11.00000   -1.50000
H11C  2    0.051015    0.250164    0.419254    11.00000   -1.50000
AFIX   0
C12   1    0.172229    0.215746    0.513908    11.00000    0.02946    0.03192 =
         0.05054   -0.00596   -0.01133   -0.00515
AFIX 137
H12A  2    0.192595    0.201031    0.460026    11.00000   -1.50000
H12B  2    0.157904    0.211030    0.632569    11.00000   -1.50000
H12C  2    0.200109    0.230168    0.523615    11.00000   -1.50000
AFIX   0
C13   1    0.071426    0.135515    0.244085    11.00000    0.01752    0.03032 =
         0.00836    0.00161   -0.00116    0.00104
C14   1    0.130113    0.128877    0.207689    11.00000    0.01570    0.02738 =
         0.01546    0.00163   -0.00063   -0.00051
AFIX  43
H14   2    0.161020    0.141055    0.226446    11.00000   -1.20000
AFIX   0
C15   1    0.143994    0.104667    0.144302    11.00000    0.01311    0.02680 =
         0.02415    0.00136    0.00027    0.00291
AFIX  43
H15   2    0.184148    0.099951    0.120624    11.00000   -1.20000
AFIX   0
C16   1    0.097704    0.087471    0.116264    11.00000    0.02312    0.02044 =
         0.01913    0.00089   -0.00130    0.00298
C17   1    0.038801    0.093821    0.154386    11.00000    0.02086    0.02776 =
         0.01968    0.00382    0.00007   -0.00302
AFIX  43
H17   2    0.007769    0.081616    0.138539    11.00000   -1.20000
AFIX   0
C18   1    0.026567    0.117802    0.214661    11.00000    0.01268    0.03137 =
         0.01950    0.00282   -0.00369   -0.00266
AFIX  43
H18   2   -0.013665    0.122519    0.237117    11.00000   -1.20000
AFIX   0
C19   1    0.024418    0.031845    0.627382    11.00000    0.03463    0.02720 =
         0.03176    0.00142   -0.00767   -0.00049
AFIX 137
H19A  2   -0.018589    0.028573    0.632912    11.00000   -1.50000
H19B  2    0.043883    0.024177    0.731232    11.00000   -1.50000
H19C  2    0.040784    0.024230    0.518708    11.00000   -1.50000
AFIX   0
C20   1    0.059019    0.112452    0.639043    11.00000    0.01681    0.02911 =
         0.01057    0.00330   -0.00393    0.00061
C21   1    0.104942    0.095368    0.610495    11.00000    0.01201    0.03034 =
         0.02494    0.00242    0.00289    0.00307
AFIX  43
H21   2    0.144576    0.101408    0.594800    11.00000   -1.20000
AFIX   0
C22   1    0.092907    0.069508    0.604922    11.00000    0.01534    0.02954 =
         0.03552    0.00496    0.00322    0.00450
AFIX  43
H22   2    0.124758    0.057795    0.585962    11.00000   -1.20000
AFIX   0
C23   1    0.035311    0.060016    0.626307    11.00000    0.02275    0.03235 =
         0.01948    0.00253   -0.00347    0.00000
C24   1   -0.010104    0.077664    0.653020    11.00000    0.01632    0.04110 =
         0.01602    0.00464    0.00181   -0.00108
AFIX  43
H24   2   -0.049840    0.071642    0.666623    11.00000   -1.20000
AFIX   0
C25   1    0.000619    0.103496    0.660367    11.00000    0.01867    0.03151 =
         0.01873    0.00093   -0.00019    0.00493
AFIX  43
H25   2   -0.031202    0.115211    0.679711    11.00000   -1.20000
AFIX   0
N1    5    0.111949    0.061999    0.052239    11.00000    0.03138    0.02945 =
         0.02961   -0.00249    0.00249    0.00126
O1    3    0.106749    0.178347    0.312681    11.00000    0.01508    0.01847 =
         0.02091   -0.00163    0.00038    0.00015
O2    3    0.138637    0.148018    0.639705    11.00000    0.02247    0.03640 =
         0.02954    0.00269   -0.00883   -0.00355
O3    3    0.051454    0.152499    0.836322    11.00000    0.04667    0.03185 =
         0.01564   -0.00076    0.00150    0.00045
O4    3    0.071480    0.046231    0.045952    11.00000    0.03592    0.02784 =
         0.05529   -0.00741   -0.00493   -0.00050
O5    3    0.162885    0.057218    0.007521    11.00000    0.03085    0.03403 =
         0.05473   -0.00862    0.00985    0.00755
S1    4    0.076029    0.144944    0.668019    11.00000    0.02162    0.02924 =
         0.01620    0.00053   -0.00251   -0.00063
HKLF 4 1  0.0000 -1.0000  0.0000  1.0000  0.0000  2.0000 -1.0000  0.0000  0.0000

REM  mo_150413lt_0m_a.res in Cc  New: Fdd2
REM R1 =  0.0663 for    3494 Fo > 4sig(Fo)  and  0.0948 for all    4396 data
REM    292 parameters refined using      1 restraints

END

WGHT      0.0333     61.8327

REM Highest difference peak  0.419,  deepest hole -0.569,  1-sigma level  0.079
Q1    1   0.0733  0.1283  0.6614  11.00000  0.05    0.42
Q2    1   0.0206  0.0933  0.5494  11.00000  0.05    0.33
Q3    1   0.0689  0.0970  0.6368  11.00000  0.05    0.33
Q4    1   0.1394  0.1253  0.1166  11.00000  0.05    0.32
Q5    1  -0.1180  0.0876  0.7220  11.00000  0.05    0.29
;
_shelx_res_checksum              60038
_shelx_hkl_file
;
  -2   0   0 1503.84   58.86
  -4   0   0 1086.22   43.87
  -6   0   0  242.10   15.01
  -8   0   0   12.68    9.52
  -1  -1   0   70.55    4.47
  -1   1   0   77.03    4.10
  -3  -1   0   59.10    5.50
  -3   1   0   53.28    5.64
  -5  -1   0  120.36    9.46
  -5   1   0  116.61    9.21
  -7  -1   0   83.02   10.64
  -7   1   0   77.74   10.86
  -9  -1   0   14.04    9.62
  -9   1   0   20.62   10.78
   0  -2   0   -1.97    1.98
   0  -2   0   -2.71    1.03
   0  -2   0   -2.18    1.40
   0  -2   0   -1.80    0.87
   0   2   0   -1.25    0.96
   0   2   0   -2.35    1.62
   0   2   0   -0.78    0.96
   0   2   0   -4.54    1.61
  -2  -2   0 3448.26  136.93
  -2   2   0 3627.63  136.66
  -4  -2   0   61.41    6.21
  -4   2   0   53.93    5.69
  -6  -2   0  203.64   13.37
  -6   2   0  210.37   13.38
  -8  -2   0   87.76   12.17
  -8   2   0   82.28   11.73
  -1  -3   0 1881.06   78.14
  -1  -3   0 1905.79   78.05
   1  -3   0 1962.33   76.83
  -1   3   0 2024.28   78.34
  -1   3   0 2113.19   78.30
  -1   3   0 2007.58   76.77
  -1   3   0 2045.58   76.78
  -3  -3   0  514.81   22.33
  -3   3   0  537.99   21.84
  -5  -3   0   67.79    8.10
  -5   3   0   79.52    7.45
  -7  -3   0    8.10    7.19
  -7   3   0   29.97    7.91
  -9  -3   0   54.79   12.82
  -9   3   0   60.15   11.88
   0  -4   0 1962.55   75.79
   0  -4   0 1938.59   75.96
   0  -4   0 1850.49   74.00
   0  -4   0 1865.60   74.06
   0   4   0 1902.99   77.30
   0   4   0 1927.74   74.06
   0   4   0 1967.49   75.79
  -2  -4   0  151.55    8.57
  -2   4   0  158.22   10.70
  -2   4   0  149.18   11.13
  -4  -4   0  163.06    9.89
  -4   4   0  141.69    8.74
  -6  -4   0  187.12   13.39
  -6   4   0  160.12   12.28
  -8  -4   0    6.09    8.07
  -8   4   0   12.08    7.92
  -1  -5   0  115.87    6.29
  -1  -5   0  120.62   10.85
   1  -5   0  114.69    6.39
   1  -5   0  128.30    6.20
  -1  -5   0  115.87    6.18
  -1   5   0  132.30    6.41
  -1   5   0  125.79    6.20
   1   5   0  127.30    6.40
  -1   5   0  132.45    6.35
  -1   5   0  130.50   10.85
  -1   5   0  121.02   11.19
  -3  -5   0  278.04   13.52
  -5  -5   0   13.55    6.17
  -7  -5   0   62.23   10.20
  -7   5   0   57.77    8.37
  -9  -5   0   36.68   12.07
  -9   5   0   34.72    9.93
   0  -6   0   -2.94    2.51
   0  -6   0    2.29    2.63
   0  -6   0    4.25    5.37
   0  -6   0    0.20    2.92
   0   6   0   -0.65    2.76
  -2  -6   0   53.93    9.68
   2  -6   0   37.92    3.57
  -2  -6   0   49.55    5.17
  -2   6   0   33.28    6.16
  -2   6   0   39.95    6.38
  -4  -6   0  214.75   12.18
  -6  -6   0   16.36    7.83
  -6   6   0   11.82    5.75
  -8  -6   0   43.69    9.95
  -8   6   0   28.36    8.07
  -1  -7   0   45.92    7.03
   1  -7   0   34.18    3.43
   1  -7   0   29.35    3.64
  -1  -7   0   30.26    3.33
  -1  -7   0   29.47    3.55
  -1  -7   0   26.47    6.44
  -1   7   0   35.38    3.44
  -1   7   0   41.08    3.83
   1   7   0   33.25    3.63
  -1   7   0   37.31    3.67
  -1   7   0   30.32    6.56
  -1   7   0   32.22    6.75
  -3  -7   0  144.74   12.70
  -3  -7   0  144.20    9.04
  -3   7   0  115.08   13.67
  -3   7   0  122.78   11.99
  -5  -7   0   36.57    7.41
  -7  -7   0   45.51   10.07
  -7   7   0   53.74    8.31
  -9  -7   0   20.50   10.15
   0  -8   0  172.34    8.11
   0  -8   0  169.60    8.32
   0  -8   0  161.02    8.48
   0  -8   0  178.18   13.81
   0   8   0  164.66    8.43
   0   8   0  187.63   14.78
  -2  -8   0   94.56    7.43
   2  -8   0   95.53    6.04
  -2  -8   0  102.94    5.99
  -2  -8   0   95.18   12.09
   2   8   0  102.96    6.27
  -2   8   0  120.45   12.91
  -2   8   0   98.33    5.79
  -2   8   0  100.35    5.85
  -2   8   0   98.72    6.02
  -2   8   0   96.56   11.37
  -4  -8   0   35.09    6.28
  -4   8   0   22.45    8.58
  -4   8   0   21.96    7.15
  -6  -8   0   42.95    9.29
  -8  -8   0    7.81    8.01
  -1  -9   0   33.37    3.93
   1  -9   0   42.64    3.85
  -1  -9   0   38.69    3.64
  -1  -9   0   36.23    7.45
   1  -9   0   39.76    3.79
   1  -9   0   33.52    4.02
  -1  -9   0   36.01    3.78
   1   9   0   49.03    4.29
  -1   9   0   49.78    4.35
  -1   9   0   72.08   12.37
  -1   9   0   46.81    4.24
  -1   9   0   37.60    3.84
  -1   9   0   33.65    6.97
   3  -9   0   63.44    5.40
  -3  -9   0   86.52    7.79
  -3  -9   0   67.20   13.93
  -3  -9   0   91.40   12.57
   3   9   0   81.93    6.03
  -3   9   0   69.92   12.52
  -3   9   0   69.43   11.40
  -5  -9   0   40.22    7.59
  -5   9   0   43.27   10.64
  -5   9   0   36.01    9.24
  -7  -9   0   82.76   10.83
   0 -10   0    3.92    2.99
   0 -10   0    3.30    6.22
   0 -10   0    0.24    3.16
   0 -10   0   -0.33    2.96
   0  10   0   -2.24    3.27
   2 -10   0    2.65    3.04
  -2 -10   0  -14.51    8.29
   2 -10   0    6.75    3.37
  -2 -10   0    1.23    3.26
  -2 -10   0    3.44    6.73
  -2 -10   0    4.02    4.36
  -2 -10   0    5.11    3.23
  -2  10   0    0.71    5.83
  -2  10   0    1.40    2.82
   2  10   0    8.29    3.67
  -2  10   0    6.42    6.98
  -2  10   0    3.96    3.33
  -2  10   0    3.05    3.06
   4 -10   0  137.35    8.56
  -4 -10   0  129.79   18.00
  -4 -10   0  128.90   10.72
  -4 -10   0  146.74   21.67
  -4  10   0  144.29   15.62
  -4  10   0  128.13   17.27
  -6 -10   0   40.07    9.41
  -6  10   0   39.80   11.94
  -6  10   0   28.71   10.80
  -8 -10   0   47.29   12.69
  -1 -11   0  154.66    8.57
  -1 -11   0  182.90   17.42
   1 -11   0  158.91    8.64
   1 -11   0  156.58    8.37
  -1 -11   0  156.40    8.68
  -1 -11   0  166.40   15.34
   1 -11   0  164.72    8.27
  -1  11   0  161.15    8.95
  -1  11   0  175.33   14.73
  -1  11   0  153.64    8.32
  -1  11   0  192.22   17.46
  -1  11   0  160.57    8.80
   1  11   0  152.66    9.11
   3 -11   0  192.92    9.92
  -3 -11   0  185.58   11.49
  -3 -11   0  159.77   24.68
  -3 -11   0  193.52   18.23
  -3  11   0  187.10    9.19
  -3  11   0  176.73   16.20
  -3  11   0  192.70   18.38
   3  11   0  197.98   10.22
  -5 -11   0   84.50   10.83
   5 -11   0   97.72    8.16
  -5 -11   0  139.52   23.03
  -5 -11   0   78.28   14.70
  -5  11   0   84.68   13.10
  -5  11   0   86.97   14.19
  -7 -11   0   33.03   10.40
  -7  11   0   30.53   12.90
  -7  11   0   32.84   13.38
   0 -12   0   68.74   12.58
   0 -12   0   65.43    5.36
   0 -12   0   65.09    5.01
   0 -12   0   63.00    5.69
   0  12   0   47.39    9.83
   0  12   0   70.04    6.31
  -2 -12   0   39.94    9.31
  -2 -12   0   47.83    6.09
   2 -12   0   49.32    4.94
  -2 -12   0   58.47    4.97
  -2 -12   0   48.59    4.82
  -2 -12   0   36.58   11.08
   2 -12   0   53.79    4.67
   2 -12   0   43.58    4.60
  -2  12   0   47.30    4.53
   2  12   0   58.60    5.57
  -2  12   0   52.22    5.00
  -2  12   0   40.74    8.70
  -2  12   0   43.63    9.85
  -2  12   0   52.09    5.22
  -4 -12   0  125.85   11.99
   4 -12   0  152.65    9.79
  -4 -12   0  164.52   24.58
  -4 -12   0  147.11   19.11
  -4  12   0  147.81   17.20
  -4  12   0  180.79   20.29
  -6 -12   0   20.89   13.40
  -6 -12   0   21.20    8.40
  -6  12   0   18.66   11.79
  -6  12   0   15.75   10.44
  -8 -12   0   18.69   11.04
  -1 -13   0   99.99    7.00
   1 -13   0   89.88    6.88
  -1 -13   0  102.03   14.75
   1 -13   0   88.66    6.78
   1 -13   0   80.09    6.34
  -1 -13   0   81.32   15.20
  -1 -13   0   93.02    7.31
  -1  13   0   90.93    7.55
   1  13   0   98.08    7.62
  -1  13   0   99.80    6.51
  -1  13   0   81.38   12.07
  -1  13   0   93.11    7.33
  -1  13   0  103.20   17.27
   3 -13   0  109.37    7.06
   3 -13   0   96.32    7.64
  -3 -13   0  100.93   16.40
   3 -13   0  109.76    7.89
  -3 -13   0  106.38   10.47
  -3 -13   0  115.33   17.74
  -3  13   0  106.47   14.62
  -3  13   0   93.01    7.68
  -3  13   0  101.55    6.93
  -3  13   0   95.43    7.39
   3  13   0   97.91    8.08
  -3  13   0  111.00   14.73
  -5 -13   0   57.61   23.10
   5 -13   0  119.56    9.61
  -5 -13   0  100.63   17.14
  -5 -13   0  112.75   12.15
  -5  13   0  111.23   20.02
  -5  13   0  107.18   19.05
  -7 -13   0    8.33    8.83
  -7 -13   0  -38.55   23.91
  -7 -13   0    6.52   15.46
  -7  13   0   13.30   12.66
  -7  13   0    3.45   12.13
   0 -14   0   -9.54    3.77
   0 -14   0   -3.61    7.20
   0 -14   0   -0.92    3.95
   0 -14   0    6.50    3.88
   0  14   0  -18.04   10.26
   0  14   0    3.38    4.34
   2 -14   0   80.69    6.71
   2 -14   0   84.67    7.30
  -2 -14   0  105.78    7.92
  -2 -14   0   73.21   14.08
   2 -14   0   89.92    6.69
  -2 -14   0  123.38    7.80
  -2 -14   0  107.22   16.66
  -2 -14   0  114.54    7.67
  -2 -14   0  113.93    9.33
  -2  14   0   82.08    6.61
  -2  14   0   86.99    7.84
  -2  14   0   81.36    7.63
  -2  14   0   80.38   14.14
   2  14   0   99.25    8.48
  -2  14   0   69.69   12.78
  -4 -14   0  114.79   21.00
  -4 -14   0  115.53   11.32
   4 -14   0  118.90    9.39
  -4 -14   0   70.24   19.22
   4  14   0  113.82    9.36
  -4  14   0  114.69   18.52
  -4  14   0  119.10   20.60
   6 -14   0   30.98    7.67
  -6 -14   0   32.49   10.45
  -6 -14   0   35.41   15.65
  -6  14   0   23.85   11.97
  -6  14   0   21.93   13.02
  -8 -14   0   27.22   12.93
  -8  14   0   57.32   16.49
  -1 -15   0    9.94    4.49
   1 -15   0    1.54    4.82
  -1 -15   0   10.99    4.82
  -1 -15   0   13.80    4.22
  -1 -15   0   -3.17    9.16
   1 -15   0   10.74    4.23
   1 -15   0    9.73    4.43
  -1 -15   0    9.67    8.85
  -1  15   0   10.70    4.08
   1  15   0   10.34    5.25
  -1  15   0   -0.29   10.04
  -1  15   0    7.52    4.85
  -1  15   0   12.90    5.00
   3 -15   0  142.96    8.92
   3 -15   0  123.82    9.48
  -3 -15   0  134.66   10.41
  -3 -15   0  118.65   19.63
  -3 -15   0  124.30   12.62
  -3 -15   0  131.96   23.27
   3 -15   0  152.73   10.28
  -3  15   0  128.23    9.43
  -3  15   0  141.13    8.44
  -3  15   0  145.05   18.10
  -3  15   0  136.20   21.65
   3  15   0  121.56   10.18
  -5 -15   0  117.43   12.36
  -5 -15   0  101.31   18.57
  -5 -15   0   59.32   22.41
   5 -15   0  119.21   10.08
  -5  15   0  114.29   18.34
   5  15   0  112.86    9.89
  -5  15   0  119.65   21.92
  -7 -15   0   32.45   16.98
   7 -15   0   22.87    8.81
  -7 -15   0   27.35   12.43
  -7  15   0   30.25   15.58
   0 -16   0    8.50    4.77
   0 -16   0    1.81    4.74
   0 -16   0    3.23    8.06
   0 -16   0    7.49    4.73
   0  16   0   -3.10   14.88
   0  16   0   -4.56    5.18
  -2 -16   0   23.34    5.82
   2 -16   0    9.89    4.90
   2 -16   0    6.01    5.43
  -2 -16   0   20.83    5.47
  -2 -16   0    7.17    5.73
  -2 -16   0    9.63    6.95
   2 -16   0    4.80    4.98
   2 -16   0    3.03    5.29
  -2 -16   0    9.22   11.95
  -2 -16   0    8.13   10.03
  -2  16   0    8.63    3.99
  -2  16   0   17.26    5.28
   2  16   0   29.46    6.35
  -2  16   0  -14.97   11.10
  -2  16   0    6.63    8.23
  -2  16   0   12.60    5.17
  -4 -16   0   29.44   17.81
   4 -16   0   30.87    6.53
  -4 -16   0   53.69   14.83
  -4  16   0   33.42   13.69
  -6 -16   0   15.12   15.79
   6 -16   0   26.97    7.45
  -6 -16   0   14.04   10.43
   6  16   0    8.42    6.90
  -6  16   0  -10.48   13.86
  -1 -17   0    1.63   10.09
   1 -17   0   -3.95    5.61
   1 -17   0    8.13    4.98
  -1 -17   0    6.93    5.74
  -1 -17   0   -0.17    4.72
   1 -17   0    3.64    5.18
  -1 -17   0    6.98    5.86
   1 -17   0    8.12    5.94
  -1 -17   0    3.44    5.26
  -1  17   0  -10.91   12.91
  -1  17   0    7.87    5.77
  -1  17   0    6.72    5.40
   1  17   0    6.98    5.67
  -3 -17   0   31.49    7.07
   3 -17   0   23.95    5.75
   3 -17   0   14.19    6.06
   3 -17   0   29.61    7.01
  -3 -17   0   33.53    8.92
  -3 -17   0   27.72   12.92
  -3  17   0   22.53    5.65
   3  17   0   41.28    7.29
  -3  17   0   20.93    5.16
  -3  17   0   15.04   12.55
  -3  17   0   24.01    5.88
   5 -17   0  113.38   10.48
  -5 -17   0   76.22   12.73
  -5 -17   0   81.53   18.67
  -5  17   0   87.51   18.49
   5  17   0   69.69    8.91
  -7 -17   0   27.68   17.78
  -7 -17   0   26.20   10.76
   7 -17   0   24.98    9.00
  -7  17   0   27.28   17.62
   0 -18   0   -4.92   10.70
   0 -18   0   14.31    6.45
   0 -18   0    2.44    5.46
   0 -18   0   -5.99    4.87
   0 -18   0   -0.92    6.17
   0  18   0    3.17    6.07
  -2 -18   0  121.17    9.75
  -2 -18   0  110.90    9.66
  -2 -18   0   86.74   16.85
   2 -18   0   89.60    8.29
  -2 -18   0  118.45   11.28
   2 -18   0   91.34    9.47
   2 -18   0   78.77    8.82
  -2  18   0   89.67    8.53
  -2  18   0   79.41   16.93
   2  18   0  124.86   10.25
  -2  18   0   96.32    9.00
  -4 -18   0  202.28   16.28
  -4 -18   0  215.71   28.50
   4 -18   0  217.94   14.11
  -4  18   0  195.25   28.37
   4  18   0  202.66   14.80
  -4  18   0  197.32   11.57
  -6 -18   0   13.51   16.59
   6 -18   0   11.11    8.22
  -6 -18   0    4.12   10.14
  -6  18   0    8.02   16.20
   6  18   0   13.03    7.44
   1 -19   0    6.10    6.39
   1 -19   0    3.33    5.38
  -1 -19   0    8.62    6.82
  -1 -19   0    1.21    6.53
   1 -19   0   18.02    6.48
   1 -19   0    1.50    5.54
  -1  19   0    4.76    6.15
   1  19   0   11.95    6.62
  -1  19   0   -2.41    6.14
  -3 -19   0   20.03    8.33
  -3 -19   0    7.10   12.94
   3 -19   0   14.56    6.44
  -3 -19   0   23.34    7.64
  -3  19   0   16.10    5.98
  -3  19   0  -12.70   14.00
   3  19   0    5.93    7.47
  -3  19   0    8.39    6.01
  -5 -19   0   22.57   15.18
   5 -19   0   13.35    8.18
  -5 -19   0   14.75   10.01
  -5  19   0    6.44   16.64
   5  19   0   27.08    8.38
  -7 -19   0   39.71   14.95
   7  19   0   21.42    9.68
   0 -20   0   22.37    7.63
   0 -20   0   19.86    6.12
   0 -20   0   21.95    7.72
   0 -20   0   24.54    7.74
   0  20   0   18.28    6.94
   2 -20   0    6.71    6.19
  -2 -20   0    6.84    7.83
  -2 -20   0    6.06    7.56
   2 -20   0    2.19    6.20
  -2 -20   0   11.83    7.28
  -2  20   0   -0.86    6.08
  -2  20   0   19.55    6.90
   2  20   0   19.66    7.86
  -4 -20   0  142.63   24.15
  -4 -20   0  143.47   14.95
   4 -20   0  149.96   14.22
   4  20   0  151.98   13.21
  -4  20   0  158.24   11.40
   6 -20   0   17.24    9.99
  -6 -20   0   16.66   12.41
  -6 -20   0   18.97   16.03
   6  20   0   24.32    9.22
  -1 -21   0   55.10    9.39
   1 -21   0   34.72    8.96
  -1 -21   0   47.52    8.25
  -1 -21   0   52.48    8.51
   1 -21   0   54.70    7.47
  -1  21   0   39.79    8.14
  -1  21   0   42.47    8.47
   1  21   0   53.96    8.93
  -3 -21   0   28.57    9.98
  -3 -21   0   28.65    9.39
   3 -21   0   20.62    7.79
   3  21   0   30.36    9.06
  -3  21   0   17.57    7.11
  -3  21   0   22.40    7.22
  -5 -21   0   12.57   10.94
   5 -21   0    6.23    7.41
   5  21   0   12.23    9.22
   0 -22   0    2.69    7.24
   0 -22   0   -3.15    7.59
   0 -22   0   -0.16    6.54
   0  22   0   -3.23    6.98
  -2 -22   0   40.31    9.23
  -2 -22   0   32.39    9.42
   2 -22   0   16.11    7.57
  -2 -22   0   23.00    8.62
   2 -22   0   22.40    6.73
   2  22   0   18.08    9.11
  -2  22   0   32.93    7.68
  -2  22   0   31.04    7.96
   4 -22   0   34.51   10.73
  -4 -22   0   39.35   10.87
  -4  22   0   31.21    7.61
   4  22   0   31.03    9.48
  -1 -23   0   35.64    7.95
  -1 -23   0   38.20    9.93
   1 -23   0   38.15    8.98
   1 -23   0   44.93    8.16
  -1 -23   0   46.66    9.54
   1  23   0   34.81    8.96
  -1  23   0   37.43    8.45
  -1  23   0   30.79    8.58
   3 -23   0   37.71    8.83
  -3 -23   0   32.90   10.23
  -3 -23   0   47.49   11.95
  -3  23   0   29.89    8.41
   3  23   0   40.14   10.26
  -5 -23   0   46.39   13.66
   5 -23   0   20.02    9.28
   5  23   0   36.00   11.18
   0 -24   0   24.33    9.65
   0 -24   0   13.77    7.89
   0  24   0   32.69    9.28
   2 -24   0   25.93    9.30
   2 -24   0   29.80    9.26
  -2 -24   0   19.52   11.15
  -2 -24   0   31.57    9.90
   2  24   0   13.68    8.83
  -2  24   0   41.91    9.20
  -2  24   0   27.59    8.52
  -4 -24   0   44.09   11.39
   4 -24   0   36.61    9.21
  -4  24   0   20.46    8.28
   4  24   0   12.91   10.95
   1 -25   0   29.32    9.78
   1 -25   0   33.56    9.57
  -1 -25   0    9.46   10.24
   1  25   0   21.89    8.95
  -1  25   0   17.55    8.58
  -1  25   0   39.15    9.35
   3 -25   0    1.53    8.27
  -3 -25   0    5.52   10.62
  -3 -25   0    6.23   10.82
  -3  25   0    2.88    8.16
   3  25   0    8.18    9.52
   0 -26   0   -0.97    8.40
   0  26   0    2.25    8.98
  -2 -26   0   74.50   11.93
   2 -26   0   68.02   12.96
   2 -26   0   61.49   12.01
  -2  26   0   64.41   11.23
  -2  26   0   50.42   10.64
   2  26   0   75.90   11.66
  -1 -27   0   16.55    9.68
   1 -27   0    5.89    7.82
  -1 -27   0   28.73   11.90
  -1  27   0    4.53    9.29
   1  27   0    4.68    9.79
   0 -28   0  136.01   14.16
   0  28   0  128.41   14.34
  -8   0   1   18.17    9.62
  -6   0   1   14.40    6.41
  -2   0   1   -9.91    3.28
  -2   0  -1   -0.19    3.41
  -6   0  -1   10.60    6.57
  -8   0  -1   -1.44    8.90
  -9  -1   1   41.95   10.90
  -9   1   1   42.73   10.39
  -7  -1   1   39.47    8.45
  -7   1   1   45.65    8.72
  -5  -1   1   36.58    6.20
  -5   1   1   21.80    5.61
  -3  -1   1  696.09   28.81
  -3   1   1  713.17   28.68
  -1  -1  -1 1008.35   40.93
  -1   1  -1 1081.33   40.86
  -3  -1  -1  250.97   11.97
  -3   1  -1  243.11   11.76
  -5  -1  -1  124.35    9.52
  -5   1  -1  126.20    9.55
  -7  -1  -1  107.20   11.23
  -7   1  -1  108.20   11.29
  -9  -1  -1   15.87   10.08
  -9   1  -1    2.87    9.37
  -8  -2   1   32.60   10.33
  -8   2   1   45.78   10.60
  -6  -2   1  225.22   14.35
  -6   2   1  197.47   13.37
  -4  -2   1  248.46   12.54
  -4   2   1  240.21   11.99
  -2  -2   1 3913.75  157.29
  -2   2   1 4226.09  157.04
   0  -2   1  214.32    9.17
   0  -2   1  193.27    7.99
   0  -2   1  203.12    9.35
   0  -2  -1  198.62    7.96
   0  -2  -1  194.22    7.89
   0  -2   1  196.28    7.94
   0  -2  -1  194.56    9.00
   0  -2  -1  201.95    9.34
   0  -2  -1  195.64    8.00
   0   2  -1  197.41    7.98
   0   2   1  200.53    9.14
   0   2   1  194.03    8.00
   0   2  -1  202.26    9.27
   0   2  -1  203.11    9.25
   0   2  -1  193.24    7.95
  -2  -2  -1 1094.54   45.82
  -2   2  -1 1222.73   45.62
  -4  -2  -1  387.73   17.67
  -4   2  -1  380.24   17.27
  -6  -2  -1   23.38    7.38
  -6   2  -1   29.87    7.05
  -8  -2  -1   15.71    9.07
  -8   2  -1   29.28    9.34
  -9  -3   1   29.50   10.71
  -9   3   1   30.81   10.61
  -7  -3   1  133.92   12.77
  -7   3   1  132.08   11.74
  -5  -3   1  112.17    9.61
  -5   3   1  105.20    8.73
  -3  -3   1  457.38   19.72
  -3   3   1  456.63   19.06
   1  -3  -1 1977.36   76.40
  -1  -3   1 1906.45   76.35
  -1  -3   1 1904.98   77.75
  -1  -3   1 1919.66   76.33
  -1  -3   1 1869.09   77.91
   1   3  -1 2074.87   76.41
  -1   3   1 2035.62   76.37
  -1   3   1 2006.66   78.04
  -1   3   1 2057.11   76.39
  -1   3   1 2000.99   77.88
  -1   3   1 2016.32   76.35
  -1  -3  -1  949.67   38.95
  -1   3  -1 1031.54   39.95
  -3  -3  -1  159.98    9.17
  -3   3  -1  152.15    8.45
  -5  -3  -1   14.80    5.81
  -5   3  -1   10.76    5.06
  -7  -3  -1  131.91   13.15
  -7   3  -1  128.23   12.45
  -9  -3  -1   23.89   11.17
  -9   3  -1   29.81   11.48
  -8  -4   1    3.88    7.87
  -8   4   1   14.76    7.63
  -6  -4   1  206.24   14.31
  -6   4   1  195.01   12.87
  -4  -4   1  222.70   12.09
  -2  -4   1    3.12    4.73
  -2  -4   1    5.45    7.00
  -2   4   1    2.60    5.20
  -2   4   1    0.06    4.41
   0  -4  -1 9569.18  375.56
   0  -4  -1 9673.66  375.48
   0  -4   1 9900.32  377.37
   0  -4   1 9512.44  375.60
   0  -4  -1 9827.42  377.32
   0  -4  -1 9424.22  375.59
   0  -4  -1 9906.49  377.25
   0  -4   1 9716.82  375.58
   0  -4  -1 9641.62  375.60
   0   4   1 9811.46  375.61
   0   4   1 9822.20  377.20
   0   4  -1 9999.00  377.42
   0   4  -1 9982.88  377.23
   0   4  -1 9997.61  376.08
   0   4  -1 9823.51  375.86
  -2  -4  -1  883.13   35.48
  -4  -4  -1  411.98   18.80
  -4   4  -1  398.53   17.92
  -6  -4  -1  287.62   16.87
  -6   4  -1  272.09   15.72
  -8  -4  -1    0.55    7.83
  -8   4  -1    5.75    8.06
  -9  -5   1   37.30   12.34
  -9   5   1   61.74   11.98
  -7  -5   1   98.40   11.90
  -7   5   1  108.94   10.53
  -5  -5   1  101.97    9.66
  -5   5   1   95.36    8.21
  -3  -5   1  111.13    7.84
  -3   5   1  106.74   10.52
   1  -5  -1  113.70    6.42
  -1  -5   1  123.43   11.03
   1  -5  -1  123.02    6.28
   1  -5  -1  114.53    6.06
  -1  -5   1  121.11    6.38
  -1  -5   1  112.51    6.25
   1   5  -1  129.13    6.44
  -1   5   1  129.63    6.40
  -1   5   1  120.74   11.42
  -1   5   1  136.44    6.37
  -1   5   1  129.47    6.44
  -1   5   1  126.80   10.60
  -1  -5  -1  458.21   19.78
  -1  -5  -1  443.33   19.10
  -1  -5  -1  432.55   22.06
   1  -5   1  460.10   19.24
   1   5   1  490.91   19.30
  -1   5  -1  526.44   22.80
  -1   5  -1  503.97   19.25
  -1   5  -1  493.72   19.23
  -1   5  -1  493.89   22.61
  -1   5  -1  489.79   19.16
  -3  -5  -1  456.62   20.08
  -5  -5  -1   96.34    9.72
  -5   5  -1   83.48    7.96
  -7  -5  -1   31.25    9.04
  -7   5  -1   20.67    7.32
  -9  -5  -1   12.87    9.50
  -9   5  -1    5.84    9.05
  -8  -6   1  112.06   13.76
  -6  -6   1   47.02    8.89
  -4  -6   1  101.92    8.71
  -2  -6   1  138.14   12.05
   2  -6  -1  148.31    7.34
   2  -6  -1  145.37    7.34
  -2   6   1  146.93   11.78
  -2   6   1  137.67   11.95
  -2   6   1  154.59    7.33
   2   6  -1  151.83    7.46
  -2   6   1  154.46    7.06
   0  -6   1  258.47   11.46
   0  -6  -1  272.87   15.83
   0  -6   1  267.91   11.60
   0  -6  -1  268.03   11.30
   0  -6  -1  259.11   11.46
   0  -6   1  274.41   15.87
   0  -6  -1  244.81   11.53
   0   6  -1  264.52   20.66
   0   6  -1  277.05   11.59
   0   6   1  286.26   16.16
   0   6   1  269.43   11.57
  -2  -6  -1  404.92   18.26
  -2  -6  -1  469.27   24.14
  -2  -6  -1  393.08   20.65
  -2   6  -1  425.98   21.02
  -2   6  -1  422.14   21.01
  -4  -6  -1   97.68    8.62
  -6  -6  -1   45.10    8.71
  -6   6  -1   56.42    7.55
  -8  -6  -1  102.20   12.86
  -8   6  -1  102.15   11.20
  -9  -7   1   68.25   14.28
  -7  -7   1   13.01    8.48
  -5  -7   1  100.29    9.55
  -3  -7   1  380.21   17.76
   3  -7  -1  390.00   16.46
  -3  -7   1  395.99   21.17
  -3   7   1  383.92   22.20
  -3   7   1  402.34   21.06
  -1  -7   1   28.43    3.55
   1  -7  -1   41.27    3.72
  -1  -7   1   28.54    3.36
  -1  -7   1   30.36    6.82
  -1  -7   1   24.46    6.49
   1  -7  -1   28.94    3.41
   1  -7  -1   33.72    3.35
  -1  -7   1   30.10    3.17
  -1   7   1   43.59    3.90
  -1   7   1   28.88    6.27
  -1   7   1   35.86    3.42
   1   7  -1   33.69    3.78
  -1   7   1   36.13    3.65
  -1   7   1   32.64    6.42
  -1  -7  -1  347.31   14.53
  -1  -7  -1  323.17   14.47
  -1  -7  -1  334.97   15.03
  -1  -7  -1  329.78   18.76
  -1  -7  -1  328.93   14.43
   1  -7   1  344.46   14.47
   1  -7   1  342.51   14.58
  -1  -7  -1  368.83   19.47
  -1   7  -1  351.73   14.43
  -1   7  -1  358.08   14.61
  -1   7  -1  361.34   19.04
  -1   7  -1  372.56   19.20
  -1   7  -1  359.72   14.60
   1   7   1  344.53   14.59
  -3  -7  -1  605.11   25.72
  -3   7  -1  613.11   28.59
  -3   7  -1  588.41   29.07
  -5  -7  -1  134.08   11.48
  -7  -7  -1   67.98   10.24
  -7   7  -1   68.77    9.00
  -9  -7  -1   19.96   12.59
  -9   7  -1   -2.81    7.78
  -8  -8   1    1.64    8.72
  -6  -8   1  110.75   11.78
  -4  -8   1  178.90   25.12
  -4  -8   1  115.26    9.69
  -4   8   1  127.63   13.42
  -4   8   1   91.43   14.83
   0  -8  -1  210.96    9.63
   0  -8   1  202.31    9.80
   0  -8  -1  208.86    9.95
   0  -8  -1  205.51   19.17
   0  -8  -1  224.28   15.20
   0  -8   1  226.21   15.27
   0  -8  -1  210.75    9.89
   0  -8   1  210.63    9.99
   0   8   1  220.22   15.28
   0   8  -1  239.48   16.42
   0   8   1  219.69   10.10
   0   8  -1  208.22   10.04
  -2  -8  -1  251.69   16.83
   2  -8   1  260.71   11.81
  -2  -8  -1  259.60   12.84
   2   8   1  264.31   11.85
  -2   8  -1  269.89   16.90
  -2   8  -1  258.32   11.53
  -2   8  -1  254.98   11.39
  -2   8  -1  305.73   17.95
  -4  -8  -1  123.20    9.72
  -4   8  -1   91.39   14.59
  -6  -8  -1   80.15   10.67
  -8  -8  -1   30.13    9.21
  -9  -9   1   18.79    9.64
  -7  -9   1   89.02   11.79
  -5  -9   1   25.23   10.26
  -5  -9   1   37.64    7.67
  -5   9   1   25.46    8.36
  -5   9   1   29.37   10.18
   3  -9  -1  424.91   18.29
  -3  -9   1  437.18   24.46
  -3  -9   1  394.91   19.54
  -3  -9   1  441.15   30.96
   3   9  -1  438.48   18.45
  -3   9   1  436.06   23.77
  -3   9   1  443.77   24.55
  -1  -9   1   34.28    3.62
  -1  -9   1   32.54    3.78
  -1  -9   1   44.42    4.22
   1  -9  -1   39.43    3.92
  -1  -9   1   34.08    7.30
   1  -9  -1   42.92    4.25
   1  -9  -1   42.22    3.80
  -1   9   1   43.73    4.29
  -1   9   1   30.09    6.83
  -1   9   1   38.46    3.73
  -1   9   1   45.41    8.23
  -1   9   1   41.58    4.31
   1   9  -1   47.63    4.26
   1  -9   1  322.41   14.18
  -1  -9  -1  324.63   14.08
  -1  -9  -1  308.68   13.97
   1  -9   1  330.96   13.99
  -1  -9  -1  321.45   19.43
  -1  -9  -1  315.42   14.04
  -1   9  -1  322.29   14.16
  -1   9  -1  331.56   13.92
  -1   9  -1  330.25   19.34
  -1   9  -1  364.77   20.96
   1   9   1  322.92   14.17
  -1   9  -1  326.37   14.17
  -3  -9  -1  234.00   12.63
   3  -9   1  232.61   10.92
  -3  -9  -1  228.29   17.11
  -3  -9  -1  171.12   23.05
  -3   9  -1  236.84   16.59
  -3   9  -1  276.72   17.79
  -5  -9  -1  128.34   11.97
  -7  -9  -1   59.53   11.40
  -8 -10   1   18.22    8.91
  -6 -10   1   45.44    9.57
  -6  10   1   36.68   11.08
  -6  10   1   50.97   12.48
  -4 -10   1   27.73    6.60
   4 -10  -1   26.32    4.98
  -4 -10   1    3.30   18.17
  -4 -10   1   25.86    9.48
  -4  10   1   24.25    7.84
  -4  10   1   35.04    9.74
   2 -10  -1   14.96    3.78
   2 -10  -1   22.91    3.41
  -2 -10   1   15.47    3.48
   2 -10  -1   17.65    3.43
  -2 -10   1   21.52    3.78
  -2 -10   1   14.99    7.08
   2 -10  -1   20.26    3.97
  -2  10   1    9.30    7.60
  -2  10   1   15.72    6.39
  -2  10   1   22.03    3.47
   2  10  -1   16.72    3.96
  -2  10   1   21.80    3.88
  -2  10   1   24.02    3.60
   0 -10   1   30.30    4.11
   0 -10  -1   34.03    3.72
   0 -10  -1   30.71    3.99
   0 -10   1   30.74    7.34
   0 -10   1   39.58    3.83
   0 -10   1   28.97    3.72
   0 -10  -1   25.61    3.75
   0 -10  -1   28.51    7.38
   0  10   1   36.58    4.27
   0  10   1   31.54    8.31
   0  10  -1   31.80    4.10
  -2 -10  -1   27.46    5.10
  -2 -10  -1   39.48    9.38
  -2 -10  -1   31.70    3.74
  -2 -10  -1   29.70    7.68
   2 -10   1   25.29    4.01
  -2  10  -1   22.20    7.19
  -2  10  -1   29.97    3.84
  -2  10  -1   26.06    8.12
  -2  10  -1   32.26    3.99
   2  10   1   37.70    4.36
  -2  10  -1   26.75    3.41
  -4 -10  -1  195.64   12.67
  -4 -10  -1  149.71   27.73
  -4  10  -1  181.49   18.50
  -4  10  -1  186.27   17.07
  -6 -10  -1   13.27    7.48
  -6  10  -1    7.75   10.41
  -8 -10  -1   36.33   12.64
  -7 -11   1   53.39   10.23
  -7  11   1   50.40   13.78
  -5 -11   1    0.96   20.50
  -5 -11   1   11.77    7.19
  -5 -11   1    9.73   10.64
   5 -11  -1   12.45    5.33
  -5  11   1    7.70    8.31
  -5  11   1    1.76    9.87
  -3 -11   1  246.15   19.92
  -3 -11   1  231.18   27.34
   3 -11  -1  237.12   11.63
  -3 -11   1  236.08   13.18
  -3  11   1  236.39   17.95
  -3  11   1  226.51   19.56
  -3  11   1  234.22   10.96
  -3  11   1  230.99   11.38
   3  11  -1  235.61   11.89
  -1 -11   1  162.82    8.68
   1 -11  -1  166.17    8.44
   1 -11  -1  167.30    8.73
   1 -11  -1  155.75    8.92
  -1 -11   1  196.53   18.55
  -1 -11   1  173.45   15.22
  -1 -11   1  167.53    9.01
  -1  11   1  161.40    9.13
   1  11  -1  172.45    9.12
  -1  11   1  160.96    9.02
  -1  11   1  182.54   16.78
  -1  11   1  173.06   15.06
  -1  11   1  162.18    8.72
  -1 -11  -1   48.15    9.89
  -1 -11  -1   39.76    4.44
   1 -11   1   36.13    4.55
  -1 -11  -1   38.35    4.53
   1 -11   1   45.02    4.16
  -1 -11  -1   29.17    8.02
  -1 -11  -1   37.57    4.21
  -1  11  -1   35.83    8.03
  -1  11  -1   48.33    4.68
  -1  11  -1   34.63    3.74
   1  11   1   47.90    4.80
   3 -11   1  122.87    7.40
  -3 -11  -1  118.40   21.60
  -3 -11  -1  112.48   15.96
  -3 -11  -1  122.76    9.85
   3  11   1  121.88    7.85
  -3  11  -1  102.13   13.93
  -3  11  -1  117.17   16.16
  -5 -11  -1   24.19   12.34
  -5 -11  -1   19.48    7.84
  -5  11  -1   12.15    8.93
  -5  11  -1   11.44   10.14
  -7 -11  -1   24.20    9.97
  -8 -12   1   40.01   12.92
  -8  12   1   29.24   13.67
   6 -12  -1   17.57    6.62
  -6 -12   1   15.33   13.40
  -6 -12   1  -24.88   22.92
  -6 -12   1    7.46    8.44
  -6  12   1   22.39   11.98
  -6  12   1   18.36   10.55
  -4 -12   1  147.74   22.39
  -4 -12   1   81.42    9.60
  -4 -12   1   96.74   17.32
   4 -12  -1  100.46    7.99
   4  12  -1   89.59    7.76
  -4  12   1   75.91   13.71
  -4  12   1   83.55   14.60
  -2 -12   1    0.78    3.57
   2 -12  -1   -1.08    3.59
  -2 -12   1   -8.73    8.58
  -2 -12   1    0.93    7.27
   2 -12  -1   -4.62    3.27
   2 -12  -1   -4.25    3.09
   2 -12  -1    2.22    3.59
  -2 -12   1    3.17    3.65
  -2  12   1   -1.05    3.75
  -2  12   1   -4.81    6.98
  -2  12   1    5.37    3.73
   2  12  -1    3.56    4.01
  -2  12   1   -1.00    6.06
  -2  12   1    2.28    3.20
   0 -12   1  130.32    7.48
   0 -12   1  125.81    7.86
   0 -12  -1  136.70   14.82
   0 -12  -1  137.41    7.40
   0 -12   1  129.94    7.30
   0 -12   1  129.73   14.08
   0 -12  -1  126.61    7.79
   0 -12  -1  123.69    7.61
   0  12  -1  108.01   13.54
   0  12   1  123.37    8.04
   0  12   1   94.96   15.09
   0  12  -1  138.58    7.94
  -2 -12  -1  148.85   19.08
   2 -12   1  178.29    8.76
  -2 -12  -1  160.67   16.94
  -2 -12  -1  162.41   10.12
   2 -12   1  150.23    8.77
  -2 -12  -1  154.99    9.00
  -2  12  -1  154.90   15.38
  -2  12  -1  145.69    8.81
  -2  12  -1  159.83   17.59
   2  12   1  155.63    9.26
  -2  12  -1  169.35    8.51
  -2  12  -1  160.46    9.05
  -4 -12  -1  106.52   18.74
  -4 -12  -1  111.30   10.50
  -4 -12  -1   89.90   20.22
   4 -12   1  110.02    9.16
  -4  12  -1  110.03   16.06
  -4  12  -1   96.53   14.79
  -6 -12  -1    4.73    8.49
  -6 -12  -1    3.78   13.20
  -6  12  -1   16.37   11.72
  -6  12  -1    1.89    9.78
  -8 -12  -1   14.74    9.26
  -7 -13   1  -41.19   25.13
  -7 -13   1   24.53   16.88
  -7 -13   1   32.88    9.68
  -7  13   1   27.47   13.40
  -5 -13   1   24.27   13.11
  -5 -13   1    7.24   20.35
   5 -13  -1   20.22    6.09
  -5 -13   1   24.23    8.65
  -5  13   1   17.91    9.93
  -5  13   1   28.92   11.63
   3 -13  -1  113.02    7.65
   3 -13  -1  138.20    9.03
  -3 -13   1  134.65    8.57
  -3 -13   1  128.07   17.72
  -3 -13   1  108.44   10.78
  -3  13   1  121.41   15.39
  -3  13   1  118.16    8.37
  -3  13   1  122.98    7.63
   3  13  -1  126.23    9.12
  -3  13   1  125.43   18.38
  -3  13   1  123.01    8.05
  -1 -13   1   91.47    6.93
   1 -13  -1   93.91    6.78
  -1 -13   1   82.41   11.96
  -1 -13   1   99.22   14.44
   1 -13  -1   94.21    6.55
  -1 -13   1   94.59    6.48
   1 -13  -1   96.86    7.07
   1 -13  -1   98.83    7.14
  -1 -13   1   91.82    7.05
  -1  13   1   94.24    7.62
  -1  13   1   75.45   11.26
  -1  13   1   83.94    7.20
   1  13  -1  110.13    7.49
   1 -13   1  187.42    9.44
  -1 -13  -1  181.47    9.92
   1 -13   1  188.57    9.71
  -1 -13  -1  189.99    9.83
  -1 -13  -1  196.94   17.57
  -1 -13  -1  171.76   18.00
  -1 -13  -1  192.83    9.92
  -1 -13  -1  188.51   10.36
   1 -13   1  185.55    9.97
  -1  13  -1  186.97   16.72
  -1  13  -1  182.36   18.68
  -1  13  -1  185.61    9.50
  -1  13  -1  186.65   10.03
   1  13   1  188.80   10.49
  -3 -13  -1   35.73   10.98
   3 -13   1   31.27    5.04
  -3 -13  -1   27.73   13.22
   3 -13   1   28.52    4.90
  -3 -13  -1   32.32    6.89
  -3  13  -1   37.55    4.86
  -3  13  -1   32.17    9.31
  -3  13  -1   32.84   11.46
  -3  13  -1   32.74    4.28
   3  13   1   31.34    5.54
  -5 -13  -1  119.29   24.47
  -5 -13  -1  149.45   13.61
  -5 -13  -1  154.33   23.22
   5 -13   1  167.61   10.81
  -5  13  -1  152.69   21.76
  -5  13  -1  136.25   19.60
  -7 -13  -1    4.53    8.44
  -7 -13  -1    1.31   14.58
  -7  13  -1   -6.29   11.32
  -7  13  -1    5.63   12.53
  -8 -14   1    3.86   11.03
  -8  14   1   24.32   14.10
  -6 -14   1   48.72   10.03
  -6 -14   1   52.88   16.28
   6 -14  -1   58.26    8.17
  -6  14   1   48.66   14.57
  -6  14   1   61.11   17.63
  -4 -14   1   86.59   10.35
  -4 -14   1   58.53   19.22
  -4 -14   1   96.14   15.77
   4 -14  -1   98.88    8.82
  -4  14   1  107.79   19.97
  -4  14   1  104.36   18.30
   4  14  -1  106.63    8.43
  -2 -14   1  375.30   29.79
   2 -14  -1  392.26   18.21
   2 -14  -1  389.45   17.32
   2 -14  -1  404.17   17.78
  -2 -14   1  387.97   18.11
   2 -14  -1  404.33   18.15
  -2 -14   1  380.18   18.02
  -2 -14   1  410.95   27.17
  -2  14   1  421.59   25.53
  -2  14   1  401.75   18.15
  -2  14   1  375.17   17.76
  -2  14   1  432.23   28.40
   2  14  -1  371.60   18.41
  -2  14   1  429.12   17.69
   0 -14  -1   28.08    4.61
   0 -14  -1   19.84    4.69
   0 -14   1   21.32    4.14
   0 -14  -1   22.44    4.41
   0 -14   1   22.15    4.16
   0 -14   1   23.94    4.53
   0 -14  -1   14.94    4.12
   0 -14   1   23.32    8.23
   0 -14  -1   19.17    8.47
   0  14  -1   28.35    5.12
   0  14   1   29.28    5.32
   0  14  -1   14.45   12.79
   0  14   1    3.27   10.37
  -2 -14  -1  264.03   13.64
  -2 -14  -1  243.53   24.99
   2 -14   1  265.15   13.33
  -2 -14  -1  284.60   13.60
  -2 -14  -1  275.98   22.66
   2 -14   1  297.67   13.72
  -2 -14  -1  288.66   14.91
   2 -14   1  290.70   13.32
  -2  14  -1  284.79   13.79
  -2  14  -1  291.82   24.15
  -2  14  -1  268.82   13.75
  -2  14  -1  293.04   13.20
  -2  14  -1  286.75   21.18
   2  14   1  278.18   13.99
  -4 -14  -1  174.89   22.68
   4 -14   1  164.25   10.92
   4 -14   1  172.72   11.45
  -4 -14  -1  166.98   13.57
  -4  14  -1  169.10   20.23
   4  14   1  159.35   10.76
  -4  14  -1  145.16   22.14
  -6 -14  -1   48.94   16.39
   6 -14   1   53.26    8.32
  -6 -14  -1   47.26   11.80
  -6  14  -1   46.98   15.20
  -6  14  -1   37.59   13.39
  -8 -14  -1   37.85   10.85
  -8  14  -1   48.70   16.00
  -7 -15   1   59.68   11.44
  -7 -15   1   54.80   19.05
   7 -15  -1   58.35    9.37
  -7  15   1   60.22   16.23
   5 -15  -1  122.00   10.67
  -5 -15   1  113.90   19.47
  -5 -15   1  114.67   12.06
   5  15  -1  109.23    9.74
  -5  15   1  111.57   18.01
  -3 -15   1   19.99   10.55
  -3 -15   1    5.84   14.26
   3 -15  -1    8.01    4.86
  -3 -15   1   21.08    7.42
  -3 -15   1   17.65    6.14
   3 -15  -1   16.46    5.37
  -3  15   1   20.08    5.10
   3  15  -1   17.28    5.94
  -3  15   1   13.89    4.19
  -3  15   1   13.37    8.95
  -3  15   1   15.20   11.04
  -3  15   1   15.91    4.88
   1 -15  -1    9.16    4.75
  -1 -15   1    3.85    4.55
   1 -15  -1   11.28    4.26
   1 -15  -1   -1.62    4.59
  -1 -15   1    7.51    4.35
  -1 -15   1    1.12    4.44
  -1 -15   1   12.54    8.63
   1 -15  -1   12.06    4.37
  -1  15   1    8.07    4.87
   1  15  -1   15.83    5.40
  -1  15   1   -5.48    9.62
  -1  15   1    9.50    4.91
  -1 -15  -1   85.53    7.62
   1 -15   1   83.75    7.30
   1 -15   1   86.35    7.34
  -1 -15  -1   76.60    6.71
   1 -15   1   84.20    6.85
  -1 -15  -1   79.59   12.90
  -1 -15  -1   59.96   11.96
  -1 -15  -1   83.16    7.47
  -1  15  -1  101.04    7.64
  -1  15  -1   79.78    6.52
   1  15   1   98.09    7.83
  -1  15  -1   58.84   13.37
  -1  15  -1   92.23    7.16
   3 -15   1  160.02    9.45
  -3 -15  -1  146.99   12.01
  -3 -15  -1  151.04   20.32
   3 -15   1  143.68   10.18
  -3 -15  -1  117.10   19.89
  -3  15  -1  162.48   18.48
  -3  15  -1  153.85    8.93
  -3  15  -1  153.29    9.71
  -3  15  -1  128.63   22.38
   3  15   1  139.00   10.71
   5 -15   1   25.72    6.44
  -5 -15  -1   29.18    9.69
  -5 -15  -1   21.56   13.98
  -5 -15  -1   -6.34   17.69
  -5  15  -1   22.18   13.52
  -5  15  -1   15.01   11.11
  -7 -15  -1   38.80   12.43
  -7 -15  -1   37.57   18.43
  -7  15  -1   30.26   16.12
  -6 -16   1   -0.58    9.29
  -6 -16   1    7.27   15.23
   6 -16  -1   -0.18    8.13
   6  16  -1    6.33    6.75
  -4 -16   1  386.04   33.91
   4 -16  -1  405.04   19.34
  -4 -16   1  377.37   21.46
   4  16  -1  379.22   19.38
  -4  16   1  381.22   17.67
  -4  16   1  391.88   32.22
   2 -16  -1   -0.72    4.65
  -2 -16   1    3.98    5.48
   2 -16  -1    0.05    4.76
  -2 -16   1  -11.25   11.81
   2 -16  -1   -4.99    4.47
  -2 -16   1   -6.40    9.03
  -2 -16   1    6.12    4.86
  -2  16   1   -4.77    7.76
  -2  16   1   -3.98    4.75
  -2  16   1   -7.68   10.96
   2  16  -1   -4.59    5.67
  -2  16   1   -3.23    3.77
  -2  16   1   -5.87    5.00
   0 -16   1   14.36    4.75
   0 -16   1   13.98    5.53
   0 -16  -1   17.12    5.17
   0 -16  -1   15.17    9.59
   0 -16   1   16.61    4.95
   0 -16  -1   10.84    4.96
   0 -16  -1   15.64    4.77
   0 -16  -1   15.95    4.74
   0 -16   1   22.64    9.36
   0  16   1   23.40    5.65
   0  16  -1   15.83   15.54
   0  16  -1   18.81    5.54
   2 -16   1  260.24   13.46
  -2 -16  -1  216.89   13.37
   2 -16   1  219.99   11.68
  -2 -16  -1  198.77   26.43
  -2 -16  -1  212.64   12.56
  -2 -16  -1  231.98   14.04
  -2 -16  -1  217.12   22.34
   2 -16   1  248.36   12.74
  -2  16  -1  218.01   12.63
  -2  16  -1  225.10   21.58
  -2  16  -1  223.21   25.19
  -2  16  -1  204.86   12.32
  -2  16  -1  244.27   12.04
   2  16   1  200.23   12.97
  -4 -16  -1   24.68   12.68
   4 -16   1   27.65    6.39
   4 -16   1   25.95    6.75
  -4 -16  -1    0.71   17.75
  -4 -16  -1   28.84    8.84
  -4  16  -1   21.80   13.69
   4  16   1   21.74    6.68
  -6 -16  -1    5.16   10.41
   6 -16   1   22.36    7.35
  -6 -16  -1   14.46   14.96
  -6  16  -1    8.18   14.92
  -7 -17   1   29.42   12.67
  -7 -17   1   58.36   21.82
   7 -17  -1   49.40   11.97
  -7  17   1   46.48   18.90
  -5 -17   1   31.34    9.17
  -5 -17   1   29.45   15.85
   5 -17  -1   37.79    8.02
   5  17  -1   35.06    7.48
  -5  17   1   23.98   15.36
   3 -17  -1   85.04    8.65
   3 -17  -1   74.85    7.91
  -3 -17   1   85.32   11.01
  -3 -17   1   76.47   15.79
  -3 -17   1   77.45    8.82
   3  17  -1   96.94    9.17
  -3  17   1   93.91    7.88
  -3  17   1   85.54    7.94
  -3  17   1   71.03   16.49
  -3  17   1   97.57    8.29
  -1 -17   1    1.63    8.82
   1 -17  -1  -10.60    5.31
   1 -17  -1    0.72    4.76
  -1 -17   1    7.21    5.69
  -1 -17   1    0.54    4.90
   1 -17  -1   -1.46    4.71
   1 -17  -1    7.60    5.83
  -1 -17   1    3.10    5.61
  -1  17   1    2.00    5.59
  -1  17   1    1.31    5.62
  -1  17   1    0.60   12.36
   1  17  -1    6.69    6.10
  -1 -17  -1    5.62    6.36
   1 -17   1   -0.43    4.67
   1 -17   1    1.07    5.25
  -1 -17  -1    7.85    5.39
   1 -17   1    8.27    5.10
  -1 -17  -1    8.82   10.49
  -1 -17  -1    8.32    5.75
   1  17   1   10.60    6.14
  -1  17  -1    8.34    5.79
  -1  17  -1    6.70    4.10
  -1  17  -1    6.58   12.92
  -1  17  -1   13.02    5.66
   3 -17   1  105.48    9.20
  -3 -17  -1   84.58   10.74
   3 -17   1   99.36    9.27
  -3 -17  -1   98.96    9.31
  -3 -17  -1   83.69   18.41
   3 -17   1  112.16    9.59
  -3  17  -1  102.38    8.34
   3  17   1   83.59    9.23
  -3  17  -1   98.88    8.06
  -3  17  -1   96.83    8.19
  -3  17  -1   79.78   17.50
  -5 -17  -1   26.01   15.46
  -5 -17  -1   38.65   10.11
   5 -17   1   11.69    7.10
  -5  17  -1    5.91   14.21
   5  17   1   37.80    7.93
  -7 -17  -1   25.80   18.28
  -7 -17  -1   19.53   12.28
   7 -17   1   28.05    8.77
  -7  17  -1   26.50   17.68
  -6 -18   1   29.90   15.85
  -6 -18   1   48.35   12.52
   6 -18  -1   20.85    8.33
   6  18  -1   35.60    8.83
  -6  18   1   23.13   16.57
  -4 -18   1   75.38   18.48
   4 -18  -1   83.11    9.73
  -4 -18   1   86.78   11.67
  -4  18   1   87.98    7.29
  -4  18   1   93.83    8.29
   4  18  -1   84.35    9.69
  -4  18   1   68.79   17.16
   2 -18  -1  252.50   13.19
   2 -18  -1  235.71   13.54
  -2 -18   1  255.05   14.06
  -2 -18   1  194.90   14.60
  -2 -18   1  211.40   14.34
  -2 -18   1  214.12   13.67
  -2 -18   1  233.28   26.64
   2  18  -1  219.81   14.33
  -2  18   1  168.46   27.32
  -2  18   1  226.80   13.52
  -2  18   1  204.28   13.43
   0 -18   1   12.12    5.24
   0 -18   1    7.04    5.40
   0 -18  -1    8.02   10.83
   0 -18  -1    0.42    5.26
   0 -18  -1    2.71    5.64
   0 -18  -1   -8.07    5.80
   0 -18   1    8.18    6.20
   0  18  -1   11.94    6.32
   0  18   1   15.01    6.54
  -2 -18  -1   55.37   15.18
  -2 -18  -1   78.17    8.46
   2 -18   1   60.87    8.15
  -2 -18  -1   69.11    9.45
  -2 -18  -1   79.02    8.54
   2 -18   1   68.86    7.18
  -2  18  -1   70.25    7.78
  -2  18  -1   38.00   15.40
  -2  18  -1   48.62    7.59
  -2  18  -1   62.85    7.79
   2  18   1   78.24    9.55
  -4 -18  -1   95.42   19.06
   4 -18   1   80.26    9.15
  -4 -18  -1  124.67   12.86
   4  18   1  121.34   11.10
  -4  18  -1   74.13   18.19
  -6 -18  -1   31.81   12.17
  -6 -18  -1   31.23   16.19
   6 -18   1   26.04    8.83
   6  18   1   39.54    8.95
  -6  18  -1   19.84   17.60
  -7 -19   1   58.86   12.69
   7  19  -1   51.12   10.76
  -5 -19   1   61.04   18.77
   5 -19  -1   67.87   10.37
  -5 -19   1   49.85   12.07
   5  19  -1   54.97    9.57
  -5  19   1   55.41   18.14
   3 -19  -1   33.32    7.34
  -3 -19   1   34.64    8.23
  -3 -19   1   37.19    9.58
   3 -19  -1   25.31    7.22
  -3 -19   1   31.67   15.23
  -3 -19   1   42.63    8.41
  -3  19   1   16.32   15.49
  -3  19   1   29.07    6.67
  -3  19   1   28.55    6.92
   3  19  -1   26.15    8.36
   1 -19  -1    0.98    6.18
   1 -19  -1    7.57    5.71
  -1 -19   1    9.09    5.70
  -1 -19   1    7.84    6.66
   1 -19  -1    5.21    6.80
  -1 -19   1   -2.91    6.83
  -1 -19   1    9.28    6.78
   1  19  -1    2.53    7.00
  -1  19   1    1.65    6.49
  -1  19   1    5.60    6.59
  -1 -19  -1   30.95   13.85
   1 -19   1   50.31    7.16
  -1 -19  -1   39.63    8.41
  -1 -19  -1   54.64    7.00
   1 -19   1   63.51    7.85
   1 -19   1   44.77    7.80
  -1 -19  -1   41.74    7.78
   1  19   1   45.49    8.08
  -1  19  -1   50.84    7.86
  -1  19  -1   59.04    7.87
  -3 -19  -1    8.53   14.19
  -3 -19  -1   20.29    8.08
  -3 -19  -1   18.58    7.57
   3 -19   1   19.21    7.01
   3 -19   1   15.76    6.30
  -3  19  -1   -5.57   14.82
  -3  19  -1   13.15    5.92
  -3  19  -1   20.83    6.42
   3  19   1    8.36    7.27
  -5 -19  -1   53.76   19.52
  -5 -19  -1   38.34   11.11
   5 -19   1   36.68    8.78
  -5  19  -1   23.86   17.88
   5  19   1   22.24    8.39
   6 -20  -1   30.20   10.79
  -6 -20   1   24.07   12.86
  -6 -20   1   25.49   16.43
   6  20  -1   20.75    9.22
   4 -20  -1  125.67   11.77
  -4 -20   1  152.12   15.46
  -4 -20   1  157.63   28.51
  -4  20   1  130.71   11.03
   4  20  -1  169.74   13.44
   2 -20  -1  -12.65    6.23
  -2 -20   1   -0.95    7.64
   2 -20  -1   -4.43    5.62
  -2 -20   1   -8.38    6.15
  -2 -20   1   13.08    7.10
   2  20  -1    9.55    7.42
  -2  20   1    3.72    6.26
  -2  20   1   -4.36    6.70
   0 -20   1   13.99    6.01
   0 -20   1    9.19    6.04
   0 -20  -1   13.07    6.24
   0 -20  -1    6.52    7.04
   0 -20   1   17.39    7.08
   0 -20   1   16.65    6.85
   0 -20  -1    8.42    6.92
   0  20   1    6.30    7.13
   0  20  -1    5.63    6.50
   2 -20   1  120.38   10.93
   2 -20   1  141.73   10.74
   2 -20   1  129.70   11.41
  -2 -20  -1  106.73   10.97
  -2 -20  -1  115.61   10.85
  -2 -20  -1  116.90   11.61
  -2  20  -1  122.88   10.53
   2  20   1  121.01   11.57
  -2  20  -1  123.52   10.82
   4 -20   1    7.29    6.83
  -4 -20  -1   21.91   16.52
  -4 -20  -1   55.64   10.78
  -4  20  -1    6.31   19.04
   4  20   1   52.23    9.48
  -6 -20  -1   21.09   13.42
   6 -20   1   14.37    9.13
  -6 -20  -1   23.86   19.88
  -6  20  -1   -3.58   21.21
   6  20   1    5.18    8.88
   5 -21  -1   -3.90    8.59
  -5 -21   1   13.06   11.49
   5  21  -1   13.64    9.04
  -3 -21   1   39.20    9.78
  -3 -21   1   48.07   11.74
   3 -21  -1   48.90    8.29
  -3  21   1   35.44    7.93
   3  21  -1   37.63    9.65
  -3  21   1   43.44    7.83
   1 -21  -1   50.12   10.14
  -1 -21   1   35.31    7.19
  -1 -21   1   47.09    8.52
  -1 -21   1   51.16    9.69
   1 -21  -1   62.13    9.02
   1 -21  -1   47.75    7.53
  -1 -21   1   53.81    9.12
  -1  21   1   56.43    8.25
  -1  21   1   54.39    8.69
   1  21  -1   65.45    8.85
   1 -21   1   18.64    8.12
  -1 -21  -1   23.75    8.17
  -1 -21  -1   17.50    6.59
   1 -21   1    4.61    6.32
   1 -21   1    6.57    7.72
  -1 -21  -1   12.00    7.82
  -1  21  -1   23.47    7.48
  -1  21  -1   23.78    7.35
   1  21   1   32.67    8.29
  -3 -21  -1   13.51    8.39
   3 -21   1   15.01    7.20
  -3 -21  -1   34.06   10.09
   3  21   1   13.20    9.17
  -3  21  -1   13.62    6.49
  -3  21  -1   23.34    7.08
   5 -21   1   63.53    9.15
  -5 -21  -1   34.36   17.54
  -5 -21  -1   64.14   12.94
   5  21   1   48.08   11.01
  -6 -22   1   46.39   14.33
   4 -22  -1   45.14    8.81
  -4 -22   1   54.82   11.25
  -4  22   1   41.04    8.35
   4  22  -1   27.86    9.63
   2 -22  -1   55.49    8.73
  -2 -22   1   36.43    9.89
  -2 -22   1   58.82    9.82
   2 -22  -1   42.80    8.42
  -2 -22   1   50.98   10.11
   2  22  -1   33.32    9.31
  -2  22   1   53.32    8.43
  -2  22   1   40.18    8.64
   0 -22   1    9.95    6.54
   0 -22   1    4.67    7.27
   0 -22  -1   10.64    7.82
   0 -22   1   19.12    7.58
   0 -22  -1    6.93    7.64
   0 -22  -1    7.63    7.21
   0 -22   1   -2.21    8.10
   0  22   1   -5.04    7.60
   0  22  -1   19.53    7.94
  -2 -22  -1   21.44    8.38
   2 -22   1    9.54    8.79
   2 -22   1    7.55    7.42
  -2 -22  -1   14.42    8.42
  -2  22  -1   12.81    7.48
   2  22   1   15.22    8.72
  -2  22  -1   20.24    7.40
   4 -22   1   22.79    9.82
   4  22   1   22.43    9.32
  -4  22  -1   33.68    7.39
  -5 -23   1   41.82   13.16
   5  23  -1   26.98   10.75
   3 -23  -1   17.08    8.50
  -3 -23   1   40.91   11.56
  -3 -23   1   35.37   10.77
  -3  23   1   48.68    9.74
   3  23  -1   37.50   10.47
  -3  23   1   23.80    8.28
   1 -23  -1   26.95    8.48
  -1 -23   1   41.85    8.16
  -1 -23   1   26.25    8.86
   1 -23  -1   28.89   10.86
  -1 -23   1   36.80    9.81
  -1  23   1   24.59    7.98
   1  23  -1   46.12    9.38
  -1  23   1   23.05    8.47
   1 -23   1   58.03    8.04
  -1 -23  -1   60.37   11.10
  -1 -23  -1   63.41   10.48
   1 -23   1   52.59    9.38
   1  23   1   55.66    9.77
  -1  23  -1   50.22    9.42
  -1  23  -1   43.11    8.54
  -3 -23  -1   21.36   10.36
  -3 -23  -1   16.92    9.39
   3 -23   1   16.16    8.04
  -3  23  -1   23.47    8.34
   3  23   1   33.12   10.15
   5 -23   1    5.54    8.21
  -5 -23  -1   14.95   11.84
   5  23   1   16.50    9.38
   4 -24  -1   60.60   10.60
  -4 -24   1   86.51   15.31
   4  24  -1   61.24   11.53
  -4  24   1   67.35    9.47
  -2 -24   1   19.80    9.31
   2 -24  -1   14.86    8.20
  -2 -24   1   16.89    9.45
  -2  24   1   -2.80    8.22
  -2  24   1    2.98    7.52
   2  24  -1    7.71    9.06
   0 -24  -1   47.13    9.80
   0 -24  -1   33.19    8.10
   0 -24   1   42.29    9.64
   0 -24  -1   42.17    9.46
   0 -24   1   48.58    8.80
   0  24   1   38.97    9.89
   0  24  -1   43.34    9.18
   2 -24   1   19.70    8.62
   2 -24   1   20.01    8.57
  -2 -24  -1   30.21    9.95
  -2 -24  -1   37.28   11.95
  -2  24  -1   29.52    8.54
  -2  24  -1   36.05    8.84
   2  24   1   38.75    9.95
   4 -24   1   25.67    9.39
  -4  24  -1   18.24    8.01
   4  24   1   22.61   11.35
   3 -25  -1   14.50    8.72
  -3 -25   1   18.09   10.77
  -3 -25   1   25.38   11.20
  -3  25   1   -1.15    8.38
   3  25  -1    7.77    9.22
   1 -25  -1   23.95    8.68
  -1 -25   1   25.04   10.84
  -1 -25   1   19.59    9.49
  -1 -25   1   37.85    9.74
   1  25  -1   30.75    9.39
  -1  25   1   30.20    9.57
  -1 -25  -1   35.29   10.80
   1 -25   1   35.44    9.04
   1 -25   1   34.97    9.88
  -1  25  -1   30.72    9.04
   1  25   1   44.67   10.39
  -1  25  -1   27.78    9.39
  -3 -25  -1    1.19    9.89
  -3 -25  -1    1.49   10.33
   3 -25   1    4.69    8.80
  -3  25  -1    1.13    8.49
   3  25   1   10.19    9.71
   2 -26  -1   20.78   10.82
   2 -26  -1   21.56    9.70
  -2 -26   1   52.06   12.46
   2  26  -1   33.04   10.57
  -2  26   1   19.66    9.55
  -2  26   1   24.41    9.52
   0 -26  -1   15.62    9.77
   0 -26  -1    3.51    7.66
   0 -26   1   13.56   10.25
   0  26  -1    0.93    8.88
   0  26   1  -14.16    8.29
   2 -26   1   51.70   12.62
  -2 -26  -1   78.03   12.29
  -2  26  -1   41.42   10.20
   2  26   1   52.35   11.42
  -2  26  -1   61.32   10.02
   1 -27  -1   12.02    9.82
  -1 -27   1   29.15   11.83
  -1 -27   1   15.11    9.52
   1  27  -1   18.28    9.84
  -1  27   1   -5.90    9.07
  -1 -27  -1   30.94   11.70
   1 -27   1   28.31   10.27
   1  27   1   24.56   10.95
  -1  27  -1   44.46   11.28
   0 -28   1   48.24   11.57
   0 -28  -1   90.89   12.10
   0 -28   1   72.54   13.62
   0  28  -1   54.35   11.49
   0  28   1   75.19   12.36
  -8   0   2   48.56    9.78
  -6   0   2  187.28   12.68
  -4   0   2  489.50   21.24
  -2   0   2 1434.94   56.09
   0   0  -2 3245.95  121.12
   0   0  -2 3348.00  121.11
   0   0  -2 3033.16  121.09
   0   0  -2 3015.34  121.59
   0   0   2 3194.33  121.11
   0   0   2 3068.74  121.98
  -2   0  -2 4610.49  178.08
  -4   0  -2 1259.90   50.74
  -6   0  -2  172.77   12.32
  -8   0  -2    9.02    9.21
  -9  -1   2   28.48   10.87
  -9   1   2   31.51   10.47
  -7  -1   2  158.99   13.01
  -7   1   2  146.21   13.11
  -5  -1   2  492.13   22.17
  -5   1   2  469.14   21.84
  -3  -1   2  717.63   29.22
  -3   1   2  712.31   28.97
  -1  -1   2 1006.68   40.00
   1  -1  -2  985.32   38.23
  -1  -1   2  951.07   39.57
  -1  -1   2  983.15   38.20
   1  -1  -2  984.60   38.33
  -1  -1   2  941.40   38.20
  -1  -1   2  945.93   38.18
   1   1  -2 1011.96   38.23
  -1   1   2  979.69   38.19
  -1   1   2 1014.72   38.24
  -1   1   2  997.93   39.64
  -1   1   2  982.80   38.19
  -1   1   2  987.37   39.46
  -1  -1  -2   40.71    3.97
  -1   1  -2   46.40    3.91
  -3  -1  -2  857.85   35.00
  -3   1  -2  870.17   34.95
  -5  -1  -2  300.79   15.52
  -5   1  -2  291.25   15.46
  -7  -1  -2   71.17   10.47
  -7   1  -2   72.93    9.62
  -9  -1  -2   -0.96   11.17
  -9   1  -2    8.31   10.22
  -8  -2   2   32.84    9.96
  -8   2   2   59.74   10.33
  -6  -2   2  218.92   14.66
  -6   2   2  223.13   13.55
  -4  -2   2   10.27    4.51
  -4   2   2    7.76    4.09
  -2  -2   2 3335.85  133.14
  -2   2   2 3392.34  133.15
  -2   2   2 3498.35  133.52
   0  -2   2  395.51   15.34
   0  -2  -2  391.82   15.36
   0  -2  -2  382.10   16.58
   0  -2  -2  372.65   15.31
   0  -2  -2  374.10   16.45
   0  -2   2  393.09   15.38
   0  -2   2  412.73   16.80
   0   2   2  390.28   17.04
   0   2   2  382.65   15.37
   0   2  -2  401.38   16.77
   0   2  -2  391.31   15.35
   0   2   2  386.67   15.35
   0   2  -2  393.40   15.38
   0   2  -2  400.24   16.97
  -2  -2  -2 2809.39  113.49
  -2   2  -2 3041.84  113.37
  -4  -2  -2   67.78    6.54
  -4   2  -2   64.38    6.25
  -6  -2  -2  124.98   11.72
  -6   2  -2  136.96   11.32
  -8  -2  -2   26.37    9.51
  -8   2  -2   13.69    8.76
  -9  -3   2   45.97   11.72
  -9   3   2   61.13   11.28
  -7  -3   2   44.42    9.12
  -7   3   2   55.36    8.63
  -5  -3   2  222.15   13.33
  -5   3   2  237.22   12.54
  -3  -3   2  438.75   19.01
  -1  -3   2  948.10   39.84
   1  -3  -2  976.28   37.87
   1  -3  -2  965.46   37.97
  -1  -3   2  921.60   39.94
  -1  -3   2  924.14   37.96
  -1  -3   2  940.03   37.95
   1  -3  -2  977.87   38.03
  -1   3   2 1013.67   38.02
  -1   3   2  982.84   39.90
   1   3  -2 1027.52   38.05
  -1   3   2 1016.32   37.98
  -1   3   2 1016.38   38.03
  -1   3   2  969.63   39.80
  -1  -3  -2  866.66   34.27
  -3  -3  -2  600.06   25.39
  -3   3  -2  608.16   24.94
  -5  -3  -2  270.13   15.15
  -5   3  -2  288.30   14.58
  -7  -3  -2   44.56    9.32
  -7   3  -2   37.40    8.22
  -9  -3  -2    7.00   10.31
  -9   3  -2   12.54    9.99
  -8  -4   2    2.59    8.36
  -8   4   2   13.85    7.38
  -6  -4   2   65.59    9.25
  -6   4   2   67.54    8.04
  -4  -4   2  194.76   11.07
  -2  -4   2  148.66   11.54
   2  -4  -2  152.42    7.37
  -2   4   2  153.45   11.87
  -2   4   2  147.42   11.05
   0  -4  -2   40.31    3.55
   0  -4  -2   37.55    2.82
   0  -4  -2   36.96    3.06
   0  -4   2   43.16    2.86
   0  -4  -2   32.69    4.58
   0  -4   2   36.13    5.22
   0  -4  -2   42.49    7.56
   0  -4   2   41.38    3.49
   0   4   2   43.09    3.58
   0   4  -2   37.20    5.45
   0   4  -2   25.73    5.03
   0   4   2   36.34    6.43
   0   4  -2   36.95    3.31
   0   4  -2   42.69    2.92
  -2  -4  -2  888.55   35.74
  -4  -4  -2  382.41   17.89
  -4   4  -2  381.36   17.22
  -6  -4  -2  112.42   11.19
  -6   4  -2   96.03    9.88
  -8  -4  -2   33.58    9.41
  -8   4  -2   26.69    8.58
  -9  -5   2   48.04   12.64
  -9   5   2   29.22    9.06
  -7  -5   2   20.52    8.36
  -7   5   2   15.94    6.56
  -5  -5   2  107.79    9.68
  -3  -5   2  104.10   11.32
  -3  -5   2  106.42    7.77
  -3   5   2  149.88   15.13
  -3   5   2  107.22   10.51
  -1  -5   2  452.81   22.87
   1  -5  -2  484.93   19.55
  -1  -5   2  456.57   19.42
  -1  -5   2  466.70   19.49
   1  -5  -2  486.74   19.29
   1  -5  -2  481.98   19.45
  -1   5   2  485.38   22.69
   1   5  -2  486.27   19.55
  -1   5   2  491.97   19.45
  -1   5   2  501.85   19.47
  -1   5   2  498.60   19.57
  -1   5   2  496.12   23.13
  -1  -5  -2   13.88    3.63
  -1  -5  -2   16.03    2.52
  -1  -5  -2   12.15    5.21
   1  -5   2   19.67    2.94
  -1   5  -2   17.98    2.71
  -1   5  -2   16.16    2.56
  -1   5  -2   22.92    2.84
   1   5   2   17.36    2.68
  -1   5  -2   29.18    5.56
  -1   5  -2   10.74    5.31
  -3  -5  -2  472.38   20.68
  -5  -5  -2  150.95   11.29
  -5   5  -2  143.48   10.01
  -7  -5  -2   22.09    8.82
  -7   5  -2   27.06    7.65
  -9  -5  -2   48.88   13.32
  -9   5  -2   43.11   10.53
  -8  -6   2   23.61    9.42
  -6  -6   2   88.40   10.32
  -4  -6   2    2.78    4.73
  -4  -6   2   24.40   11.49
  -4  -6   2    6.20    6.69
  -4   6   2    5.63    7.74
  -4   6   2    5.27    5.70
  -2  -6   2   36.90    6.77
  -2  -6   2   46.82    3.59
   2  -6  -2   42.87    4.03
  -2   6   2   48.71    3.88
   2   6  -2   58.40    4.41
  -2   6   2   53.29    4.04
  -2   6   2   46.66    7.02
  -2   6   2   43.47    3.62
  -2   6   2   35.60    6.46
   0  -6  -2  604.75   24.84
   0  -6  -2  629.55   28.60
   0  -6   2  632.11   25.06
   0  -6  -2  620.03   25.11
   0  -6   2  591.45   25.09
   0  -6  -2  625.66   28.39
   0  -6  -2  616.67   25.02
   0  -6   2  642.55   28.62
   0   6  -2  611.90   25.06
   0   6   2  621.51   25.13
   0   6   2  616.24   28.41
   0   6  -2  725.53   29.97
   0   6  -2  640.47   28.83
  -2  -6  -2  617.19   26.28
  -2   6  -2  660.03   28.77
  -2   6  -2  624.07   28.65
  -4  -6  -2   78.80    7.83
  -6  -6  -2   27.94    7.96
  -6   6  -2   25.52    6.85
  -8  -6  -2   29.00    9.33
  -8   6  -2   28.93    8.45
  -9  -7   2    6.45   10.23
  -7  -7   2   35.79    8.75
  -5  -7   2   45.09    7.21
  -5   7   2   34.50    8.60
   3  -7  -2  396.38   16.36
  -3  -7   2  374.55   21.14
  -3   7   2  393.81   20.97
  -3   7   2  376.49   22.20
  -1  -7   2  333.61   14.69
   1  -7  -2  342.26   14.75
  -1  -7   2  340.54   14.82
  -1  -7   2  380.12   20.36
  -1  -7   2  339.48   19.32
   1  -7  -2  351.02   14.57
   1  -7  -2  341.79   14.87
  -1   7   2  350.87   19.11
  -1   7   2  359.86   19.15
  -1   7   2  359.33   14.91
  -1   7   2  349.47   14.71
   1   7  -2  364.57   14.94
  -1   7   2  358.07   14.85
   1  -7   2   11.30    3.02
   1  -7   2   10.21    3.01
  -1  -7  -2    4.59    2.68
  -1  -7  -2    6.02    2.95
  -1  -7  -2    6.71    3.62
  -1  -7  -2    7.58    5.77
  -1  -7  -2    8.64    6.02
  -1   7  -2    6.64    5.69
  -1   7  -2    6.03    5.82
  -1   7  -2   11.36    2.91
   1   7   2   11.32    2.91
  -1   7  -2    8.87    2.65
  -3  -7  -2   37.91    5.51
  -5  -7  -2   19.10    6.98
  -7  -7  -2  111.13   13.32
  -7   7  -2  117.56   11.56
  -9  -7  -2   34.20   10.47
  -9   7  -2   27.94    9.77
  -8  -8   2   10.99    9.42
  -6  -8   2   28.65    8.08
  -6   8   2   26.19    9.75
  -6   8   2   25.12   11.53
   4  -8  -2  212.30   10.30
  -4  -8   2  207.37   17.57
  -4  -8   2  202.77   11.86
  -4   8   2  165.07   17.40
  -4   8   2  218.04   16.05
  -2  -8   2   97.40   12.16
   2  -8  -2   97.26    6.28
  -2  -8   2   99.59    6.06
  -2  -8   2   99.62    6.08
   2  -8  -2   94.36    5.71
   2  -8  -2   97.47    6.23
  -2   8   2   98.95    6.17
  -2   8   2   87.34   12.58
  -2   8   2   93.05    6.05
  -2   8   2  102.17    5.88
   2   8  -2  103.78    6.37
  -2   8   2  102.79   11.47
   0  -8   2    5.61    2.87
   0  -8  -2    4.59    5.99
   0  -8   2    3.54    5.83
   0  -8  -2    6.73    2.86
   0  -8  -2    8.52    3.29
   0  -8  -2    3.26    5.64
   0  -8  -2    3.89    2.93
   0  -8   2    4.48    3.19
   0   8   2   13.96    6.29
   0   8   2    7.41    3.32
   0   8  -2    3.22    3.14
  -2  -8  -2   71.75    6.79
   2  -8   2   66.95    5.31
  -2  -8  -2   75.50   11.15
  -2   8  -2   78.77   12.23
  -2   8  -2   78.52   11.05
  -4  -8  -2    9.88    5.68
  -6  -8  -2  101.03   11.52
  -8  -8  -2   23.79   11.72
  -9  -9   2   41.61   13.16
  -7  -9   2   38.82   10.10
  -5  -9   2  162.33   11.75
  -5  -9   2  168.05   23.23
  -5  -9   2  145.32   19.06
  -5   9   2  170.69   17.42
  -5   9   2  143.98   18.29
  -3  -9   2  375.86   30.90
   3  -9  -2  417.62   18.09
  -3  -9   2  420.35   24.01
  -3   9   2  410.44   17.80
  -3   9   2  440.51   17.67
   3   9  -2  416.54   18.28
  -3   9   2  458.30   24.36
  -3   9   2  434.75   23.74
  -1  -9   2  316.81   14.31
  -1  -9   2  315.13   14.42
  -1  -9   2  397.57   22.67
  -1  -9   2  321.52   19.60
   1  -9  -2  325.14   14.49
   1  -9  -2  322.99   14.14
   1  -9  -2  332.31   14.39
  -1   9   2  361.33   20.60
  -1   9   2  354.39   15.99
  -1   9   2  335.74   19.36
  -1   9   2  318.81   14.53
   1   9  -2  328.43   14.56
  -1   9   2  335.98   14.55
  -1  -9  -2  218.50   16.45
   1  -9   2  183.57    9.23
  -1  -9  -2  188.14    9.22
  -1  -9  -2  183.92   14.81
  -1  -9  -2  180.01    9.20
  -1  -9  -2  181.40    9.78
   1  -9   2  191.66    9.09
  -1   9  -2  184.73    9.10
   1   9   2  193.08    9.39
  -1   9  -2  188.82   14.74
  -1   9  -2  183.21    8.93
  -1   9  -2  218.75   16.61
  -3  -9  -2   83.83   12.95
  -3  -9  -2   84.78    8.05
  -3  -9  -2   72.70   13.89
  -3   9  -2   81.01   12.17
  -3   9  -2   81.28   12.77
  -5  -9  -2   65.90    9.19
  -7  -9  -2   23.95   10.50
  -8 -10   2   18.38   10.33
  -6 -10   2   40.21   22.69
  -6 -10   2   54.12    9.16
  -6 -10   2   49.87   14.44
  -6  10   2   57.95   12.55
  -6  10   2   47.03   11.87
  -4 -10   2   18.60   19.81
  -4 -10   2    2.77    5.53
  -4 -10   2   -1.50    8.23
   4 -10  -2    1.30    4.34
  -4  10   2    1.96    8.38
   4  10  -2    1.95    4.11
  -4  10   2    3.21    6.53
  -2 -10   2   -1.90    9.89
  -2 -10   2    3.62    3.36
  -2 -10   2    4.72    6.53
   2 -10  -2    5.50    3.17
   2 -10  -2    2.17    3.15
  -2 -10   2    7.47    3.53
   2 -10  -2    1.66    3.45
  -2  10   2   -0.12    2.80
  -2  10   2   -0.27    3.55
   2  10  -2   15.31    3.94
  -2  10   2    2.95    3.22
  -2  10   2    3.51    5.83
  -2  10   2    1.05    7.70
   0 -10  -2  -10.72    8.87
   0 -10   2    4.74    6.12
   0 -10  -2   -1.52    3.13
   0 -10  -2    5.61    3.07
   0 -10   2    5.05    3.27
   0 -10   2    0.78    2.89
   0 -10  -2   -5.31    3.23
   0 -10  -2   -2.65    6.07
   0  10  -2    2.89    3.39
   0  10   2    2.35    3.53
   0  10  -2   23.37    9.36
   0  10   2    5.44    8.04
  -2 -10  -2  396.39   17.56
  -2 -10  -2  393.55   22.62
   2 -10   2  380.68   16.51
  -2 -10  -2  362.45   16.19
  -2 -10  -2  366.85   24.25
  -2  10  -2  384.38   16.31
  -2  10  -2  384.14   16.12
  -2  10  -2  398.19   22.39
   2  10   2  372.96   16.62
  -2  10  -2  365.95   16.38
  -2  10  -2  425.28   23.48
  -4 -10  -2  105.59   10.30
  -4 -10  -2  110.82   18.58
  -4  10  -2  112.53   14.73
  -4  10  -2  106.82   16.19
  -6 -10  -2   10.71    7.98
  -8 -10  -2   49.35   12.65
  -7 -11   2   19.01    8.39
  -7 -11   2   23.26   15.47
  -7  11   2   30.76   13.14
  -7  11   2   30.34   12.98
  -5 -11   2   66.57   13.38
   5 -11  -2   74.09    7.65
  -5 -11   2   78.78    9.15
  -5  11   2   65.68   12.19
  -5  11   2   73.79   13.88
  -3 -11   2  252.36   20.11
  -3 -11   2  260.07   28.75
   3 -11  -2  235.07   11.86
  -3  11   2  250.87   18.33
  -3  11   2  227.16   11.34
   3  11  -2  245.43   12.00
  -3  11   2  218.64   11.55
  -3  11   2  256.92   11.39
  -3  11   2  215.89   19.72
  -1 -11   2   41.65    4.25
  -1 -11   2   47.00    4.47
   1 -11  -2   39.22    4.29
  -1 -11   2   38.35    8.20
   1 -11  -2   44.82    4.70
   1 -11  -2   39.21    4.34
  -1 -11   2   42.72    4.75
  -1  11   2   49.58    4.81
  -1  11   2   44.19    9.03
  -1  11   2   49.50    5.12
   1  11  -2   48.35    4.84
   1 -11   2  303.50   14.34
  -1 -11  -2  318.02   20.73
  -1 -11  -2  319.37   14.25
  -1 -11  -2  304.44   14.28
  -1 -11  -2  318.79   14.72
  -1 -11  -2  326.31   21.78
   1 -11   2  327.19   14.15
  -1  11  -2  327.11   14.27
  -1  11  -2  324.73   20.21
  -1  11  -2  325.79   13.98
  -1  11  -2  354.72   22.23
   1  11   2  311.12   14.55
  -3 -11  -2   80.58    8.16
  -3 -11  -2   73.77   12.90
  -3 -11  -2   66.40   10.72
   3 -11   2   68.86    6.40
  -3  11  -2   73.31   13.30
   3  11   2   81.91    7.08
  -3  11  -2   67.87   11.40
  -5 -11  -2   36.95    8.42
  -5  11  -2   32.22   11.23
  -5  11  -2   18.47    9.67
  -7 -11  -2   25.34   10.54
  -8 -12   2   75.95   12.11
  -8  12   2   56.76   15.48
   6 -12  -2   13.87    6.36
  -6 -12   2    5.23   13.47
  -6 -12   2    4.34    7.31
  -6  12   2    7.01   11.29
  -6  12   2   12.04   10.35
  -4 -12   2   79.89   13.02
  -4 -12   2   77.13   22.17
   4 -12  -2   87.68    7.42
  -4 -12   2   95.85    9.59
  -4  12   2  101.18   17.58
  -4  12   2   69.41   11.75
   4  12  -2   84.10    7.22
   2 -12  -2   48.75    4.74
  -2 -12   2   46.17    4.78
  -2 -12   2   54.00    5.30
  -2 -12   2   32.72   10.69
  -2 -12   2   40.11    8.97
   2 -12  -2   49.11    4.95
   2 -12  -2   52.29    5.25
  -2  12   2   35.81    8.54
   2  12  -2   55.76    5.55
  -2  12   2   46.07    4.46
  -2  12   2   39.89    9.37
  -2  12   2   57.22    5.21
  -2  12   2   62.70    5.46
   0 -12  -2   22.29    3.86
   0 -12  -2   20.32    3.76
   0 -12   2   18.08    7.07
   0 -12   2   18.68    3.69
   0 -12  -2   15.68    4.11
   0 -12   2   20.22    4.18
   0 -12  -2   17.51    7.60
   0  12  -2   -0.31    9.56
   0  12  -2   27.00    4.29
   0  12   2   18.23    4.35
   2 -12   2  149.14    8.78
  -2 -12  -2  146.01   18.80
  -2 -12  -2  153.01    9.93
  -2 -12  -2  161.85   17.34
  -2 -12  -2  151.90    8.69
  -2  12  -2  150.87    8.60
  -2  12  -2  159.65   15.82
  -2  12  -2  156.35    8.14
  -2  12  -2  152.12    8.90
   2  12   2  149.39    9.02
  -2  12  -2  165.62   17.34
  -4 -12  -2    8.76    6.91
   4 -12   2    5.88    4.74
  -4 -12  -2    6.50   10.14
  -4 -12  -2   11.55   15.03
  -4  12  -2   12.22    8.90
  -4  12  -2    7.43   10.02
  -6 -12  -2   18.12    8.18
  -6  12  -2   10.23   10.05
  -6  12  -2   21.97   11.68
  -8 -12  -2   15.81   11.98
  -7 -13   2   41.42   16.43
  -7 -13   2   60.51   11.97
  -7 -13   2  -18.35   27.45
  -7  13   2   54.47   15.39
   5 -13  -2  111.67    9.20
  -5 -13   2   95.06   24.32
  -5 -13   2  117.43   12.36
  -5 -13   2   83.81   15.80
  -5  13   2  128.20   20.06
  -5  13   2  109.90   18.13
   5  13  -2   95.18    8.94
   3 -13  -2  119.38    8.42
  -3 -13   2  109.99    8.59
  -3 -13   2  146.21   25.41
   3 -13  -2  136.74    8.07
  -3 -13   2  118.10   17.53
   3 -13  -2  112.11    8.56
  -3  13   2  120.20   18.04
  -3  13   2  125.57    7.96
   3  13  -2  124.98    8.90
  -3  13   2  123.22    8.14
  -3  13   2  127.09    8.43
  -3  13   2  121.70   15.33
   1 -13  -2  183.34    9.86
   1 -13  -2  187.97    9.88
  -1 -13   2  170.12    9.75
  -1 -13   2  177.81   17.72
   1 -13  -2  183.06    9.38
  -1 -13   2  179.47   10.03
  -1 -13   2  179.73    9.35
  -1  13   2  182.33   10.21
  -1  13   2  184.85   10.32
  -1  13   2  189.25   18.06
   1  13  -2  191.70   10.18
   1 -13   2   74.93    6.33
  -1 -13  -2   57.40   10.57
   1 -13   2   72.82    6.15
  -1 -13  -2   67.95    5.83
  -1 -13  -2   76.89    6.51
  -1 -13  -2   77.71    7.01
  -1 -13  -2   82.89   14.08
   1  13   2   80.97    7.05
  -1  13  -2   71.92    5.86
  -1  13  -2   72.48   13.23
  -1  13  -2   56.50   11.71
  -1  13  -2   82.73    6.26
  -3 -13  -2   36.95    6.96
  -3 -13  -2   30.51   10.69
   3 -13   2   36.53    5.18
  -3 -13  -2   32.72   13.78
  -3  13  -2   21.12   10.88
  -3  13  -2   30.61    9.37
   3  13   2   36.15    5.65
  -5 -13  -2   26.98   21.08
  -5 -13  -2   72.87   10.11
   5 -13   2   85.06    8.71
   5 -13   2   90.64    8.31
  -5 -13  -2   77.94   16.81
  -5  13  -2   61.12   13.00
  -5  13  -2   76.85   15.04
  -7 -13  -2   23.71   10.64
  -7  13  -2   11.91   12.49
  -7  13  -2   14.88   13.20
  -8 -14   2  -12.18   16.24
  -8 -14   2    8.76   11.32
  -8  14   2   21.77   13.77
  -6 -14   2   21.96   14.04
   6 -14  -2   11.67    6.53
  -6 -14   2   21.82    9.66
  -6  14   2   25.18   12.63
   6  14  -2   18.71    6.28
   4 -14  -2   10.70    5.43
  -4 -14   2  -18.02   18.38
  -4 -14   2   22.35   10.50
  -4 -14   2   18.07    7.81
  -4  14   2    4.53   11.07
  -4  14   2    8.62    8.51
   4  14  -2   17.42    5.90
   2 -14  -2   85.85    7.49
  -2 -14   2   99.94    8.26
  -2 -14   2   71.30   14.09
   2 -14  -2   78.01    7.17
  -2 -14   2  103.84    7.68
  -2 -14   2  102.02   16.66
   2 -14  -2   88.98    7.12
  -2  14   2   81.93    6.89
  -2  14   2   99.19    7.38
  -2  14   2   85.15   14.02
  -2  14   2   75.11   12.42
   2  14  -2  116.61    8.33
  -2  14   2   96.53    7.38
   0 -14  -2   84.32    6.65
   0 -14   2  108.36   14.72
   0 -14  -2   86.04    7.42
   0 -14  -2   84.74    7.17
   0 -14  -2   81.46   14.72
   0 -14   2   98.07    6.70
   0 -14   2   93.91    7.02
   0 -14   2   86.79    7.49
   0  14  -2   80.85    7.63
   0  14   2   97.81    7.44
   2 -14   2   13.18    4.26
  -2 -14  -2   21.34    5.00
  -2 -14  -2    5.50    9.86
  -2 -14  -2    8.95    8.89
  -2 -14  -2   11.75    4.46
   2 -14   2   15.97    4.69
  -2  14  -2   19.25    4.44
  -2  14  -2   16.52    4.51
  -2  14  -2   13.92    3.81
   2  14   2   44.94    5.97
  -2  14  -2   13.59    8.44
  -2  14  -2    8.91   10.09
  -4 -14  -2   89.40   10.26
  -4 -14  -2   77.25   14.72
  -4 -14  -2   65.77   17.67
   4 -14   2  105.38    9.38
  -4  14  -2   75.50   15.23
  -4  14  -2   62.89   12.70
   4  14   2  105.46    9.32
  -6 -14  -2    5.57   13.87
  -6 -14  -2  -31.43   20.61
  -6 -14  -2   28.93   10.15
  -6  14  -2   10.15   11.58
  -6  14  -2   20.92   13.65
  -8 -14  -2    4.66   12.25
   7 -15  -2   76.08   11.33
  -7 -15   2   54.81   19.52
  -7 -15   2   53.51   11.04
  -7  15   2   58.81   16.35
  -5 -15   2  113.43   12.70
   5 -15  -2  119.01   10.37
  -5 -15   2   99.84   18.71
   5  15  -2  110.64    9.58
  -5  15   2   92.09   17.02
  -3 -15   2   22.94    5.99
   3 -15  -2   15.49    4.96
  -3 -15   2    0.80   14.26
   3 -15  -2    5.16    5.43
  -3 -15   2   23.07    7.00
  -3 -15   2   21.77   10.73
  -3  15   2    3.63    4.80
   3  15  -2   22.59    5.74
  -3  15   2    7.24   11.32
  -3  15   2   14.39    8.89
  -3  15   2   20.64    5.22
  -3  15   2   10.24    4.11
  -1 -15   2   83.98    6.51
   1 -15  -2   89.58    6.55
   1 -15  -2   81.19    7.32
   1 -15  -2   94.11    6.96
  -1 -15   2   83.30    7.39
  -1 -15   2   83.48    7.34
  -1 -15   2   72.41   12.07
  -1  15   2   68.13   12.94
  -1  15   2   88.71    7.68
  -1  15   2   91.67    7.54
   1  15  -2   93.45    7.91
   1 -15   2   49.68    5.43
   1 -15   2   51.83    5.40
  -1 -15  -2   44.24    5.66
  -1 -15  -2   23.50   10.05
  -1 -15  -2   50.61    5.92
  -1 -15  -2   31.84   10.17
   1 -15   2   42.64    5.95
  -1 -15  -2   41.36    6.29
  -1  15  -2   34.84   12.14
  -1  15  -2   42.03    4.87
  -1  15  -2   43.12    5.64
  -1  15  -2   35.97   10.40
   1  15   2   53.76    6.31
  -3 -15  -2   23.28   15.30
   3 -15   2   31.44    5.52
   3 -15   2   34.06    6.14
  -3 -15  -2   20.04   12.48
  -3 -15  -2   37.89    8.14
   3  15   2   49.04    6.99
  -3  15  -2   34.21    5.30
  -3  15  -2   28.51    4.52
  -3  15  -2   31.43   12.60
  -3  15  -2   30.86   10.38
   5 -15   2   54.99    7.33
  -5 -15  -2   32.87    9.82
  -5 -15  -2   -0.32   18.14
  -5 -15  -2   55.65   15.24
   5  15   2   48.70    7.38
  -5  15  -2   43.23   15.22
  -5  15  -2   36.98   12.78
  -7 -15  -2   15.28   17.29
  -7 -15  -2   33.82   12.97
  -7  15  -2    1.54   14.92
   6 -16  -2   12.48    7.85
  -6 -16   2   11.52   14.51
  -6 -16   2   18.24    9.04
   6  16  -2   20.20    6.87
  -6  16   2   11.42   13.91
   4 -16  -2   60.07    7.75
  -4  16   2   66.93   14.63
  -4  16   2   67.63    7.07
  -4  16   2   55.95    6.06
   2 -16  -2    2.44    4.82
  -2 -16   2    7.91   10.02
  -2 -16   2   24.04    5.62
   2 -16  -2    8.40    5.49
  -2 -16   2   25.18    5.99
   2 -16  -2    4.00    4.51
  -2 -16   2    3.05   12.50
  -2  16   2    4.88    5.21
   2  16  -2   26.87    6.25
  -2  16   2    4.05    4.93
  -2  16   2    5.67    4.13
  -2  16   2   -0.69   10.14
   0 -16  -2   70.98    6.90
   0 -16  -2   72.44   13.02
   0 -16   2   83.33    7.23
   0 -16   2   95.51    7.34
   0 -16  -2   83.33    7.91
   0 -16   2   91.56    8.18
   0 -16   2   90.26   16.07
   0 -16  -2   82.33    7.10
   0  16   2   96.47    8.16
   0  16  -2   95.83    7.87
  -2 -16  -2   66.27   13.50
   2 -16   2   78.91    7.66
  -2 -16  -2  112.31    9.10
   2 -16   2   91.96    7.57
  -2 -16  -2   60.40   14.59
   2 -16   2   66.15    6.78
  -2 -16  -2  104.19    9.32
  -2  16  -2   86.48    7.31
  -2  16  -2   83.25    7.50
  -2  16  -2   82.46    7.21
  -2  16  -2   94.39   15.90
   2  16   2  121.06    9.85
  -2  16  -2   50.01   14.76
  -4 -16  -2   10.00   13.49
  -4 -16  -2   -1.95   17.48
   4 -16   2   16.23    6.44
   4 -16   2   19.00    6.05
  -4 -16  -2   24.97    8.40
  -4  16  -2   16.36   11.82
  -4  16  -2   11.12   13.77
   4  16   2   21.77    6.65
  -6 -16  -2   14.10   17.62
  -6 -16  -2    3.85    8.65
   6 -16   2   13.60    7.02
  -6  16  -2   14.85   15.29
  -7 -17   2   43.38   20.98
  -7 -17   2   46.58   14.45
   7 -17  -2   55.27   11.60
  -7  17   2   33.21   17.27
   7  17  -2   39.14    8.44
  -5 -17   2   28.46    9.95
   5 -17  -2   21.97    8.04
  -5 -17   2   23.59   15.07
  -5  17   2   12.86   13.83
   5  17  -2   23.70    7.54
  -3 -17   2   79.34   16.37
  -3 -17   2   78.79   10.41
   3 -17  -2   97.05    7.93
  -3 -17   2   84.66    8.46
   3 -17  -2   87.63    8.66
  -3 -17   2   98.69    8.80
  -3  17   2   88.75    8.27
  -3  17   2   89.69    7.88
  -3  17   2   56.95   15.62
   3  17  -2   92.74    9.10
  -3  17   2   93.53    8.18
  -1 -17   2    0.63    5.51
   1 -17  -2   -5.06    5.00
   1 -17  -2    1.68    5.19
  -1 -17   2   14.57    5.31
   1 -17  -2   -6.09    5.26
  -1 -17   2    7.77   10.25
  -1 -17   2    7.99    5.30
   1  17  -2   10.50    6.05
  -1  17   2   -4.45    5.47
  -1  17   2    6.17    6.01
  -1  17   2   -5.27   11.57
  -1 -17  -2   84.75    8.34
  -1 -17  -2   87.19    7.47
   1 -17   2   87.06    7.72
   1 -17   2   99.86    7.83
  -1 -17  -2   96.27    7.88
  -1 -17  -2   78.22   15.13
   1 -17   2   88.89    7.78
  -1  17  -2   71.09   18.48
  -1  17  -2   78.06    7.20
  -1  17  -2   90.96    8.14
  -1  17  -2  103.75    8.45
   1  17   2   95.06    8.72
  -3 -17  -2   47.91   14.80
  -3 -17  -2   69.99    9.66
   3 -17   2   61.52    8.16
  -3  17  -2   61.45    6.43
  -3  17  -2   33.72   15.06
  -3  17  -2   64.11    6.99
   3  17   2   86.83    9.02
   5 -17   2   94.07    9.94
  -5 -17  -2   93.33   13.22
  -5 -17  -2   91.63   20.56
  -5  17  -2   76.56   18.24
   5  17   2   68.18    9.86
  -7 -17  -2    6.60   18.60
   7 -17   2    6.64    9.47
  -7  17  -2    3.05   16.62
  -6 -18   2   80.43   19.70
   6 -18  -2   93.96   10.19
  -6 -18   2   82.14   14.58
  -6  18   2   67.92   19.23
   6  18  -2   78.29   10.78
  -4 -18   2   24.67    9.35
   4 -18  -2   10.43    6.17
  -4 -18   2   21.41   14.21
  -4  18   2    9.77   13.19
   4  18  -2   23.51    7.30
  -4  18   2   15.15    6.00
  -4  18   2    7.20    4.75
  -2 -18   2   82.48   16.42
   2 -18  -2   81.61    8.99
   2 -18  -2  105.37    8.27
   2 -18  -2   93.08    8.37
  -2 -18   2  102.90    9.84
  -2 -18   2  100.02    8.68
   2  18  -2   91.23    9.75
  -2  18   2   58.97   16.14
  -2  18   2  122.69    9.38
  -2  18   2  100.27    9.49
   0 -18   2  122.37   10.63
   0 -18   2  107.30    9.46
   0 -18  -2  122.81   10.73
   0 -18  -2  132.48   22.13
   0 -18  -2  133.03   10.25
   0 -18  -2  133.07    9.49
   0 -18   2  120.60    9.74
   0  18   2  137.30   10.25
   0  18  -2  131.49   10.00
   2 -18   2  133.44   10.72
  -2 -18  -2  129.01   11.99
   2 -18   2  131.44    9.78
  -2 -18  -2  133.59   10.86
  -2 -18  -2  146.88   24.43
  -2 -18  -2  134.82   10.59
  -2  18  -2  102.75   20.16
   2  18   2  143.97   11.13
  -2  18  -2  125.64    9.55
  -2  18  -2  119.85   10.62
  -2  18  -2  106.76    9.96
  -4 -18  -2   98.81   20.20
   4 -18   2   91.41    9.86
  -4 -18  -2   93.42   11.86
   4 -18   2  100.04   10.87
  -4  18  -2   79.75   18.76
   4  18   2   96.75   10.38
  -6 -18  -2    5.37   15.81
   6 -18   2   10.02    7.83
  -6 -18  -2   12.52   11.29
  -6  18  -2   12.16   17.13
  -7 -19   2  107.81   18.76
   7 -19  -2  136.57   15.24
   7  19  -2   86.18   11.42
  -5 -19   2   18.84   16.25
   5 -19  -2   27.06    7.73
  -5 -19   2   32.28   10.39
  -5  19   2   17.49   16.97
   5  19  -2   16.23    7.66
  -3 -19   2   17.97    7.05
   3 -19  -2   33.65    6.66
  -3 -19   2   43.33    7.88
  -3 -19   2   32.88    9.04
  -3 -19   2   34.70   14.62
  -3 -19   2   28.09    8.31
   3 -19  -2   26.36    6.84
  -3  19   2   34.04    6.72
   3  19  -2   41.43    8.21
  -3  19   2   38.57    7.37
  -1 -19   2   51.62    8.07
  -1 -19   2   42.11    6.75
  -1 -19   2   33.75    7.59
   1 -19  -2   27.96    7.85
   1 -19  -2   42.04    6.83
   1 -19  -2   30.88    7.52
  -1  19   2   42.83    7.41
  -1  19   2   41.08    7.45
   1  19  -2   31.45    7.36
  -1 -19  -2   72.93   16.70
   1 -19   2   92.41    8.35
  -1 -19  -2   99.48    9.15
   1 -19   2  102.29    8.50
  -1 -19  -2   92.94    9.67
   1 -19   2   90.51    9.40
  -1  19  -2   92.85    8.99
  -1  19  -2   93.20    9.03
   1  19   2   98.43   10.02
   3 -19   2  127.13   11.14
  -3 -19  -2  117.13   12.44
  -3 -19  -2  117.12   10.72
  -3 -19  -2   98.41   19.38
   3 -19   2  113.72   10.51
  -3  19  -2  117.47    9.49
  -3  19  -2  110.75    9.43
  -3  19  -2   88.08   19.72
   3  19   2  104.89   11.74
  -3  19  -2  117.66    9.65
  -5 -19  -2   22.77   17.35
   5 -19   2   25.27    8.01
  -5 -19  -2   31.11   11.00
   5  19   2   36.17    9.03
  -5  19  -2    8.79   16.86
   6 -20  -2    1.42    9.56
  -6 -20   2    0.99   15.21
  -6 -20   2   25.74   12.68
   6  20  -2   -3.56    8.37
   4 -20  -2  262.28   15.78
  -4 -20   2  255.54   19.10
  -4 -20   2  283.58   33.00
  -4 -20   2  246.34   17.13
  -4  20   2  213.78   15.01
   4  20  -2  223.84   16.15
  -2 -20   2   12.58    6.67
  -2 -20   2   16.90    7.38
   2 -20  -2    9.48    6.21
   2 -20  -2    5.66    6.46
  -2 -20   2   27.30    7.42
  -2  20   2    3.30    6.71
   2  20  -2   16.42    7.75
  -2  20   2    8.75    6.37
   0 -20   2   12.34    5.86
   0 -20   2    7.43    7.14
   0 -20  -2    8.13    7.07
   0 -20   2    7.77    6.72
   0 -20  -2    1.99    7.01
   0 -20  -2    2.40    5.94
   0  20  -2   -0.21    6.39
   0  20   2    0.88    7.13
  -2 -20  -2  281.93   16.65
   2 -20   2  287.91   14.93
  -2 -20  -2  257.77   16.76
  -2 -20  -2  252.76   16.85
   2 -20   2  311.49   16.37
  -2 -20  -2  259.96   31.39
  -2  20  -2  221.13   14.97
  -2  20  -2  254.86   15.60
   2  20   2  241.31   16.49
  -4 -20  -2   27.36   18.62
  -4 -20  -2   34.83    9.81
   4 -20   2   19.44    8.13
  -4  20  -2  -15.01   16.46
   4  20   2   16.56    8.63
  -6 -20  -2   50.89   14.40
   6 -20   2   57.46   10.99
  -6 -20  -2   56.25   20.92
  -6  20  -2   48.10   21.06
   6  20   2   50.53   11.70
  -5 -21   2   29.25   11.99
   5 -21  -2   34.31   11.06
   5  21  -2   55.61    9.54
  -3 -21   2   47.84   11.08
   3 -21  -2   48.48    8.42
  -3 -21   2   44.26    9.57
   3  21  -2   31.92    9.40
  -3  21   2   32.84    7.36
  -3  21   2   34.00    7.96
   1 -21  -2   17.81    6.55
  -1 -21   2   14.52    7.08
  -1 -21   2   18.38    7.46
   1 -21  -2    8.76    7.96
  -1 -21   2   17.68    7.11
  -1 -21   2   12.34    7.56
   1 -21  -2   11.73    7.30
   1  21  -2   17.30    7.40
  -1  21   2   32.67    8.05
  -1  21   2   12.71    7.72
  -1 -21  -2   17.15    7.98
   1 -21   2   15.45    7.49
  -1 -21  -2   23.45    8.09
  -1 -21  -2    4.66    6.06
   1 -21   2   28.07    7.07
  -1  21  -2   21.68    7.19
   1  21   2   15.54    7.75
  -1  21  -2   19.16    7.16
   3 -21   2   28.61    7.59
  -3 -21  -2   30.12    9.88
  -3 -21  -2   21.63    9.57
   3 -21   2   17.02    7.70
  -3  21  -2   17.13    8.63
   3  21   2   10.12    8.86
  -3  21  -2   22.14    7.01
   5 -21   2   48.37    9.16
  -5 -21  -2   51.94   13.90
  -5 -21  -2   56.76   20.32
   5  21   2   52.80   10.86
   6 -22  -2   75.07   11.48
  -6 -22   2   87.43   16.91
   6  22  -2   60.33   11.82
   4 -22  -2    6.71    7.78
   4  22  -2   25.33    9.86
  -4  22   2   10.96    7.47
  -2 -22   2   32.44    9.22
  -2 -22   2   26.81    8.32
  -2 -22   2   26.67    9.14
  -2 -22   2    7.74    9.09
   2 -22  -2   34.40    7.11
   2 -22  -2   21.78    9.57
   2  22  -2   20.37    8.69
  -2  22   2   19.43    7.61
  -2  22   2   29.49    8.39
   0 -22   2   12.78    6.35
   0 -22   2   13.25    7.71
   0 -22  -2    1.72    6.59
   0 -22  -2   -5.14    7.72
   0 -22  -2    5.08    7.47
   0 -22   2   -6.73    6.83
   0 -22   2   13.48    7.85
   0  22  -2    2.57    7.03
   0  22   2    4.96    7.82
  -2 -22  -2   56.14    9.97
  -2 -22  -2   44.46   10.73
   2 -22   2   55.99    8.71
  -2 -22  -2   41.99    9.68
   2 -22   2   56.75    9.08
   2 -22   2   61.91    9.06
  -2  22  -2   46.55    8.78
   2  22   2   35.45    9.54
  -2  22  -2   56.79    8.95
   4 -22   2   22.84    8.32
   4  22   2    0.25    9.59
  -4  22  -2   15.86    6.99
  -5 -23   2   17.48   12.58
   5  23  -2   17.15   10.01
  -3 -23   2   38.70   10.11
  -3 -23   2   64.49   12.76
   3 -23  -2   24.85    8.58
  -3  23   2   39.46    8.80
  -3  23   2   27.46    8.27
   3  23  -2   34.22   10.27
   1 -23  -2   66.36    9.47
  -1 -23   2   49.09   10.32
   1 -23  -2   61.61   10.13
  -1 -23   2   60.21    8.63
  -1 -23   2   72.29   10.34
  -1 -23   2   49.26    9.25
  -1  23   2   55.71    9.94
  -1  23   2   48.66    9.28
   1  23  -2   41.27    9.55
   1 -23   2   21.36    8.08
   1 -23   2   25.25    8.43
  -1 -23  -2   23.08   10.26
  -1 -23  -2    3.17    8.77
   1 -23   2   22.20    8.45
   1  23   2   39.00    9.67
  -1  23  -2   27.95    8.19
  -1  23  -2   15.06    7.50
  -3 -23  -2   10.57    9.37
  -3 -23  -2    8.10    9.33
   3 -23   2    5.71    9.93
   3  23   2   29.37    9.41
  -3  23  -2   16.29    7.94
  -5 -23  -2   18.37   11.86
   5 -23   2   12.82    9.65
   5  23   2   14.21    9.46
  -4 -24   2   75.01   13.05
   4 -24  -2   62.91   10.75
  -4  24   2   57.53    9.63
   4  24  -2   80.93   13.10
   2 -24  -2   18.65    8.18
  -2 -24   2   21.18   10.80
  -2 -24   2   22.54   11.32
  -2 -24   2   39.39   10.72
   2 -24  -2   28.50    8.98
  -2  24   2   25.10    9.61
   2  24  -2   25.65    9.83
  -2  24   2   35.93    9.05
   0 -24   2    9.29    8.29
   0 -24  -2   22.55    8.48
   0 -24  -2   26.80    9.19
   0 -24   2   17.46    8.63
   0 -24   2    6.20    7.63
   0  24  -2    9.84    7.93
   0  24   2   21.82    8.89
  -2 -24  -2   63.81   12.59
   2 -24   2   54.00    9.95
  -2  24  -2   71.17   10.28
   2  24   2   72.09   10.82
  -2  24  -2   57.43    9.85
   4 -24   2    2.06    8.81
   4  24   2   25.32   10.50
  -3 -25   2   16.92    9.68
   3 -25  -2   19.40    9.27
  -3 -25   2    3.82   10.95
   3  25  -2    6.07    9.68
  -3  25   2   10.90    8.59
  -1 -25   2   36.91   11.92
   1 -25  -2   25.52    9.63
  -1 -25   2   33.50   11.59
   1 -25  -2   41.17    9.73
  -1  25   2   27.52    9.72
   1  25  -2   35.02    9.94
  -1 -25  -2   46.33   11.91
  -1 -25  -2   47.52   11.75
   1 -25   2   23.47    9.48
   1 -25   2   31.69    9.02
  -1  25  -2   33.31    9.99
   1  25   2   48.18   10.49
  -1  25  -2   44.41    9.37
  -3 -25  -2   13.17   11.05
   3 -25   2   18.05    9.52
  -3  25  -2   17.89    8.62
   3  25   2    8.03    9.13
   2 -26  -2   64.21    9.76
   2  26  -2   57.21   11.68
  -2  26   2   61.60   11.01
  -2  26   2   51.76   10.99
   0 -26   2   13.21    9.90
   0 -26  -2   17.67    8.96
   0 -26   2    9.68   10.33
   0  26   2   18.37    9.16
   0  26  -2   -1.44    8.47
  -2 -26  -2   38.37   11.01
   2  26   2   26.27   10.87
  -2  26  -2   26.97    9.47
  -3 -27   2   21.47   13.79
   1 -27  -2   24.93   10.35
   1  27  -2   14.90    9.83
  -1  27   2   36.49   10.99
   1 -27   2   39.83   11.19
  -1 -27  -2   61.26   13.26
   1 -27   2   21.54   10.40
  -1  27  -2   41.13    9.96
   1  27   2   25.70   10.76
   0 -28  -2   60.84   11.84
   0  28   2   63.67   12.57
   0  28  -2   52.47   11.72
  -8   0   3   31.67    9.26
  -6   0   3   16.25    6.89
  -4   0   3   34.59    5.01
   0   0  -3    1.06    1.14
   0   0   3    0.15    1.09
   0   0  -3    1.52    1.17
   0   0   3   -1.08    1.33
   0   0  -3    1.24    2.09
   0   0  -3    0.60    1.35
  -2   0  -3   -0.93    3.59
  -4   0  -3    5.02    4.38
  -6   0  -3    9.22    6.57
  -8   0  -3   -1.39    9.14
  -9  -1   3   78.88   13.50
  -9   1   3   81.62   12.93
  -7  -1   3  110.26   11.30
  -7   1   3  110.53   11.17
  -5  -1   3  474.65   22.30
  -5   1   3  496.02   22.07
  -3  -1   3   67.35    6.01
  -3   1   3   68.27    5.81
  -1  -1   3   37.90    3.24
  -1  -1   3   37.20    3.23
  -1  -1   3   37.31    3.15
   1  -1  -3   36.07    3.17
  -1  -1   3   40.61    6.59
  -1  -1   3   38.63    7.05
   1  -1  -3   35.82    3.18
  -1   1   3   42.70    3.15
  -1   1   3   43.05    6.31
   1   1  -3   40.65    3.30
  -1   1   3   37.43    3.24
  -1   1   3   34.85    2.96
   1   1  -3   39.56    3.27
  -1  -1  -3  344.96   14.32
  -1   1  -3  337.34   14.24
  -3  -1  -3   99.02    7.42
  -3   1  -3   98.56    7.21
  -5  -1  -3  383.07   18.98
  -5   1  -3  378.19   18.55
  -7  -1  -3   13.21    8.22
  -7   1  -3    9.28    7.48
  -9  -1  -3   26.02   10.85
  -9   1  -3   23.27   10.77
  -8  -2   3   37.70    9.42
  -8   2   3   26.60    8.98
  -6  -2   3  190.01   13.26
  -6   2   3  193.99   12.60
  -4  -2   3  228.56   12.17
  -4   2   3  244.42   11.84
   2  -2  -3 1060.48   43.13
  -2  -2   3 1105.86   45.69
  -2   2   3 1108.97   43.02
  -2   2   3 1092.74   43.04
   2   2  -3 1147.59   43.17
  -2   2   3 1101.02   45.52
  -2   2   3 1124.65   46.15
   0  -2  -3  126.01    7.40
   0  -2  -3  127.72    5.76
   0  -2  -3  129.44    5.67
   0  -2  -3  129.46    5.62
   0  -2  -3  130.77    5.66
   0  -2   3  132.38    5.62
   0  -2   3  131.76    5.75
   0  -2  -3  130.89    7.79
   0   2  -3  108.24    9.29
   0   2  -3  127.46    5.62
   0   2  -3  133.47    5.68
   0   2  -3  129.81    8.15
   0   2   3  128.38    5.61
   0   2   3  134.84    5.68
  -2  -2  -3   82.47    6.81
  -2   2  -3  108.88    6.66
  -4  -2  -3   73.86    6.93
  -4   2  -3   65.45    6.84
  -6  -2  -3  206.86   14.10
  -6   2  -3  210.09   13.51
  -8  -2  -3    5.74    9.12
  -8   2  -3   -1.40    8.32
  -9  -3   3    9.23   10.58
  -9   3   3   17.79    9.27
  -7  -3   3  139.08   13.51
  -7   3   3  145.00   12.47
  -5  -3   3  217.20   12.59
  -5   3   3  218.13   12.02
  -3  -3   3  505.20   24.44
  -3   3   3  528.43   26.38
  -3   3   3  496.20   24.00
   1  -3  -3  898.75   37.89
  -1  -3   3  854.92   34.18
   1  -3  -3  880.58   34.18
  -1  -3   3  862.61   36.47
  -1  -3   3  863.44   36.66
   1  -3  -3  873.81   34.24
   1  -3  -3  879.29   34.07
  -1  -3   3  814.15   34.18
  -1   3   3  899.38   34.26
  -1   3   3  865.45   34.14
  -1   3   3  885.19   34.21
  -1   3   3  879.45   36.49
   1   3  -3  913.18   34.25
  -1   3   3  880.45   36.43
  -1  -3  -3   94.05    6.09
  -3  -3  -3  422.77   19.07
  -3   3  -3  447.72   18.79
  -5  -3  -3  119.31   10.07
  -5   3  -3  107.48    9.05
  -7  -3  -3  146.40   13.97
  -7   3  -3  139.68   13.86
  -9  -3  -3   27.54   11.56
  -9   3  -3    2.60    9.34
  -8  -4   3   26.89    9.60
  -8   4   3   22.85    8.71
  -6  -4   3    1.68    6.76
  -6   4   3   -0.85    5.62
  -4  -4   3  227.93   11.97
  -4   4   3  214.23   16.73
   2  -4  -3  896.75   34.57
  -2  -4   3  881.24   34.69
  -2  -4   3  847.27   38.22
  -2  -4   3  874.17   37.93
  -2  -4   3  868.62   34.64
   2  -4  -3  871.93   34.81
  -2   4   3  883.59   34.74
  -2   4   3  906.65   34.66
  -2   4   3  877.27   34.70
  -2   4   3  897.38   38.06
   2   4  -3  910.46   34.84
  -2   4   3  891.59   37.73
   0  -4  -3    8.20    4.54
   0  -4   3    4.97    2.50
   0  -4   3    7.30    2.30
   0  -4  -3    9.73    4.05
   0  -4   3    5.06    7.28
   0  -4  -3    5.28    2.47
   0  -4  -3   10.13    2.36
   0   4  -3    7.35    4.87
   0   4  -3   10.00    2.43
   0   4  -3    5.83    2.24
   0   4   3    8.34    2.61
   0   4  -3    4.67    5.30
   0   4   3    6.78    2.38
  -2  -4  -3  208.76   10.52
  -4  -4  -3  103.89    8.54
  -4   4  -3  104.19    7.76
  -6  -4  -3   31.75    8.32
  -6   4  -3   40.35    7.20
  -8  -4  -3   14.40   10.13
  -8   4  -3   13.59    8.74
  -9  -5   3   37.72   11.88
  -9   5   3   30.37    9.63
  -7  -5   3   21.03    8.65
  -5  -5   3  103.22    9.50
  -5   5   3   98.26   13.91
   3  -5  -3  256.55   11.79
  -3  -5   3  270.09   16.66
  -3   5   3  274.22   15.94
  -3   5   3  265.47   19.46
  -1  -5  -3  107.68   10.27
  -1  -5  -3  111.24    6.95
   1  -5   3  115.31    6.07
  -1   5  -3  120.38   10.71
  -1   5  -3  115.56    5.82
  -1   5  -3  123.62   10.56
  -3  -5  -3   19.16    4.82
  -3   5  -3   31.13    4.34
  -5  -5  -3  457.00   21.81
  -5   5  -3  439.28   20.67
  -7  -5  -3   18.52    9.17
  -7   5  -3   37.02    8.21
  -9  -5  -3   36.77   10.65
  -9   5  -3   22.50   10.54
  -8  -6   3    5.72    9.03
  -6  -6   3   17.01    7.48
  -4  -6   3   90.06    8.29
  -4  -6   3   87.62   13.05
  -4   6   3   88.50   11.81
  -4   6   3   88.61   14.34
  -2  -6   3  392.82   21.13
  -2  -6   3  409.05   16.82
   2  -6  -3  398.10   16.96
  -2  -6   3  408.07   16.84
  -2  -6   3  409.49   16.94
  -2  -6   3  395.99   24.17
  -2   6   3  424.29   16.75
  -2   6   3  397.16   16.85
   2   6  -3  420.63   17.11
  -2   6   3  404.29   16.87
  -2   6   3  411.61   21.19
  -2   6   3  413.88   20.83
   0  -6  -3   41.74    6.92
   0  -6  -3   49.74    3.78
   0  -6   3   46.43    7.07
   0  -6   3   55.60    4.55
   0  -6   3   51.46    4.05
   0  -6  -3   49.03    4.06
   0  -6  -3   47.40    6.62
   0  -6  -3   50.26    3.64
   0   6  -3   46.81    7.31
   0   6  -3   56.36    8.23
   0   6  -3   48.24    3.91
   0   6  -3   46.42    3.71
   0   6   3   52.03    4.12
  -2  -6  -3  125.23    8.59
  -2   6  -3  165.11   11.93
  -4  -6  -3   67.91    7.53
  -4   6  -3   87.84    7.08
  -6  -6  -3   89.17   10.73
  -6   6  -3   87.49    8.98
  -8  -6  -3   50.98   12.64
  -8   6  -3   43.02    9.48
  -9  -7   3   17.39   10.93
  -7  -7   3   19.73    8.68
   1  -7  -3   10.69    3.05
  -1  -7   3    7.33    3.01
  -1  -7   3    7.64    3.20
   1  -7  -3    8.93    3.30
   1  -7  -3    5.74    5.90
   1  -7  -3    6.87    2.92
  -1  -7   3    6.76    5.82
  -1   7   3   11.77    3.30
  -1   7   3    6.41    5.39
   1   7  -3   10.56    3.24
  -1   7   3   10.37    3.14
  -1   7   3    4.58    5.22
   1  -7   3  404.74   16.77
  -1  -7  -3  362.78   16.54
  -1  -7  -3  437.39   21.27
  -1  -7  -3  394.25   17.22
  -1  -7  -3  391.59   21.02
   1   7   3  391.88   16.76
  -1   7  -3  402.97   16.69
  -1   7  -3  419.05   21.27
  -1   7  -3  437.45   21.45
  -1   7  -3  412.29   16.61
  -3  -7  -3  139.70    9.31
  -5  -7  -3  151.34   11.45
  -5   7  -3  159.63   10.55
  -7  -7  -3   26.54    8.96
  -7   7  -3   17.82    7.60
  -9  -7  -3   10.56   11.67
  -9   7  -3   18.34    9.44
  -8  -8   3   38.01   11.26
  -6  -8   3    5.82   11.79
  -6  -8   3    6.03   19.55
  -6  -8   3    2.48    6.64
  -6   8   3    4.42    9.20
  -6   8   3    6.90   10.94
  -4  -8   3  113.84   19.98
  -4  -8   3  125.98   15.25
   4  -8  -3  123.00    7.64
  -4  -8   3  129.78    9.61
  -4   8   3  123.42   13.18
  -4   8   3   99.33   15.55
  -2  -8   3  262.41   16.99
   2  -8  -3  251.54   11.50
  -2  -8   3  245.51   11.48
   2  -8  -3  258.37   11.61
  -2  -8   3  239.11   11.36
   2  -8  -3  258.04   11.15
  -2   8   3  259.89   11.52
  -2   8   3  242.53   17.82
  -2   8   3  256.46   16.28
  -2   8   3  249.32   11.52
  -2   8   3  272.75   11.35
   2   8  -3  258.20   11.74
   0  -8  -3   51.27    4.33
   0  -8   3   47.46    7.56
   0  -8  -3   50.57    4.12
   0  -8   3   54.39    4.41
   0  -8  -3   49.65    3.85
   0  -8  -3   45.35    7.52
   0  -8  -3   45.03    7.49
   0  -8   3   52.02    4.14
   0   8  -3   44.04    7.69
   0   8  -3   54.61    4.39
   0   8   3   53.14    4.52
   0   8  -3   39.99    8.80
  -2  -8  -3  251.71   12.46
  -2  -8  -3  244.51   16.24
   2  -8   3  241.62   11.32
  -2   8  -3  258.50   16.65
  -2   8  -3  270.87   17.94
  -4  -8  -3   27.41    6.41
  -6  -8  -3   36.29    8.41
  -8  -8  -3   23.76   11.13
  -9  -9   3   22.18   11.13
  -7  -9   3   25.21   23.15
  -7  -9   3   63.88   11.24
  -7   9   3   65.18   13.16
  -7   9   3   45.14   13.55
  -5  -9   3  172.04   21.38
   5  -9  -3  163.51   10.18
  -5  -9   3  148.88   25.10
  -5  -9   3  150.31   12.59
  -5   9   3  160.40   18.98
  -5   9   3  180.45   17.79
  -3  -9   3   76.71   17.15
  -3  -9   3   87.96   13.13
   3  -9  -3   63.30    4.84
   3  -9  -3   60.07    5.48
  -3  -9   3   74.35    5.76
  -3   9   3   58.57    5.12
  -3   9   3   58.54    9.50
   3   9  -3   78.11    6.28
  -3   9   3   65.46    5.83
  -3   9   3   74.46   11.16
  -1  -9   3  192.78    9.42
   1  -9  -3  182.99    9.32
   1  -9  -3  190.52    9.01
  -1  -9   3  176.53    9.20
  -1  -9   3  188.56   14.93
   1  -9  -3  200.93   14.99
   1  -9  -3  182.11    9.43
  -1   9   3  194.08    9.51
   1   9  -3  194.37    9.53
  -1   9   3  214.78   15.86
  -1   9   3  184.85    9.42
  -1  -9  -3  520.06   26.81
  -1  -9  -3  587.03   27.93
   1  -9   3  531.59   21.90
  -1  -9  -3  511.39   21.86
  -1  -9  -3  533.04   22.38
   1  -9   3  550.09   22.09
  -1  -9  -3  508.04   21.87
  -1   9  -3  544.06   27.07
  -1   9  -3  543.11   21.84
   1   9   3  522.15   22.12
  -1   9  -3  572.00   28.08
  -1   9  -3  535.46   22.00
  -3  -9  -3   76.53    7.78
  -3  -9  -3   56.72   11.89
  -3   9  -3   80.15   12.20
  -3   9  -3   78.38   12.87
  -5  -9  -3   73.93    9.64
  -7  -9  -3   14.39    8.36
  -8 -10   3   -5.28    9.35
  -8  10   3   28.23   12.72
  -6 -10   3   66.39   15.54
  -6 -10   3   71.06   24.49
  -6 -10   3   66.61   10.03
  -6  10   3   61.45   12.52
  -6  10   3   64.62   13.14
  -4 -10   3   23.23    9.47
  -4 -10   3   35.42    6.68
   4 -10  -3   25.22    4.90
  -4 -10   3   10.18   20.41
   4  10  -3   32.83    4.75
  -4  10   3   15.55    9.44
  -4  10   3   17.98    7.63
   2 -10  -3   20.60    4.23
  -2 -10   3   37.13    4.34
  -2 -10   3   30.98    3.97
   2 -10  -3   26.86    3.68
  -2 -10   3   31.96   12.41
   2 -10  -3   23.56    3.89
  -2 -10   3   26.37    7.53
  -2  10   3   28.56    3.66
  -2  10   3   27.91    3.93
  -2  10   3   22.63    8.06
   2  10  -3   30.95    4.38
  -2  10   3   31.87    4.27
  -2  10   3   24.69    6.97
   0 -10  -3  537.57   27.19
   0 -10  -3  507.72   21.37
   0 -10   3  523.92   21.67
   0 -10  -3  527.00   21.78
   0 -10  -3  521.38   21.72
   0 -10  -3  478.71   27.20
   0 -10   3  538.04   21.85
   0 -10   3  529.71   27.04
   0  10   3  505.55   21.85
   0  10  -3  604.81   31.11
   0  10  -3  530.29   21.83
  -2 -10  -3  385.08   18.26
  -2 -10  -3  393.55   23.16
   2 -10   3  406.34   17.38
  -2 -10  -3  405.74   24.81
  -2  10  -3  430.95   24.11
  -2  10  -3  403.28   17.17
   2  10   3  398.80   17.35
  -2  10  -3  419.54   16.98
  -2  10  -3  406.21   22.98
  -4 -10  -3   27.66    7.06
  -4  10  -3   23.93    8.67
  -4  10  -3   29.27    9.76
  -6 -10  -3    3.82    7.80
  -8 -10  -3   31.52    9.71
  -7 -11   3  -39.06   24.21
  -7 -11   3   20.08    8.41
  -7 -11   3   12.85   15.44
  -7  11   3   10.35   13.08
  -7  11   3   25.12   12.36
  -5 -11   3   71.01    9.65
  -5 -11   3   87.88   24.85
   5 -11  -3   78.82    7.78
  -5 -11   3   66.22   14.43
  -5  11   3   67.97   12.36
  -5  11   3   78.86   13.95
  -3 -11   3  178.88    9.76
  -3 -11   3  174.14   29.95
   3 -11  -3  175.28    9.67
  -3 -11   3  186.62   17.91
   3 -11  -3  181.84    9.09
   3  11  -3  174.13    9.95
  -3  11   3  176.88    9.47
  -3  11   3  185.42   18.13
  -3  11   3  194.32    9.23
  -3  11   3  187.75   16.07
  -3  11   3  169.86    9.63
   1 -11  -3  309.45   13.65
  -1 -11   3  317.60   20.17
  -1 -11   3  298.71   13.88
   1 -11  -3  310.58   13.91
  -1 -11   3  292.95   13.96
   1 -11  -3  309.76   19.74
  -1 -11   3  322.14   32.80
   1 -11  -3  303.13   14.02
  -1  11   3  341.28   21.27
  -1  11   3  318.61   14.20
   1  11  -3  309.27   14.14
  -1  11   3  300.00   14.17
  -1 -11  -3  204.63   10.81
  -1 -11  -3  221.50   17.51
  -1 -11  -3  211.43   16.87
   1 -11   3  219.72   10.32
  -1 -11  -3  202.38   10.35
   1 -11   3  217.38   10.54
  -1 -11  -3  208.97   10.41
  -1  11  -3  211.49   18.69
  -1  11  -3  217.40   10.07
  -1  11  -3  216.04   16.66
   1  11   3  212.35   10.66
  -1  11  -3  212.70   10.43
  -3 -11  -3   33.30    9.52
  -3 -11  -3   35.18    6.32
  -3 -11  -3   37.03   11.40
   3 -11   3   33.42    4.96
  -3  11  -3   26.22    8.40
  -3  11  -3   29.72    9.71
  -5 -11  -3  129.53   13.07
  -7 -11  -3   14.50   10.53
  -8 -12   3   63.31   13.89
  -8  12   3   55.71   15.12
   6 -12  -3    7.92    5.91
  -6 -12   3   -5.10   12.38
  -6 -12   3   -1.44    7.86
  -6  12   3    0.47   11.29
  -6  12   3    1.10    9.24
  -4 -12   3  104.51   10.05
   4 -12  -3   86.52    7.32
   4 -12  -3   95.86    7.85
  -4 -12   3   77.83   13.24
   4  12  -3   88.05    7.43
  -4  12   3   77.44   13.38
  -4  12   3   82.28   15.08
  -2 -12   3  149.04    8.83
  -2 -12   3  151.46    9.03
  -2 -12   3  126.70   19.39
   2 -12  -3  151.97    8.19
   2 -12  -3  141.52    8.68
   2 -12  -3  149.11    8.62
  -2 -12   3  153.01   16.71
  -2  12   3  154.65   14.96
   2  12  -3  152.35    9.22
  -2  12   3  155.89   16.54
  -2  12   3  152.61    8.96
  -2  12   3  161.13    8.33
  -2  12   3  155.00    8.86
   0 -12  -3  513.79   21.53
   0 -12  -3  530.80   28.20
   0 -12   3  504.10   21.43
   0 -12  -3  517.22   21.10
   0 -12   3  511.61   21.54
   0 -12   3  528.75   27.68
   0 -12  -3  533.25   21.40
   0  12   3  500.20   21.68
   0  12  -3  442.07   29.99
   0  12  -3  511.14   21.60
  -2 -12  -3   23.93    8.72
  -2 -12  -3   34.08    5.60
   2 -12   3   32.73    4.64
  -2 -12  -3   21.91    9.51
  -2 -12  -3   35.04    4.41
  -2  12  -3   29.66    4.33
   2  12   3   44.21    5.06
  -2  12  -3   31.44    4.27
  -2  12  -3   29.25    9.62
  -2  12  -3   22.02    8.05
  -2  12  -3   26.76    3.87
  -4 -12  -3    3.49    6.63
  -4 -12  -3   14.44   10.84
   4 -12   3   13.01    4.73
  -4 -12  -3   13.10   14.16
  -4  12  -3   13.16   10.45
  -4  12  -3    9.56    8.58
  -6 -12  -3   41.36   10.08
  -6  12  -3   45.12   13.13
  -6  12  -3   34.19   12.14
  -8 -12  -3   40.98   14.03
  -7 -13   3   55.47   19.43
  -7 -13   3   51.34   12.21
   7 -13  -3   55.13    9.38
  -7  13   3   55.81   15.59
  -5 -13   3  108.50   18.05
  -5 -13   3  105.96   11.44
   5 -13  -3  118.61    9.74
  -5 -13   3   61.31   24.69
   5  13  -3  100.26    8.72
  -5  13   3  102.74   18.04
  -5  13   3   91.88   15.55
   3 -13  -3  104.59    7.07
  -3 -13   3  111.30   16.75
  -3 -13   3   69.32   17.40
  -3 -13   3  103.09    8.24
   3 -13  -3  110.29    8.11
   3 -13  -3  125.78    8.02
   3  13  -3   91.30    8.37
  -3  13   3  106.25   14.58
  -3  13   3   89.49    7.91
  -3  13   3  108.91    7.36
  -3  13   3  104.38   17.90
  -3  13   3   85.90    7.58
   1 -13  -3   76.89    6.14
  -1 -13   3   75.06    6.23
  -1 -13   3   77.99    6.63
   1 -13  -3   72.58    6.00
  -1 -13   3   55.95    5.44
   1 -13  -3   72.35   13.44
   1 -13  -3   73.49    6.57
  -1 -13   3   62.51   10.56
   1  13  -3   73.06    6.73
  -1  13   3   47.83    9.63
  -1  13   3   80.86    6.29
  -1  13   3   76.42    6.85
  -1 -13  -3   97.30    7.23
  -1 -13  -3  108.02   15.77
  -1 -13  -3   99.96    7.58
   1 -13   3  103.17    7.03
   1 -13   3  106.70    7.29
  -1 -13  -3   81.61    7.54
  -1 -13  -3   83.87   11.92
  -1  13  -3   98.40   13.74
  -1  13  -3  112.43   14.27
  -1  13  -3   96.70    6.55
   1  13   3   99.21    7.59
  -1  13  -3  107.19    7.47
   3 -13   3   82.27    7.26
  -3 -13  -3   73.21   12.76
  -3 -13  -3   60.62    7.85
  -3 -13  -3   46.49   14.01
   3  13   3   70.63    6.62
  -3  13  -3   56.28   11.11
  -3  13  -3   71.17   13.57
  -5 -13  -3   28.69    8.60
  -5 -13  -3  -18.90   16.51
   5 -13   3   23.74    6.57
  -5 -13  -3   21.47   13.29
  -5  13  -3   21.15   10.51
  -5  13  -3   21.17   12.73
  -7 -13  -3   35.45   11.92
  -8 -14   3   26.08   11.83
  -8 -14   3   -8.17   17.17
  -8  14   3   26.06   14.06
  -6 -14   3   70.53   11.98
  -6 -14   3   76.51   17.87
   6 -14  -3  103.10   10.63
  -6 -14   3   10.68   28.32
  -6  14   3   75.99   15.88
   6  14  -3   72.65    8.07
  -4 -14   3  110.63   10.90
   4 -14  -3  109.53    9.23
  -4 -14   3   94.44   16.19
  -4 -14   3   47.09   22.04
  -4  14   3  110.36    7.87
  -4  14   3  106.04   16.48
  -4  14   3   99.66   16.01
   4  14  -3  111.28    9.35
  -4  14   3   91.46    7.89
   2 -14  -3  281.30   13.82
  -2 -14   3  261.90   14.47
  -2 -14   3  293.62   22.71
  -2 -14   3  216.80   26.83
   2 -14  -3  288.91   13.19
  -2 -14   3  267.20   13.74
   2 -14  -3  283.69   13.77
   2  14  -3  292.19   14.14
  -2  14   3  273.23   13.92
  -2  14   3  316.75   13.57
  -2  14   3  282.85   14.17
  -2  14   3  294.79   21.14
  -2  14   3  281.15   23.34
   0 -14  -3  131.05   16.74
   0 -14   3  124.41    8.69
   0 -14  -3  123.04    8.58
   0 -14  -3  134.44    8.41
   0 -14   3  128.68   15.79
   0 -14  -3  121.80    7.88
   0 -14   3  131.60    8.27
   0  14   3  126.69    8.95
   0  14  -3  114.65    8.55
   0  14  -3  142.22   18.59
   2 -14   3  240.27   12.43
   2 -14   3  255.59   12.24
  -2 -14  -3  210.72   13.61
  -2 -14  -3  214.95   22.85
  -2 -14  -3  220.13   12.14
  -2 -14  -3  237.21   21.85
  -2  14  -3  248.74   23.68
  -2  14  -3  233.76   11.50
  -2  14  -3  225.88   11.90
   2  14   3  215.88   12.73
  -2  14  -3  245.96   12.28
  -2  14  -3  232.97   20.10
  -4 -14  -3   38.90   15.88
  -4 -14  -3   53.84   15.04
  -4 -14  -3   49.00    9.14
   4 -14   3   61.16    6.82
  -4  14  -3   55.78   13.95
  -4  14  -3   47.61   11.79
  -6 -14  -3   -2.79    9.31
  -6  14  -3    0.07   10.82
  -6  14  -3    0.04   12.62
  -8 -14  -3    8.58   10.67
   7 -15  -3   52.80    9.61
  -7 -15   3   42.57   12.08
  -7 -15   3   40.27   19.44
  -7  15   3   54.91   15.54
  -5 -15   3  125.80   13.07
  -5 -15   3  111.25   18.86
   5 -15  -3  112.43   10.19
  -5  15   3  104.84   17.09
   5  15  -3  106.39    9.35
   3 -15  -3  129.38    8.68
   3 -15  -3  131.61   10.06
   3 -15  -3  143.76   11.38
  -3 -15   3  156.47   10.29
  -3 -15   3  139.50   19.23
  -3 -15   3  102.87   19.15
  -3 -15   3  125.67   10.47
  -3  15   3  131.95    9.45
  -3  15   3  139.76   17.45
  -3  15   3  133.00    9.86
  -3  15   3  159.60    9.20
   3  15  -3  140.47   10.04
  -3  15   3  127.26   18.27
  -1 -15   3   43.62    6.13
  -1 -15   3   44.24    5.40
  -1 -15   3   39.77    5.45
  -1 -15   3   40.72   10.24
   1 -15  -3   45.48   10.89
   1 -15  -3   43.76    5.70
   1 -15  -3   47.83    6.09
   1 -15  -3   46.53    5.61
   1  15  -3   52.29    6.32
  -1  15   3   29.11   10.51
  -1  15   3   41.69    5.74
  -1  15   3   54.26    6.38
  -1 -15  -3   70.49   12.24
   1 -15   3   77.91    6.35
  -1 -15  -3   81.60    6.75
   1 -15   3   73.49    6.86
  -1 -15  -3   69.09    6.48
  -1 -15  -3   42.39   12.05
  -1 -15  -3   67.07    7.64
   1  15   3   88.83    7.45
  -1  15  -3   83.65    6.90
  -1  15  -3   72.97    6.34
  -1  15  -3   74.42   15.78
  -1  15  -3   62.80   11.65
  -3 -15  -3   81.67    9.75
   3 -15   3   88.28    7.66
  -3 -15  -3   58.47   15.64
  -3 -15  -3   77.18   14.25
  -3  15  -3   99.59    7.38
  -3  15  -3   79.45   15.53
   3  15   3   80.03    7.99
  -3  15  -3   89.73   16.55
  -3  15  -3   97.54    7.16
   5 -15   3   18.10    6.18
  -5 -15  -3  -13.05   16.98
  -5 -15  -3   14.83   14.82
  -5 -15  -3   10.94    8.66
   5 -15   3   20.21    7.25
  -5  15  -3    7.46   13.38
  -5  15  -3   19.84   12.20
  -7  15  -3   -0.16   15.52
  -6 -16   3   -4.63    7.72
  -6 -16   3   10.79   14.30
   6 -16  -3    7.49    7.27
  -6  16   3   10.76   13.20
   6  16  -3    9.73    7.57
  -4 -16   3  377.94   30.50
   4 -16  -3  401.33   19.01
  -4 -16   3  351.32   21.11
  -4  16   3  367.06   17.30
  -4  16   3  395.96   31.06
   4  16  -3  358.74   18.65
  -4  16   3  362.09   17.93
   2 -16  -3  243.25   12.34
   2 -16  -3  220.32   12.47
  -2 -16   3  218.86   12.84
   2 -16  -3  223.44   12.95
  -2 -16   3  201.68   13.06
  -2 -16   3  165.46   29.89
  -2 -16   3  212.00   22.19
   2  16  -3  216.42   13.09
  -2  16   3  215.55   12.71
  -2  16   3  240.59   11.99
  -2  16   3  225.26   12.81
  -2  16   3  223.42   23.51
   0 -16  -3  221.96   12.29
   0 -16   3  239.17   12.31
   0 -16  -3  248.66   13.05
   0 -16   3  252.37   13.07
   0 -16  -3  259.12   13.49
   0 -16   3  228.62   13.09
   0 -16  -3  255.34   23.13
   0 -16   3  287.69   26.08
   0  16  -3  237.00   13.10
   0  16   3  234.02   13.55
   0  16  -3  196.18   29.15
   2 -16   3  507.76   23.84
   2 -16   3  561.34   23.37
  -2 -16  -3  536.79   34.21
  -2 -16  -3  456.15   22.98
  -2 -16  -3  502.68   35.46
  -2 -16  -3  491.90   24.33
  -2 -16  -3  499.53   23.14
  -2  16  -3  508.78   36.00
  -2  16  -3  537.29   22.35
  -2  16  -3  510.15   22.79
  -2  16  -3  523.15   32.90
   2  16   3  481.19   23.40
  -2  16  -3  525.61   22.93
   4 -16   3    5.15    5.92
  -4 -16  -3    6.39   13.29
  -4 -16  -3  -18.78   15.57
  -4 -16  -3   10.96    7.91
  -4  16  -3    2.75   10.28
   4  16   3    8.62    6.83
  -4  16  -3  -12.75   12.54
  -6 -16  -3   42.98   20.45
  -6 -16  -3   -2.59   23.32
   6 -16   3   37.83    8.80
  -6 -16  -3   37.47   11.07
  -6  16  -3   24.75   16.07
  -7 -17   3   48.91   11.57
  -7 -17   3   44.81   20.98
   7 -17  -3   48.27    9.82
   7  17  -3   50.11    9.12
  -7  17   3   39.07   16.86
   5 -17  -3   30.42    7.97
  -5 -17   3   37.38   15.48
  -5 -17   3   22.58    8.92
  -5  17   3   10.42   13.96
   5  17  -3   15.41    6.78
  -3 -17   3   47.77    7.38
  -3 -17   3   33.13   12.90
   3 -17  -3   20.07    6.44
   3 -17  -3   34.01    6.21
  -3 -17   3   45.11    7.41
  -3  17   3   30.06    6.26
  -3  17   3   15.98   12.36
  -3  17   3   12.80    5.84
   3  17  -3   27.45    6.87
  -3  17   3   17.13    4.99
  -1 -17   3   98.33    7.61
   1 -17  -3   87.72    9.04
  -1 -17   3   91.54    8.32
   1 -17  -3  107.74    8.02
   1 -17  -3  101.14    7.87
  -1 -17   3   94.22    8.73
  -1 -17   3   86.23   14.12
  -1  17   3  104.84    8.96
  -1  17   3   97.58    8.39
   1  17  -3  118.30    9.12
  -1  17   3   65.32   14.70
   1 -17   3   78.76    8.01
   1 -17   3   86.59    7.72
  -1 -17  -3   64.53   14.23
  -1 -17  -3   74.24    8.03
   1 -17   3   82.19    7.42
  -1 -17  -3   79.60    7.82
  -1  17  -3   86.22    7.73
   1  17   3   87.74    8.58
  -1  17  -3   81.07    7.10
  -1  17  -3   43.25   18.02
  -3 -17  -3  195.66   25.38
  -3 -17  -3  188.88   14.33
  -3 -17  -3  153.38   28.71
   3 -17   3  226.70   12.69
   3  17   3  187.10   13.29
  -3  17  -3  184.58   11.83
  -3  17  -3  143.09   21.56
  -3  17  -3  194.36   11.14
   5 -17   3   82.31   11.23
  -5 -17  -3   72.97   20.32
   5 -17   3   75.57    9.24
  -5 -17  -3   73.60   13.31
  -5  17  -3   63.59   18.36
   5  17   3   77.18   10.37
   7 -17   3   -1.45    9.02
  -7 -17  -3    1.92   16.98
  -7  17  -3    3.59   17.35
  -6 -18   3   46.45   12.00
   6 -18  -3   23.11    8.72
  -6 -18   3   43.09   16.88
   6  18  -3   34.90    8.61
  -6  18   3   14.29   15.70
  -4 -18   3  115.52   10.69
  -4 -18   3  140.32   13.32
   4 -18  -3   81.85    9.03
  -4 -18   3   78.54   17.88
  -4 -18   3   75.17    7.38
  -4  18   3   62.46   16.80
   4  18  -3   99.13    9.73
  -4  18   3   84.78    8.23
  -4  18   3   79.00    8.68
   2 -18  -3   73.46    7.84
  -2 -18   3   65.29    8.65
  -2 -18   3   74.69    8.53
   2 -18  -3   63.97    8.28
  -2 -18   3   55.64   14.62
   2 -18  -3   65.04    6.92
  -2  18   3   35.76   14.09
  -2  18   3   74.12    8.05
   2  18  -3   59.42    8.50
  -2  18   3   64.34    7.79
   0 -18  -3   16.39   11.53
   0 -18  -3   28.72    6.47
   0 -18   3   32.08    7.08
   0 -18   3   26.85    6.14
   0 -18   3   25.86    6.09
   0 -18  -3   36.02    7.44
   0 -18  -3   25.33    6.06
   0  18  -3   45.30    6.77
   0  18   3   53.08    7.64
   0  18  -3  -15.26   21.22
   2 -18   3   44.96    6.60
  -2 -18  -3   52.72    7.80
   2 -18   3   42.47    6.80
  -2 -18  -3   46.13    8.12
  -2 -18  -3   41.05   14.89
  -2 -18  -3   52.15    8.65
  -2  18  -3   44.51    6.81
  -2  18  -3   42.06    5.80
   2  18   3   78.12    8.38
  -2  18  -3   24.72   16.86
  -2  18  -3   49.17    6.98
  -4 -18  -3   88.20   20.63
  -4 -18  -3   87.62   13.59
   4 -18   3  104.91   10.46
   4  18   3  114.31   11.00
  -4  18  -3   67.91   18.60
  -6 -18  -3    8.40   11.61
  -6 -18  -3   -3.89   16.41
   6 -18   3   -2.23    8.97
  -6  18  -3   -9.19   15.88
   7 -19  -3   53.01   11.19
  -7 -19   3   53.55   22.80
  -7 -19   3   47.82   11.96
   7  19  -3   40.60   10.16
   5 -19  -3   18.71    8.76
  -5 -19   3   21.99   15.44
  -5 -19   3   35.04   10.09
   5  19  -3   38.20    8.29
  -3 -19   3    6.38   11.41
   3 -19  -3   13.18    6.26
  -3 -19   3   -1.99    6.13
  -3 -19   3   13.52    7.52
   3 -19  -3   10.21    6.60
  -3 -19   3   12.18    8.88
  -3  19   3   11.55    6.26
   3  19  -3   15.33    7.63
  -3  19   3   10.66    6.64
   1 -19  -3   89.43    9.66
   1 -19  -3   87.84    9.23
  -1 -19   3   98.42    9.32
  -1 -19   3   88.18    8.47
  -1 -19   3   98.00    9.18
   1 -19  -3   86.45    8.55
   1  19  -3  103.20    9.49
  -1  19   3   93.99    9.41
  -1  19   3   90.45    9.13
  -1 -19  -3   90.52    9.57
  -1 -19  -3   83.84   17.98
   1 -19   3   83.74    8.76
  -1 -19  -3   87.75    9.82
   1 -19   3   90.55    8.39
  -1  19  -3   87.58    9.05
   1  19   3   98.99   10.02
  -1  19  -3   95.12    8.79
   3 -19   3   23.29    6.62
  -3 -19  -3   23.53    8.44
  -3 -19  -3   25.86   14.53
  -3  19  -3   36.41    6.60
   3  19   3   52.81    8.52
  -3  19  -3   17.89    5.44
  -3  19  -3    0.33   16.48
  -5 -19  -3   49.01   12.53
  -5 -19  -3   19.71   17.71
   5 -19   3   47.17    8.43
  -5  19  -3   13.63   17.40
   5  19   3   23.21    8.03
   6 -20  -3   -7.72    7.40
  -6 -20   3   -1.04    8.94
   6  20  -3    3.41    8.02
   4 -20  -3  108.04   12.87
  -4 -20   3  170.84   13.93
  -4 -20   3  152.90   14.98
   4  20  -3  158.45   13.30
  -4  20   3  135.43   11.18
  -2 -20   3  146.84   12.29
  -2 -20   3  134.20   11.51
   2 -20  -3  113.12   10.67
   2 -20  -3  106.10    9.90
  -2  20   3  115.45   10.79
  -2  20   3   94.81    9.99
   2  20  -3  138.98   12.26
   0 -20   3   38.41    6.92
   0 -20   3   42.53    8.12
   0 -20  -3   36.73    6.99
   0 -20   3   41.79    8.19
   0 -20  -3   32.85    7.96
   0 -20  -3   28.04    7.64
   0  20  -3   43.24    7.90
   0  20   3   28.39    8.20
   0  20   3   29.79    8.16
   2 -20   3  103.93    9.40
  -2 -20  -3  125.63   12.40
  -2 -20  -3  140.22   25.72
   2 -20   3   79.75    9.72
  -2 -20  -3  140.13   11.26
   2  20   3  156.68   12.64
  -2  20  -3   93.03    9.55
  -2  20  -3   96.17    9.45
  -4 -20  -3   32.39   10.01
   4 -20   3   31.96    7.76
  -4 -20  -3   29.01   18.06
   4 -20   3   33.37    7.68
  -4  20  -3    5.52   17.64
   4  20   3   45.67    9.90
  -6 -20  -3   62.71   14.93
   6 -20   3   44.63   10.77
  -6 -20  -3   34.56   21.37
  -6  20  -3   29.68   21.18
   6  20   3   53.00   10.50
   5 -21  -3   38.26    8.96
  -5 -21   3   42.53   12.26
   5  21  -3   30.49    9.83
  -3 -21   3   22.56    8.24
  -3 -21   3   25.61    9.68
   3 -21  -3   25.87    7.69
  -3 -21   3   25.40   10.51
   3 -21  -3   32.85   10.12
  -3 -21   3   11.68    7.31
   3  21  -3   21.49    8.49
  -3  21   3   22.36    7.43
  -3  21   3   23.49    7.62
  -1 -21   3   16.74    7.36
  -1 -21   3   25.04    6.86
   1 -21  -3   20.09    6.44
   1 -21  -3   -1.73    6.95
  -1 -21   3   13.91    8.09
   1 -21  -3    3.60    6.35
   1  21  -3   24.81    7.80
  -1  21   3    6.59    6.93
  -1  21   3    5.74    7.52
  -1 -21  -3  114.03   10.44
  -1 -21  -3   93.07   10.31
   1 -21   3   89.08   10.10
   1 -21   3  106.29    9.08
  -1  21  -3   82.30    9.12
  -1  21  -3   76.34    9.55
   1  21   3   91.99   10.46
  -3 -21  -3   20.24    8.27
  -3 -21  -3   19.80    9.55
   3 -21   3   18.98    7.44
   3 -21   3   24.17    7.51
   3  21   3   24.63    8.44
  -3  21  -3   11.55    7.06
   5 -21   3   48.41   11.27
  -5 -21  -3   48.80   12.43
  -5 -21  -3   30.32   20.47
   5  21   3   37.77   10.70
   6 -22  -3   56.64   10.54
  -6 -22   3   72.32   16.37
   6  22  -3   57.40   11.40
  -4 -22   3   46.57   11.80
  -4 -22   3   35.15   11.06
  -4  22   3   33.83    8.33
   4  22  -3   35.64    9.86
  -2 -22   3   23.63    7.52
  -2 -22   3   25.84    8.59
   2 -22  -3    6.32    7.67
   2 -22  -3   15.62    7.10
  -2 -22   3   18.96    8.02
   2  22  -3   27.08    8.62
  -2  22   3    4.52    7.39
  -2  22   3   13.42    7.92
   0 -22   3   40.10    8.34
   0 -22  -3   24.00    9.41
   0 -22  -3   27.99    8.27
   0 -22   3   25.86    7.97
   0 -22  -3   25.13    8.88
   0 -22   3   35.55    7.48
   0  22  -3   23.33    7.71
   0  22   3   25.40    8.27
  -2 -22  -3   29.00    8.99
  -2  22  -3   19.60    7.66
   2  22   3   41.21    9.60
  -2  22  -3   14.56    6.98
   4 -22   3   10.54    7.73
   4  22   3    1.55   10.30
  -5 -23   3   21.90   12.91
   5  23  -3   25.40   10.36
   3 -23  -3   56.21    9.34
  -3 -23   3   29.66   11.00
  -3 -23   3   29.28   13.12
  -3  23   3   28.04    8.75
   3  23  -3   32.08    9.88
  -3  23   3   19.15    8.37
   1 -23  -3   33.24    7.26
  -1 -23   3   22.86    8.68
  -1 -23   3   23.04   10.50
  -1 -23   3   33.77    9.80
   1 -23  -3   30.79    8.73
  -1  23   3   30.75    9.48
  -1  23   3   27.26    8.71
   1  23  -3   33.40    8.94
  -1 -23  -3   31.04    8.54
  -1 -23  -3   38.44    9.61
   1 -23   3   30.51    8.96
   1 -23   3   40.82    8.85
   1 -23   3   47.94    9.41
   1  23   3   29.92    9.29
  -1  23  -3   35.67    8.24
  -1  23  -3   46.60    8.82
  -3 -23  -3   41.82   12.28
  -3  23  -3   31.06    8.55
   3  23   3   31.70   10.22
  -5 -23  -3   25.49   11.93
   5 -23   3   40.27   12.04
   5  23   3   38.49   11.92
  -4 -24   3   39.48   12.42
   4 -24  -3   39.89   10.17
  -4  24   3   57.35    9.66
   4  24  -3   68.84   11.19
  -2 -24   3   38.46   11.43
   2 -24  -3   29.38    9.58
  -2 -24   3   32.91   10.74
  -2 -24   3   33.19   10.37
   2 -24  -3   27.06   10.03
  -2  24   3   19.34    8.69
   2  24  -3   36.49    9.42
  -2  24   3   14.62    9.80
   0 -24   3   -9.20    7.99
   0 -24   3   11.82    8.07
   0 -24  -3    2.00    7.97
   0 -24  -3   -1.51    8.71
   0 -24  -3   -2.74    8.07
   0 -24   3    3.74    7.87
   0  24  -3    3.31    7.92
   0  24   3    2.18    8.69
   2 -24   3  109.04   11.98
   2 -24   3  109.96   12.29
  -2 -24  -3  111.07   12.10
   2  24   3  108.81   12.83
  -2  24  -3  120.52   11.79
  -2  24  -3  102.15   11.47
  -4 -24  -3    0.83    9.49
   4  24   3   -2.32    9.83
  -3 -25   3    4.78    9.56
  -3 -25   3    5.34   12.15
   3 -25  -3   -0.04    8.86
  -3  25   3    2.19    8.69
   3  25  -3   -4.91    9.64
   1 -25  -3   32.00    8.81
   1 -25  -3   30.09   11.41
  -1 -25   3   19.02    8.92
  -1 -25   3   30.94    8.95
  -1 -25   3   24.45   11.15
  -1 -25   3   28.25    8.20
   1  25  -3   37.37    9.31
  -1  25   3   23.40    9.40
  -1 -25  -3   21.10   10.94
   1 -25   3    1.98    7.08
  -1 -25  -3   19.57   10.24
   1 -25   3   -2.25    8.20
  -1  25  -3   -5.83    7.73
   1  25   3    9.72    9.82
  -1  25  -3    4.16    8.04
  -3 -25  -3    2.37   10.72
   3 -25   3    0.40    8.16
   3  25   3   10.09   10.94
  -3  25  -3    0.89    8.49
  -2 -26   3   52.10   13.01
   2 -26  -3   46.38    8.64
   2 -26  -3   52.52   11.45
  -2 -26   3   34.77   10.82
  -2  26   3   53.31   11.13
   2  26  -3   61.69   11.17
  -2  26   3   38.12   11.10
   0 -26   3    0.76    7.80
   0 -26  -3   23.99    9.97
   0 -26   3   11.08    9.67
   0  26  -3    8.76    8.39
   0  26   3   22.58   10.22
   2 -26   3   17.92    9.00
  -2  26  -3   16.62    9.16
   2  26   3   22.99   11.43
   1 -27  -3   40.58   10.99
  -1 -27   3   26.51    9.38
   1 -27  -3   20.51   10.41
  -1  27   3   30.11   11.20
   1  27  -3   29.50    9.73
   1 -27   3   34.11   10.88
   1 -27   3   43.77   11.30
  -1 -27  -3   55.50   12.39
  -1  27  -3   42.69   10.56
   1  27   3   46.97   11.99
  -1  27  -3   46.02   10.01
   0 -28  -3   49.42   11.54
   0 -28   3    7.36    9.68
   0  28   3   26.07   11.18
   0  28  -3    5.79    9.19
  -8   0   4   54.85    9.92
  -6   0   4  171.21   12.15
  -4   0   4 1350.84   51.88
  -4   0   4 1092.69   48.84
   2   0  -4 4222.13  164.93
  -2   0   4 4247.58  164.86
  -2   0   4 4126.13  164.81
  -2   0   4 4607.68  168.35
  -2   0   4 4182.81  164.81
  -2   0   4 4298.72  167.33
   0   0  -4  253.92   13.33
   0   0  -4  253.90   10.45
   0   0   4  267.56   10.55
   0   0  -4  261.45   12.26
  -2   0  -4  139.49    8.14
  -4   0  -4  284.75   14.24
  -6   0  -4   68.83    8.84
  -8   0  -4   55.72   11.20
  -9  -1   4   22.49   10.37
  -9   1   4   38.85    9.91
  -7  -1   4  119.57   12.64
  -7   1   4  117.77   11.29
  -5  -1   4   34.92    6.10
  -5   1   4   43.10    6.37
  -3  -1   4  235.15   15.29
  -3   1   4  223.52   20.80
  -1  -1   4  327.47   12.81
  -1  -1   4  309.82   12.80
   1  -1  -4  326.74   12.89
  -1  -1   4  291.93   15.67
  -1  -1   4  314.53   12.87
   1  -1  -4  313.58   12.85
  -1  -1   4  304.31   17.49
  -1   1   4  315.58   15.39
  -1   1   4  317.37   12.79
  -1   1   4  314.59   12.83
   1   1  -4  324.12   12.92
   1   1  -4  277.75   18.73
  -1   1   4  316.81   12.90
   1   1  -4  326.62   12.92
  -1  -1  -4  382.98   16.17
  -3  -1  -4  220.26   11.35
  -3   1  -4  218.38   11.14
  -5  -1  -4  559.39   25.29
  -5   1  -4  550.67   25.04
  -7  -1  -4   85.88   11.50
  -7   1  -4   81.93   11.68
  -9  -1  -4   52.40   14.45
  -9   1  -4   56.75   12.74
  -8  -2   4   11.56    8.23
  -8   2   4    9.05    8.42
  -6  -2   4  225.45   14.90
  -6   2   4  253.01   14.43
  -4  -2   4   55.22    5.87
  -4   2   4   50.65    9.33
  -4   2   4   58.54    5.56
  -4   2   4   45.48   10.24
  -2  -2   4 2723.15  109.99
  -2  -2   4 2703.40  107.40
  -2  -2   4 2721.52  107.42
  -2  -2   4 3097.56  111.18
   2  -2  -4 2751.53  107.52
  -2   2   4 2846.10  110.22
  -2   2   4 2718.92  107.41
  -2   2   4 2760.19  107.47
  -2   2   4 2744.86  109.79
   2   2  -4 2823.45  107.55
  -2   2   4 2729.72  107.40
   0  -2  -4  140.29    6.43
   0  -2   4  154.38    6.49
   0  -2  -4  146.84    6.42
   0  -2  -4  156.64    8.91
   0  -2   4  154.79    6.66
   0  -2  -4  149.12    6.45
   0   2   4  142.90    6.53
   0   2  -4  150.25    6.49
   0   2  -4  146.07    6.44
   0   2  -4  115.88    9.43
   0   2  -4  144.18    9.30
  -2  -2  -4  251.54   12.33
  -2   2  -4  270.61   12.19
  -4  -2  -4   58.73    6.59
  -4   2  -4   58.28    6.15
  -6  -2  -4  165.23   12.82
  -6   2  -4  169.84   12.49
  -8  -2  -4   12.02    9.50
  -8   2  -4   12.09    9.00
  -9  -3   4   24.39   10.20
  -9   3   4   11.93    9.20
  -7  -3   4  126.80   13.39
  -7   3   4  177.15   13.72
  -5  -3   4  110.58    9.33
  -5   3   4  113.27    8.59
   3  -3  -4  151.23    7.80
  -3  -3   4  182.90   13.69
  -3   3   4  145.39   11.90
   3   3  -4  158.23    7.85
  -3   3   4  134.63   15.74
   1  -3  -4  105.28    5.81
  -1  -3   4   97.15    5.64
   1  -3  -4   99.10    5.65
  -1  -3   4   95.03    5.74
   1  -3  -4  107.34    9.78
  -1  -3   4  113.30   10.61
  -1   3   4  102.12    9.10
  -1   3   4  104.39    5.92
   1   3  -4  102.96    5.65
  -1   3   4   97.21    5.76
  -1   3   4   99.13    5.46
  -1  -3  -4 1234.28   48.52
  -3  -3  -4   50.01    5.74
  -3   3  -4   47.31    5.37
  -5  -3  -4  242.84   14.22
  -5   3  -4  246.07   13.60
  -7  -3  -4  133.77   12.98
  -7   3  -4  113.75   11.46
  -9  -3  -4    9.11   10.81
  -9   3  -4    0.35   10.10
  -8  -4   4   -2.32    8.12
  -8   4   4    8.23    7.79
  -6  -4   4   74.94    9.19
  -6   4   4   75.50    8.03
  -4  -4   4  153.94   20.44
  -4  -4   4  156.64    9.25
  -4  -4   4  137.03   14.33
  -4   4   4  141.53   13.03
  -4   4   4  130.12   14.81
   2  -4  -4  853.97   33.89
  -2  -4   4  851.70   37.62
  -2  -4   4  843.42   34.04
   2  -4  -4  857.27   34.13
  -2  -4   4  837.84   34.00
  -2  -4   4  827.30   34.02
  -2   4   4  876.46   34.06
  -2   4   4  890.07   37.45
  -2   4   4  909.17   37.82
   2   4  -4  883.72   34.18
  -2   4   4  866.77   34.10
  -2   4   4  878.58   33.99
   0  -4   4  387.00   15.37
   0  -4  -4  375.40   15.41
   0  -4  -4  354.45   18.53
   0  -4  -4  374.16   15.36
   0  -4   4  388.51   15.49
   0  -4  -4  373.15   18.41
   0   4  -4  386.06   15.44
   0   4  -4  392.31   18.96
   0   4   4  377.54   15.43
   0   4  -4  381.13   15.36
   0   4   4  372.15   15.48
  -2  -4  -4  561.38   23.43
  -4  -4  -4   78.40    8.12
  -4   4  -4   88.74    7.55
  -6  -4  -4   58.05    9.67
  -6   4  -4   59.82    8.16
  -8  -4  -4    3.92    9.36
  -8   4  -4   21.22    9.13
  -9  -5   4   11.86   10.39
  -7  -5   4   12.01    8.04
  -5  -5   4   91.51    9.23
  -5   5   4   90.62   13.92
  -5   5   4   99.17   13.56
  -3  -5   4  431.93   22.81
   3  -5  -4  433.60   17.82
  -3   5   4  432.27   22.01
  -3   5   4  389.84   24.48
   3   5  -4  428.42   17.85
  -3   5   4  439.03   17.48
   1  -5  -4  124.12   11.38
  -1  -5   4  109.30    6.36
   1  -5  -4  112.13    6.06
   1  -5  -4  110.75    6.36
  -1  -5   4  118.93   11.48
   1  -5  -4  112.10    6.37
  -1  -5   4  110.54    6.39
   1   5  -4  126.51    6.55
  -1   5   4  116.97    6.47
  -1   5   4   91.97   10.73
  -1   5   4  109.45    6.10
  -1   5   4  112.57   10.45
  -1  -5  -4  256.57   14.48
  -1  -5  -4  258.70   14.67
   1  -5   4  261.92   11.20
  -1  -5  -4  265.48   11.94
  -1   5  -4  260.36   14.99
  -1   5  -4  278.31   15.36
  -3  -5  -4   64.06    6.19
  -5  -5  -4  152.76   11.57
  -5   5  -4  145.47   10.50
  -7  -5  -4    9.01    7.84
  -7   5  -4   15.97    7.71
  -9  -5  -4   61.31   14.04
  -9   5  -4   58.29   11.89
  -8  -6   4   -3.47    8.99
  -6  -6   4   94.02   10.31
  -6   6   4   72.06   14.39
  -6   6   4   74.01   12.21
  -4  -6   4  200.64   17.34
  -4   6   4  206.59   18.05
  -4   6   4  228.38   16.14
  -2  -6   4  601.25   28.49
   2  -6  -4  579.92   24.03
  -2  -6   4  580.82   23.98
  -2  -6   4  584.16   24.03
   2  -6  -4  588.87   24.15
   2  -6  -4  591.51   23.83
  -2  -6   4  603.08   24.04
  -2   6   4  612.84   28.04
  -2   6   4  613.96   28.24
  -2   6   4  595.57   24.11
  -2   6   4  591.50   24.10
   2   6  -4  599.08   24.26
  -2   6   4  614.18   23.97
   0  -6  -4  504.41   24.45
   0  -6  -4  510.93   21.04
   0  -6   4  513.54   21.13
   0  -6   4  523.78   21.07
   0  -6  -4  519.06   21.07
   0  -6  -4  529.42   24.97
   0   6  -4  524.49   21.09
   0   6  -4  542.53   25.29
   0   6   4  529.55   21.17
   0   6   4  534.04   21.18
   0   6  -4  516.01   26.56
   0   6  -4  519.32   21.00
  -2  -6  -4   97.80    7.16
  -4  -6  -4  107.24    8.98
  -4   6  -4   99.61    7.91
  -6  -6  -4   98.54   11.44
  -6   6  -4   99.41   10.38
  -8  -6  -4   15.89   10.40
  -8   6  -4   24.27    8.67
  -9  -7   4   14.99   10.48
  -7  -7   4   36.00    9.36
  -7  -7   4   27.55   19.24
  -7   7   4   25.91   10.64
  -7   7   4   11.38   13.31
  -5  -7   4  105.01   20.50
  -5  -7   4   95.59   17.31
  -5  -7   4  104.36    9.58
  -5   7   4  100.04   14.58
  -5   7   4   84.64   14.53
   3  -7  -4  594.51   24.81
  -3  -7   4  562.84   29.78
  -3  -7   4  580.53   24.53
  -3  -7   4  675.05   35.65
  -3   7   4  561.01   24.50
  -3   7   4  598.66   29.36
  -3   7   4  706.11   31.17
   3   7  -4  595.72   24.88
  -3   7   4  605.42   24.42
   1  -7  -4  394.31   21.11
   1  -7  -4  378.11   16.17
   1  -7  -4  379.30   16.45
  -1  -7   4  380.31   21.15
  -1  -7   4  382.44   16.46
   1  -7  -4  381.47   16.53
  -1  -7   4  452.94   25.55
  -1  -7   4  386.25   16.42
   1   7  -4  405.89   16.60
  -1   7   4  402.51   16.59
  -1   7   4  378.41   20.75
  -1   7   4  414.46   16.61
   1  -7   4   43.17    3.89
  -1  -7  -4   45.15    4.42
  -1  -7  -4   36.73    3.45
  -1  -7  -4   32.50    6.65
  -1  -7  -4   40.51    7.16
   1   7   4   44.13    3.84
  -1   7  -4   36.90    7.10
  -1   7  -4   46.13    3.55
  -1   7  -4   39.92    7.29
  -1   7  -4   44.28    3.71
  -3  -7  -4  124.76    8.83
  -5  -7  -4   63.38    8.55
  -7  -7  -4   52.13    9.97
  -7   7  -4   50.67    8.54
  -8  -8   4   36.44   10.73
  -8   8   4   33.47   13.72
  -6  -8   4   30.96   12.93
  -6  -8   4   38.40    7.89
  -6  -8   4   20.36   20.26
  -6   8   4   17.49    9.99
  -6   8   4   27.20   12.55
  -2  -8   4   86.85    5.87
  -2  -8   4   89.59   12.12
  -2  -8   4   85.41    5.84
   2  -8  -4   72.59    5.71
   2  -8  -4   75.70    5.81
   2  -8  -4   66.72    5.36
  -2   8   4   70.47   10.41
  -2   8   4   71.43    5.74
  -2   8   4   76.99    5.29
  -2   8   4   69.23    5.79
   2   8  -4   80.19    5.99
  -2   8   4   51.11    9.31
   0  -8  -4    8.34    6.36
   0  -8  -4    9.77    5.65
   0  -8  -4    5.51    3.38
   0  -8   4    7.41    3.19
   0  -8   4    9.81    3.08
   0  -8  -4    7.63    3.08
   0  -8  -4    8.48    2.94
   0   8   4    9.98    3.49
   0   8  -4    5.38    6.14
   0   8  -4    6.51    7.85
   0   8  -4    9.23    2.98
   0   8  -4   10.87    3.15
  -2  -8  -4  222.41   15.64
  -2  -8  -4  226.30   11.61
  -2   8  -4  230.15   16.94
  -2   8  -4  221.17   15.73
  -4  -8  -4   15.11    5.66
  -6  -8  -4  115.62   11.93
  -8  -8  -4  100.30   15.54
  -9  -9   4   13.75   11.15
  -7  -9   4   36.04   15.78
  -7  -9   4   45.08   10.41
  -7   9   4   51.31   13.41
  -7   9   4   53.62   12.65
  -5  -9   4   31.18    7.39
  -5  -9   4   33.43   11.37
   5  -9  -4   39.57    5.70
  -5   9   4   29.36    9.16
  -5   9   4   39.77   10.98
  -3  -9   4  228.18   18.28
  -3  -9   4  205.58   10.66
  -3  -9   4  160.21   25.50
   3  -9  -4  236.13   10.51
   3  -9  -4  223.88   11.07
  -3  -9   4  228.30   10.81
  -3   9   4  255.37   10.59
   3   9  -4  237.78   11.17
  -3   9   4  224.85   16.51
  -3   9   4  213.82   10.85
  -3   9   4  237.76   17.41
  -1  -9   4  522.76   27.19
   1  -9  -4  530.30   21.89
   1  -9  -4  554.63   22.23
  -1  -9   4  518.03   22.27
   1  -9  -4  533.08   22.27
   1  -9  -4  557.33   27.56
  -1  -9   4  520.20   22.15
   1   9  -4  544.68   22.40
  -1   9   4  554.30   22.36
  -1   9   4  543.65   22.35
  -1   9   4  563.31   27.66
  -1  -9  -4   14.07    3.20
  -1  -9  -4    9.94    3.84
  -1  -9  -4    8.41    6.69
   1  -9   4   12.66    3.28
  -1  -9  -4   21.97    7.04
   1  -9   4   10.91    3.46
   1   9   4   15.62    3.44
  -1   9  -4   10.45    3.13
  -1   9  -4   27.98    8.73
  -1   9  -4    9.68    6.63
  -1   9  -4   13.15    3.28
  -3  -9  -4   46.51    6.43
  -3   9  -4   48.23    8.93
  -3   9  -4   50.02    8.55
  -5  -9  -4   12.01    6.90
  -7  -9  -4   46.72   10.01
  -8 -10   4   10.48    8.66
  -8  10   4   16.43   12.42
  -6 -10   4   52.60    9.50
  -6 -10   4   51.81   14.54
  -6 -10   4   10.63   23.97
  -6  10   4   61.74   13.06
  -6  10   4   56.80   12.65
  -4 -10   4  161.69   18.15
   4 -10  -4  128.86    8.86
  -4  10   4  126.95   15.56
  -4  10   4  132.53   14.87
   4  10  -4  142.59    8.82
   2 -10  -4  369.93   16.28
   2 -10  -4  378.06   16.20
  -2 -10   4  376.03   16.38
   2 -10  -4  371.07   15.91
  -2 -10   4  378.94   16.18
  -2 -10   4  361.95   22.40
  -2 -10   4  342.81   28.48
  -2  10   4  378.92   21.63
  -2  10   4  364.41   16.22
  -2  10   4  383.67   15.98
   2  10  -4  369.47   16.38
  -2  10   4  376.27   22.81
  -2  10   4  377.26   16.28
   0 -10  -4   62.74    5.20
   0 -10   4   61.90    5.79
   0 -10   4   65.49    5.57
   0 -10  -4   57.43    9.06
   0 -10  -4   65.44    5.82
   0 -10  -4   73.50   12.45
   0 -10  -4   68.75    5.95
   0  10  -4   75.15    5.88
   0  10  -4  117.02   21.20
   0  10   4   78.08    6.03
   0  10  -4   57.90   10.19
   2 -10   4   93.84    6.61
  -2 -10  -4   96.88   13.80
  -2 -10  -4   84.26   14.03
  -2 -10  -4   98.30    7.77
   2  10   4  121.70    6.79
  -2  10  -4   94.08   12.98
  -2  10  -4   95.82    6.36
  -2  10  -4   97.50    6.03
  -2  10  -4   93.53   13.96
  -4 -10  -4   62.73    8.24
  -4  10  -4   54.61   10.60
  -4  10  -4   70.97   11.77
  -6 -10  -4    3.92    7.40
  -8 -10  -4   26.33    9.80
   7 -11  -4   25.60    8.01
  -7 -11   4   24.55    9.20
  -7 -11   4   -2.99   26.10
  -7 -11   4    9.81   15.92
  -7  11   4   29.31   12.54
  -7  11   4   27.63   13.91
  -5 -11   4   14.02    7.34
  -5 -11   4   -8.15   22.42
  -5 -11   4   10.97   11.00
   5 -11  -4    3.61    5.46
  -5  11   4   19.19   10.72
  -5  11   4    8.12    8.59
   5  11  -4    8.84    5.08
  -3 -11   4  124.75   16.13
   3 -11  -4  117.13    7.19
  -3 -11   4  148.81   21.30
   3 -11  -4  112.97    7.82
   3 -11  -4  124.37    7.90
  -3 -11   4  118.62    7.78
  -3 -11   4  103.52    7.71
  -3  11   4  123.48    7.15
   3  11  -4  115.43    8.12
  -3  11   4  110.99   13.51
  -3  11   4  109.22    7.70
  -3  11   4  113.40    7.46
  -3  11   4  106.93   15.73
   1 -11  -4  204.29    9.77
   1 -11  -4  184.27   15.77
  -1 -11   4  203.25   10.25
  -1 -11   4  221.12   16.74
  -1 -11   4  194.15   10.08
   1 -11  -4  211.41   10.19
   1 -11  -4  207.05   10.27
   1  11  -4  207.82   10.39
  -1  11   4  189.75   10.25
  -1  11   4  197.28   16.87
   1  11  -4  160.57   23.60
  -1  11   4  205.91   10.46
  -1 -11  -4  286.14   19.43
   1 -11   4  277.26   12.58
  -1 -11  -4  274.57   13.04
  -1 -11  -4  273.19   12.56
   1 -11   4  267.20   12.77
  -1 -11  -4  267.11   12.55
  -1 -11  -4  283.87   19.23
  -1  11  -4  272.74   12.71
  -1  11  -4  279.32   19.35
   1  11   4  260.50   12.88
  -1  11  -4  292.01   12.45
  -1  11  -4  281.04   20.62
  -3 -11  -4  122.97   19.91
  -3 -11  -4  126.71    9.93
   3 -11   4  139.81    8.44
  -3 -11  -4  133.07   16.47
  -3  11  -4  131.92   17.51
  -3  11  -4  121.27   15.26
  -5 -11  -4   62.28    9.46
  -5  11  -4   43.85   12.62
  -5  11  -4   33.18   10.55
  -7 -11  -4   21.79    9.46
  -8 -12   4   40.27   10.35
  -8 -12   4   23.97   18.10
  -8  12   4   28.26   13.58
   6 -12  -4   10.76    6.35
  -6 -12   4   16.90    7.71
  -6 -12   4   19.88   14.36
  -6 -12   4  -33.23   24.68
  -6  12   4    2.30    9.77
   6  12  -4   17.29    5.77
  -6  12   4   12.59   11.74
   4 -12  -4  137.37    9.78
   4 -12  -4  143.46    8.41
  -4 -12   4  149.97   18.69
  -4 -12   4  156.70   24.68
  -4  12   4  139.99    8.61
  -4  12   4  126.21    8.94
   4  12  -4  143.19    9.59
  -4  12   4  156.72   16.32
  -4  12   4  127.91   18.59
  -2 -12   4  151.97    9.08
   2 -12  -4  149.02    8.97
  -2 -12   4  150.62    8.46
  -2 -12   4  157.98   16.73
  -2 -12   4  143.90   16.77
  -2 -12   4  153.98    9.17
   2 -12  -4  154.71    9.06
   2 -12  -4  155.49    8.55
  -2  12   4  164.19    8.61
  -2  12   4  163.73   16.80
  -2  12   4  172.59   15.18
   2  12  -4  157.46    9.54
  -2  12   4  142.96    9.24
  -2  12   4  158.45    9.06
   0 -12   4    0.81    3.74
   0 -12  -4    2.14    6.49
   0 -12  -4    5.25    3.40
   0 -12  -4    1.46    6.80
   0 -12  -4    5.71    3.61
   0 -12   4    3.30    3.38
   0 -12  -4    3.37    3.95
   0  12   4   16.03    4.48
   0  12  -4   12.19    3.99
   0  12  -4  -19.41    9.93
  -2 -12  -4  179.13   17.90
  -2 -12  -4  185.86   18.78
  -2 -12  -4  174.46   10.96
   2 -12   4  203.21   10.25
  -2  12  -4  185.19    9.63
  -2  12  -4  179.60   10.11
  -2  12  -4  190.45   17.35
   2  12   4  198.86   10.51
  -2  12  -4  231.33   20.10
  -4 -12  -4   35.60   14.57
  -4 -12  -4   73.85    9.14
   4 -12   4   60.74    6.51
  -4 -12  -4   67.03   12.74
  -4  12  -4   51.17   12.70
  -4  12  -4   61.93   11.48
  -6 -12  -4   64.20   11.35
  -8 -12  -4   30.96   10.41
   7 -13  -4   57.07    9.39
  -7 -13   4   50.76   18.53
  -7 -13   4   71.60   12.72
  -7  13   4   57.29   15.16
  -5 -13   4   34.50    8.18
  -5 -13   4  -12.64   22.99
   5 -13  -4   20.23    6.43
  -5 -13   4   27.61   12.40
  -5  13   4   24.02   11.59
  -5  13   4   13.55    9.76
   5  13  -4   23.50    6.03
   3 -13  -4   37.33    4.87
  -3 -13   4   -1.79   16.43
  -3 -13   4   39.17    6.06
   3 -13  -4   38.51    5.29
  -3 -13   4   41.45   10.29
  -3 -13   4   42.98    5.81
   3 -13  -4   36.74    5.75
   3  13  -4   39.78    6.01
  -3  13   4   37.40    4.60
  -3  13   4   29.84    8.59
  -3  13   4   29.62   10.93
  -3  13   4   41.38    5.54
  -3  13   4   34.37    5.38
  -1 -13   4  103.50    7.62
   1 -13  -4  104.61    6.94
   1 -13  -4  109.37   14.84
  -1 -13   4   88.28    7.43
  -1 -13   4  109.06   14.63
   1 -13  -4  102.86    7.40
   1 -13  -4  101.68    7.41
  -1  13   4   89.61    7.79
  -1  13   4   78.22   14.40
  -1  13   4   98.06    7.77
   1  13  -4  100.74    7.78
  -1 -13  -4   91.30   15.38
   1 -13   4   95.06    7.40
  -1 -13  -4   95.29    7.59
   1 -13   4  108.67    7.16
  -1 -13  -4   99.25   15.46
  -1 -13  -4  102.72    7.25
  -1 -13  -4   94.08    7.45
  -1  13  -4  111.73   15.23
   1  13   4   92.00    7.68
  -1  13  -4  107.52    7.42
  -1  13  -4  108.73    6.84
  -1  13  -4  102.02   14.53
  -3 -13  -4  164.03   19.89
   3 -13   4  170.83    9.97
  -3 -13  -4  152.84   11.33
  -3 -13  -4  125.03   22.94
  -3  13  -4  170.10   20.52
   3  13   4  154.56   10.26
  -3  13  -4  157.20   18.45
  -5 -13  -4   31.34    8.72
  -5 -13  -4    7.40   16.02
  -5 -13  -4   42.38   14.79
  -5  13  -4   23.74   13.10
  -5  13  -4   24.19   10.70
  -7 -13  -4   28.10   11.95
   8 -14  -4   12.02    8.54
  -8 -14   4   -3.02    9.93
  -8 -14   4  -16.23   17.37
  -8  14   4   19.65   13.74
  -6 -14   4   25.04    9.51
  -6 -14   4   28.96   14.93
   6 -14  -4   18.34    7.14
   6  14  -4   15.64    6.31
  -6  14   4   23.03   12.44
  -4 -14   4   93.10    8.43
   4 -14  -4  105.88    9.00
  -4 -14   4  123.83   10.78
  -4 -14   4  123.85   20.14
   4 -14  -4  105.57    8.60
  -4 -14   4   67.70   23.54
   4  14  -4  114.73    9.57
  -4  14   4  112.18   19.64
  -4  14   4   88.56    8.23
  -4  14   4   98.93   17.26
  -4  14   4  118.87    8.21
   2 -14  -4   16.91    4.35
  -2 -14   4   35.89    5.11
  -2 -14   4   33.37    5.45
  -2 -14   4   20.66    8.94
   2 -14  -4   14.26    4.46
   2 -14  -4   12.75    4.98
  -2 -14   4   24.75   12.36
  -2  14   4   12.66    7.83
  -2  14   4   17.81    5.16
  -2  14   4    9.39    3.75
  -2  14   4    2.57    8.43
  -2  14   4   17.65    4.78
   0 -14  -4    9.22    4.13
   0 -14  -4   12.53    4.75
   0 -14   4   13.66    4.16
   0 -14  -4   10.16    8.27
   0 -14   4   14.12    4.59
   0 -14  -4    8.52    4.35
   0  14  -4   12.48    4.65
   0  14   4   12.61    4.96
  -2 -14  -4   14.62    4.55
  -2 -14  -4    5.44   10.65
  -2 -14  -4    2.34    9.13
   2 -14   4    3.97    4.58
  -2 -14  -4    5.41    5.54
   2 -14   4    7.38    4.30
  -2  14  -4    2.83    4.12
   2  14   4   28.25    5.65
  -2  14  -4   -3.12   11.00
  -2  14  -4    4.92    8.44
  -2  14  -4    7.67    4.49
  -2  14  -4    5.39    3.80
  -4 -14  -4   15.45    7.94
   4 -14   4   14.81    5.51
  -4 -14  -4   20.51   12.10
  -4 -14  -4   -4.35   14.41
  -4  14  -4    7.02   10.01
  -4  14  -4    8.93   12.28
  -6 -14  -4   18.66    9.87
  -6  14  -4    8.29   14.23
  -6  14  -4   15.46   12.13
   7 -15  -4   39.61    9.42
  -7 -15   4   59.69   12.84
  -7 -15   4   49.08   20.39
  -7  15   4   52.03   15.17
   7  15  -4   44.62    8.09
   5 -15  -4  115.52   10.39
  -5 -15   4  124.30   19.93
  -5 -15   4  131.68   12.72
   5  15  -4  112.36   10.31
  -5  15   4  123.75   21.63
   3 -15  -4  141.47   10.24
  -3 -15   4   94.28   19.36
  -3 -15   4  160.24   10.53
   3 -15  -4  154.93   10.08
  -3 -15   4  145.09   10.85
   3 -15  -4  162.24   10.38
  -3 -15   4  151.19   20.97
  -3  15   4  154.47    9.32
   3  15  -4  151.03   10.59
  -3  15   4  138.69   21.71
  -3  15   4  146.87   10.42
  -3  15   4  150.47   18.77
  -3  15   4  145.43    9.98
  -1 -15   4   65.75    6.29
  -1 -15   4   64.72   11.40
   1 -15  -4   64.66   12.02
  -1 -15   4   68.68    6.19
   1 -15  -4   72.05    6.62
   1 -15  -4   77.28    6.89
   1 -15  -4   81.84    6.28
  -1 -15   4   67.32    7.01
  -1  15   4   48.73   12.17
  -1  15   4   77.28    7.34
   1  15  -4   77.43    7.45
  -1  15   4   86.46    7.10
  -1 -15  -4   67.58    6.47
  -1 -15  -4   46.57   11.71
   1 -15   4   75.22    6.94
   1 -15   4   65.28    6.39
  -1 -15  -4   76.72    6.66
  -1 -15  -4   53.24   11.75
  -1  15  -4   62.52    6.46
  -1  15  -4   82.24   17.32
  -1  15  -4   53.90   11.20
  -1  15  -4   67.32    5.70
   1  15   4   76.45    7.51
  -3 -15  -4    8.14   12.39
  -3 -15  -4   14.57   11.81
  -3 -15  -4   17.33    7.33
   3 -15   4   19.26    5.84
  -3  15  -4   16.27   10.03
  -3  15  -4    3.17   11.63
   3  15   4   31.13    6.79
   5 -15   4   22.32    6.67
  -5 -15  -4   11.80    8.60
  -5 -15  -4   11.07   14.40
  -5 -15  -4   -0.39   18.55
  -5  15  -4   16.62   14.04
  -5  15  -4   14.86   11.34
  -7 -15  -4    7.08   12.00
  -7  15  -4   10.45   15.54
  -6 -16   4   13.86   14.64
  -6 -16   4    6.91    8.33
   6 -16  -4   14.98    7.65
   6  16  -4    4.60    6.95
  -6  16   4   18.92   13.33
  -4 -16   4   41.48    5.43
   4 -16  -4   36.17    7.15
  -4 -16   4   51.42    9.08
  -4 -16   4   47.95   13.66
   4  16  -4   47.38    7.39
  -4  16   4   30.99    5.42
  -4  16   4   28.71   13.14
  -2 -16   4  122.88   18.02
   2 -16  -4   90.50    7.29
  -2 -16   4  112.76    9.41
   2 -16  -4   77.83    7.32
   2 -16  -4   79.34    7.08
  -2 -16   4   82.91    7.96
  -2  16   4   78.87    7.75
  -2  16   4   61.93    6.15
  -2  16   4   84.07    7.88
  -2  16   4   48.26   12.83
   0 -16  -4   87.44    7.09
   0 -16  -4   86.15    8.10
   0 -16   4   86.02    7.43
   0 -16  -4   99.35    8.59
   0 -16   4  101.64    8.35
   0 -16  -4   73.61   13.25
   0  16  -4   67.85   18.41
   0  16   4  106.89    9.22
   0  16   4  101.83    9.15
   0  16  -4  109.54    8.67
  -2 -16  -4  182.04   10.81
  -2 -16  -4  168.80   22.46
  -2 -16  -4  141.93   22.52
  -2 -16  -4  168.99   10.93
  -2 -16  -4  157.30   11.68
   2 -16   4  148.20   10.88
  -2  16  -4  141.50   25.44
  -2  16  -4  130.45    9.96
   2  16   4  199.49   11.29
  -2  16  -4  149.41   19.97
  -2  16  -4  144.58    9.43
  -2  16  -4  162.36   10.80
  -4 -16  -4   10.76    8.41
   4 -16   4   22.50    6.29
  -4 -16  -4  -13.70   15.63
  -4 -16  -4   14.58   14.13
  -4  16  -4   17.10   11.12
  -4  16  -4    9.81   13.28
   4  16   4   17.73    6.84
  -6 -16  -4    9.72   18.28
   6 -16   4   22.33    8.01
  -6 -16  -4  -12.36   20.66
  -6 -16  -4   10.16   10.34
  -6  16  -4    4.57   15.60
  -7 -17   4   31.53   17.65
  -7 -17   4   51.94   13.73
   7 -17  -4   49.55    9.87
   7  17  -4   35.05    8.89
  -7  17   4   44.15   15.93
  -5 -17   4   44.59   10.52
   5 -17  -4   32.86    8.03
  -5 -17   4   36.74   15.38
   5  17  -4   46.99    7.81
  -5  17   4   16.69   14.31
   3 -17  -4  101.53    9.47
  -3 -17   4   84.85    8.89
   3 -17  -4   98.01    8.63
  -3 -17   4   72.31   15.39
  -3 -17   4   98.89    9.05
   3  17  -4   97.03    9.62
  -3  17   4   86.07   16.19
  -3  17   4  104.60    8.80
  -3  17   4  102.47    8.85
  -3  17   4  101.92    9.91
  -1 -17   4   75.17   12.86
  -1 -17   4   69.76    7.44
   1 -17  -4   72.99    7.24
  -1 -17   4   88.19    8.49
  -1 -17   4   77.90    7.29
   1 -17  -4   66.58    8.30
   1 -17  -4   59.90   13.03
   1 -17  -4   79.83    7.44
  -1  17   4   69.78    7.49
  -1  17   4   82.55    8.32
   1  17  -4   84.20    8.24
   1 -17   4  281.06   14.99
  -1 -17  -4  275.82   15.43
  -1 -17  -4  276.61   27.01
   1 -17   4  281.99   15.33
  -1 -17  -4  247.45   15.21
  -1  17  -4  289.95   13.62
  -1  17  -4  278.23   14.67
   1  17   4  264.44   15.18
  -1  17  -4  279.99   34.36
  -3 -17  -4  101.45   10.94
  -3 -17  -4   71.24   17.44
   3 -17   4   94.64    8.93
  -3 -17  -4   94.88   18.84
  -3  17  -4   69.10   17.84
  -3  17  -4  104.80    9.21
   3  17   4  125.47   10.25
  -3  17  -4   95.23    8.29
  -5 -17  -4   45.80   18.77
   5 -17   4   55.04    8.78
  -5 -17  -4   51.65   10.97
  -5  17  -4   32.72   16.39
  -7 -17  -4   -7.87   11.50
  -7 -17  -4   15.48   17.33
  -7  17  -4   -7.27   17.43
  -6 -18   4   87.53   14.33
  -6 -18   4   82.82   20.23
   6 -18  -4   83.60   11.43
  -6  18   4   90.51   22.32
   6  18  -4   63.71    9.95
  -4 -18   4  191.67   15.72
  -4 -18   4  172.66   11.79
  -4 -18   4  212.45   28.80
  -4 -18   4  225.18   15.31
   4 -18  -4  248.15   13.83
  -4  18   4  187.00   12.17
   4  18  -4  192.87   13.78
  -4  18   4  199.96   12.86
  -4  18   4  178.28   27.56
  -2 -18   4  137.22   22.39
   2 -18  -4  125.72   11.47
  -2 -18   4  148.57   11.75
   2 -18  -4  122.96   10.67
  -2 -18   4  123.49   10.18
  -2 -18   4  121.83   10.41
   2 -18  -4  132.13   10.32
  -2  18   4  129.78   10.73
  -2  18   4  115.66   10.86
   2  18  -4  126.20   10.76
  -2  18   4  124.24   24.24
   0 -18   4  161.30   10.70
   0 -18   4  166.68   11.97
   0 -18  -4  167.49   11.98
   0 -18  -4  165.28   12.17
   0 -18  -4  187.04   22.33
   0 -18   4  173.10   11.59
   0 -18  -4  160.51   10.76
   0  18  -4  176.38   11.46
   0  18   4  147.13   12.11
   0  18   4  137.72   11.97
  -2 -18  -4   35.03   15.46
   2 -18   4   60.50    7.77
  -2 -18  -4   41.25    8.24
  -2 -18  -4   56.83    7.47
  -2 -18  -4   46.05    7.78
  -2  18  -4   60.42    6.51
  -2  18  -4   30.12   15.96
   2  18   4   77.70    8.60
  -2  18  -4   59.77    7.42
  -2  18  -4   61.41    7.17
  -4 -18  -4   28.21    9.14
   4 -18   4   14.82    6.49
  -4 -18  -4   10.49   16.36
   4  18   4   61.42    9.27
  -4  18  -4    7.54   15.00
   6 -18   4    6.78    7.74
  -6 -18  -4   -3.21    8.99
  -6 -18  -4   -2.16   16.67
  -6  18  -4   -4.14   16.97
  -7 -19   4   82.84   16.52
   7 -19  -4   66.64   12.91
   7  19  -4   79.21   11.92
   5 -19  -4   63.59    8.89
  -5 -19   4   55.76   13.02
  -5 -19   4   72.97   19.03
   5  19  -4   57.35    8.78
  -3 -19   4   18.83   13.72
   3 -19  -4    0.14    6.65
  -3 -19   4   22.78    8.06
   3 -19  -4   16.34    6.25
  -3 -19   4   25.45    6.86
   3  19  -4   24.04    7.58
  -3  19   4   13.45    6.67
  -3  19   4    8.39    6.28
  -1 -19   4   84.15    9.03
   1 -19  -4   85.36    9.57
   1 -19  -4   85.64    8.20
  -1 -19   4   82.49    9.78
  -1 -19   4  104.77    8.22
   1 -19  -4   91.82    8.58
  -1  19   4   78.72    9.37
  -1  19   4   86.67    8.72
   1  19  -4   93.31    9.23
   1 -19   4  193.81   12.02
   1 -19   4  165.52   12.05
  -1 -19  -4  169.83   26.04
  -1 -19  -4  175.58   12.76
  -1 -19  -4  169.70   12.60
  -1  19  -4  177.06   11.88
   1  19   4  181.54   12.81
   3 -19   4  134.17   10.69
  -3 -19  -4  110.89   22.15
  -3 -19  -4  110.03   11.84
  -3  19  -4  116.60   10.19
   3  19   4  110.65   10.61
  -3  19  -4  132.21   10.60
  -3  19  -4   61.67   20.55
  -3  19  -4  105.30    9.00
  -5 -19  -4   26.57   10.16
   5 -19   4   12.42    7.48
   5 -19   4    5.65    7.79
  -5 -19  -4   38.01   20.04
  -5  19  -4    7.58   18.05
   5  19   4   22.82    8.78
   6 -20  -4   -8.94    7.26
  -6 -20   4   10.62   10.65
   6  20  -4   -0.08    7.76
   4 -20  -4  150.57   12.70
  -4 -20   4  184.59   13.58
  -4 -20   4  151.87   15.44
  -4  20   4  149.44   11.70
   4  20  -4  130.98   12.09
  -2 -20   4  257.71   15.30
   2 -20  -4  284.92   14.77
  -2 -20   4  216.88   14.90
  -2 -20   4  256.24   17.21
   2 -20  -4  276.38   15.81
   2  20  -4  250.71   15.75
  -2  20   4  241.02   16.66
  -2  20   4  241.87   15.50
   0 -20   4   67.33    9.11
   0 -20  -4   55.83    7.77
   0 -20   4   69.82    7.68
   0 -20  -4   76.73    9.48
   0 -20  -4   71.05    9.50
   0 -20   4   65.22    7.94
   0  20   4   53.27    9.03
   0  20   4   57.09   10.06
   0  20  -4   71.22    8.64
   2 -20   4  344.45   17.20
   2 -20   4  330.08   18.74
  -2 -20  -4  322.51   34.23
  -2 -20  -4  324.07   18.64
  -2 -20  -4  323.41   18.08
  -2 -20  -4  332.01   17.34
  -2  20  -4  319.65   18.01
   2  20   4  298.05   19.01
  -2  20  -4  299.78   17.10
  -4 -20  -4   21.66    9.77
  -4 -20  -4   13.48   19.78
   4 -20   4    4.77    7.95
  -4  20  -4  -13.28   17.87
   4  20   4   12.19    9.13
  -6 -20  -4   60.95   15.06
  -6 -20  -4   60.17   22.66
   6 -20   4   55.64   10.41
  -6  20  -4   23.83   20.28
   5 -21  -4    7.41    7.46
  -5 -21   4   20.46   11.27
   5  21  -4   -0.80    7.70
   3 -21  -4   18.18    7.75
  -3 -21   4   31.71   10.10
  -3 -21   4   26.88    9.51
   3 -21  -4    5.86    8.40
  -3 -21   4   19.91    7.58
   3  21  -4   21.61    8.04
  -3  21   4   10.78    7.48
  -3  21   4   19.10    7.44
  -1 -21   4  101.33   10.10
   1 -21  -4   76.12   10.44
   1 -21  -4   93.66   11.05
  -1 -21   4  102.64    9.92
  -1 -21   4   90.20   10.58
   1 -21  -4   97.69    9.21
   1  21  -4   93.62   10.09
  -1  21   4   76.61    9.83
  -1  21   4   97.97   10.86
  -1 -21  -4   66.23    9.54
  -1 -21  -4   82.25    9.64
   1 -21   4   58.55    7.97
   1 -21   4   64.33    8.76
  -1  21  -4   70.29    8.73
  -1  21  -4   65.73    8.42
   1  21   4   70.34    9.91
  -3 -21  -4   22.95   10.02
   3 -21   4   25.37    8.50
  -3 -21  -4   19.91   17.87
   3  21   4   24.04    9.31
  -3  21  -4   24.17    7.11
  -5 -21  -4   42.24   12.70
  -5 -21  -4   52.28   24.05
   5 -21   4   47.35   11.35
   5  21   4   34.99   11.02
   6 -22  -4   75.73   11.10
  -6 -22   4   73.87   16.74
   6  22  -4   62.23   10.42
  -4 -22   4   39.16   11.43
  -4 -22   4   20.72   10.79
   4 -22  -4   34.01    8.82
  -4  22   4   35.19    8.21
   4  22  -4   39.70    9.24
  -2 -22   4   55.09    9.97
   2 -22  -4   58.94    9.42
   2 -22  -4   63.80    8.39
  -2 -22   4   51.13    8.85
  -2  22   4   49.50    9.13
   2  22  -4   48.71    9.42
  -2  22   4   54.41    9.53
   0 -22   4   22.31    6.79
   0 -22   4   17.05    8.59
   0 -22  -4   27.38    7.44
   0 -22  -4   27.63    8.27
   0 -22  -4   15.67    8.09
   0  22  -4   31.31    7.82
   0  22   4   13.36    9.11
  -2 -22  -4   59.10   10.49
   2 -22   4   43.70    9.14
  -2 -22  -4   59.52   10.80
  -2  22  -4   57.32    8.47
   2  22   4   69.91    9.99
  -2  22  -4   73.95    9.00
   4 -22   4   74.62   10.85
   4 -22   4   69.77   10.05
   4  22   4   62.14   10.15
  -5 -23   4   40.26   13.97
   5  23  -4   43.69    9.94
  -3 -23   4   11.87    9.98
  -3 -23   4   12.19   10.67
  -3  23   4   17.59    8.20
   3  23  -4   37.29   10.33
  -3  23   4    7.50    7.66
  -1 -23   4   35.67    8.81
  -1 -23   4   41.38    8.12
   1 -23  -4   39.17    9.24
  -1 -23   4   43.63   11.02
   1 -23  -4   46.61    9.07
  -1  23   4   39.38   10.11
   1  23  -4   35.90    9.31
   1 -23   4    7.13    7.60
   1 -23   4   14.46    7.81
  -1 -23  -4   17.24    9.22
  -1 -23  -4    7.20    9.68
  -1  23  -4   20.72    7.59
   1  23   4   24.88    9.17
  -1  23  -4   14.74    7.48
  -3 -23  -4   30.55   10.24
   3 -23   4   24.92    9.66
   3 -23   4   24.01    9.02
  -3 -23  -4   37.40   10.89
   3  23   4   46.55   11.32
  -3  23  -4   47.96    8.58
  -5 -23  -4   18.62   12.20
   5 -23   4   16.57    8.81
   5  23   4   38.17   12.03
  -4 -24   4   60.80   12.56
   4 -24  -4   41.36    9.23
  -4  24   4   36.65    9.45
   4  24  -4   33.34   10.50
  -2 -24   4   69.00   12.54
   2 -24  -4   56.33   11.12
   2 -24  -4   52.46    9.90
  -2 -24   4   75.87   11.96
  -2  24   4   56.22   10.26
  -2  24   4   43.06   10.46
   2  24  -4   51.77   10.64
   0 -24  -4   -3.31    7.89
   0 -24  -4   -5.82    8.42
   0 -24  -4    2.77    7.81
   0 -24   4   -0.51    8.01
   0 -24   4    6.15    8.70
   0  24   4    7.07    8.90
   0  24  -4   15.22    8.12
   2 -24   4   28.22    9.01
   2 -24   4   33.52    9.18
   2  24   4   63.86   10.78
  -2  24  -4   29.39    8.79
  -2  24  -4   26.74    8.28
   4 -24   4   23.15    8.52
  -4 -24  -4   32.22   10.15
   4  24   4    8.39   10.60
  -3 -25   4   20.56   10.21
  -3 -25   4    6.98   10.35
   3 -25  -4   17.21    9.01
   3  25  -4    7.48    9.70
  -3  25   4   10.01    8.70
  -1 -25   4    7.59    8.59
   1 -25  -4   16.22    8.73
   1 -25  -4    3.59    9.02
   1  25  -4   10.38    8.98
  -1  25   4   15.24    9.11
   1 -25   4    2.35    8.78
  -1 -25  -4   17.10   10.54
  -1 -25  -4    8.54    9.58
   1 -25   4    7.09    8.74
   1 -25   4  -11.06    7.72
  -1  25  -4    6.43    8.14
  -1  25  -4    7.02    7.32
   1  25   4   11.58    9.92
   3 -25   4   28.52   10.22
   3  25   4    9.11   11.33
  -3  25  -4   11.44    8.33
   2 -26  -4   27.38   10.11
  -2 -26   4   25.87   11.04
   2 -26  -4   40.86   11.51
  -2 -26   4   39.28   11.57
  -2  26   4   14.23    9.66
   2  26  -4   -1.17    9.70
   0 -26  -4    1.15    9.84
   0 -26   4   -0.84    9.70
   0 -26   4   -1.15    7.43
   0 -26  -4   -1.45    8.02
   0 -26   4    0.47    8.92
   0 -26  -4    8.72    8.47
   0  26  -4   15.19    8.78
   0  26   4   15.78   10.71
   2 -26   4    4.66    9.71
   2 -26   4   11.07    9.54
   2  26   4   27.10   11.45
  -2  26  -4   28.70    9.83
   1 -27  -4   49.10   11.90
   1 -27  -4   48.81   11.72
  -1 -27   4   43.33    9.64
   1  27  -4   32.06   10.69
  -1  27   4   42.64   11.57
   1 -27   4   29.36   11.02
   1 -27   4   26.09   10.79
   1 -27   4   10.10    8.20
  -1 -27  -4   32.56   12.28
  -1  27  -4   13.24    9.74
   1  27   4   27.15   10.93
  -1  27  -4   20.98    8.70
   0 -28   4   -1.49   10.09
   0 -28   4   14.12    9.02
   0  28   4    6.91   11.19
   0  28  -4   -1.28    8.77
  -8   0   5   18.76    8.54
  -6   0   5   24.51    6.79
  -2   0   5    1.78    2.45
  -2   0   5    5.88    6.41
  -2   0   5  -29.42   14.82
  -2   0   5    6.11    2.93
   2   0  -5    2.33    3.00
   0   0  -5   -4.50    1.92
   0   0  -5   -0.70    1.97
   0   0  -5   -1.75    3.59
   0   0   5    0.77    2.26
  -2   0  -5   -1.57    3.77
  -4   0  -5    2.40    4.64
  -6   0  -5   -2.20    6.70
  -8   0  -5   11.58    9.03
  -9  -1   5   38.59   11.33
  -9   1   5   31.23   10.86
  -7  -1   5  158.65   13.66
  -7   1   5  169.98   13.42
  -5  -1   5  122.86    9.25
  -5  -1   5  175.76   35.06
  -5  -1   5  117.35   16.51
  -5   1   5  118.89    9.00
  -5   1   5  106.86   19.01
  -3  -1   5  858.61   37.05
   3  -1  -5  824.42   32.84
   3   1  -5  798.86   32.82
  -1  -1   5  352.65   15.19
  -1  -1   5  374.00   18.88
   1  -1  -5  376.87   15.27
  -1  -1   5  374.58   15.30
   1  -1  -5  377.15   15.22
   1   1  -5  376.66   15.36
   1   1  -5  387.05   15.31
  -1   1   5  362.14   18.34
  -1   1   5  377.57   15.29
  -1   1   5  366.81   15.21
  -1  -1  -5  359.56   15.55
  -3  -1  -5   15.09    4.46
  -3   1  -5   17.12    4.58
  -5  -1  -5   66.03    7.83
  -5   1  -5   47.57    7.07
  -7  -1  -5   67.94   10.37
  -7   1  -5   72.07   10.02
  -9  -1  -5    3.02   11.27
  -9   1  -5   24.19   11.21
  -8  -2   5   45.50    9.88
  -8   2   5   33.30    9.46
  -6  -2   5  214.24   14.11
  -6   2   5  195.82   22.79
  -6   2   5  230.57   13.61
  -4  -2   5  411.78   34.67
  -4  -2   5  326.80   20.80
  -4   2   5  350.77   22.96
  -4   2   5  377.27   16.22
   2  -2  -5   78.11    5.96
   2  -2  -5   86.94    5.76
  -2  -2   5   92.53    5.56
  -2  -2   5  113.19   16.75
  -2  -2   5   99.58   10.79
  -2  -2   5   97.01    5.68
  -2   2   5   84.19    5.68
  -2   2   5   81.04    5.37
  -2   2   5   85.55    5.71
  -2   2   5   98.36   11.00
   2   2  -5   94.52    5.85
   2   2  -5  104.22    7.37
   0  -2  -5   27.87    2.56
   0  -2   5   24.92    3.59
   0  -2  -5   25.25    4.88
   0  -2  -5   29.53    2.78
   0  -2   5   32.33    2.92
   0  -2  -5   27.50    2.76
   0   2   5   23.31    2.79
   0   2  -5   27.90    5.12
   0   2  -5   28.66    2.75
   0   2  -5   29.94    2.77
  -2  -2  -5   66.06    6.17
  -2   2  -5   58.84    6.05
  -4  -2  -5   36.34    5.82
  -4   2  -5   48.01    6.00
  -6  -2  -5  116.03   11.91
  -6   2  -5  104.55   10.72
  -8  -2  -5   21.34    9.91
  -8   2  -5    9.54    8.61
  -9  -3   5   17.02    9.55
  -9   3   5   17.83    9.17
  -7  -3   5   48.26   10.05
  -7  -3   5   31.08   13.52
  -7   3   5   51.97    8.17
  -5  -3   5   76.75    7.85
  -5  -3   5   69.67   11.11
  -5   3   5   83.55    7.76
  -5   3   5   83.83   13.11
  -3  -3   5  576.60   27.96
   3  -3  -5  558.27   23.30
  -3   3   5  580.81   23.01
  -3   3   5  565.88   27.01
  -3   3   5  623.11   29.56
   3   3  -5  570.55   23.36
  -3   3   5  552.14   23.04
   1  -3  -5 1203.02   46.82
   1  -3  -5 1199.88   49.50
  -1  -3   5 1152.88   46.72
   1  -3  -5 1196.31   46.78
  -1  -3   5 1144.48   46.78
  -1  -3   5 1240.26   51.39
  -1  -3   5 1197.06   49.81
  -1   3   5 1195.96   46.79
   1   3  -5 1214.11   46.82
  -1   3   5 1225.05   46.85
  -1   3   5 1224.31   50.32
  -1  -3  -5   94.98    6.57
  -3  -3  -5  680.53   29.04
  -3   3  -5  710.20   28.84
  -5  -3  -5   39.57    7.14
  -5   3  -5   31.53    6.50
  -7  -3  -5   89.28   11.56
  -7   3  -5   86.16   10.60
  -9  -3  -5   24.20   11.43
  -9   3  -5   34.94   10.82
  -8  -4   5   21.73    9.55
  -8   4   5   25.55    7.85
  -6  -4   5  182.81   13.29
  -6   4   5  155.31   21.56
  -6   4   5  223.02   12.67
  -4  -4   5  362.83   22.60
   4  -4  -5  371.25   16.32
  -4   4   5  387.13   22.86
  -4   4   5  383.44   21.17
   2  -4  -5  207.63    9.95
  -2  -4   5  228.06    9.82
  -2  -4   5  216.09    9.81
  -2  -4   5  236.87   15.30
  -2  -4   5  224.99    9.83
   2  -4  -5  204.45    9.85
  -2   4   5  207.81    9.94
  -2   4   5  202.18   15.62
  -2   4   5  214.59    9.90
  -2   4   5  220.61   14.04
  -2   4   5  214.51    9.60
   2   4  -5  208.24    9.92
  -2  -4  -5   92.99    7.15
  -4  -4  -5   31.65    5.99
  -4   4  -5   36.05    5.74
  -6  -4  -5   46.57    8.81
  -6   4  -5   54.87    8.38
  -8  -4  -5   12.94    9.93
  -8   4  -5   25.97    9.09
  -9  -5   5   31.66   11.32
  -9   5   5   20.41    9.11
  -5  -5   5   68.03   22.07
  -5  -5   5   13.94    5.99
  -5  -5   5   23.28   10.10
  -5   5   5   13.14    7.26
  -5   5   5   16.47   10.81
  -3  -5   5  445.72   18.42
  -3  -5   5  428.73   18.35
   3  -5  -5  447.28   18.66
  -3  -5   5  459.32   23.90
  -3   5   5  455.11   18.27
   3   5  -5  468.25   18.72
  -3   5   5  457.11   23.20
  -3   5   5  421.14   18.35
  -3   5   5  431.03   25.53
  -1  -5   5  261.17   16.25
  -1  -5   5  287.31   21.78
   1  -5  -5  276.94   11.67
  -1  -5   5  255.95   11.60
  -1  -5   5  254.72   11.60
   1  -5  -5  272.79   16.04
   1  -5  -5  266.94   11.66
   1   5  -5  280.99   11.72
   1   5  -5  248.45   17.22
  -1   5   5  266.64   15.24
  -1   5   5  261.33   11.69
  -1   5   5  257.94   11.57
  -1  -5  -5   34.16    4.30
   1  -5   5   40.71    3.50
  -1  -5  -5   23.05    5.22
  -1  -5  -5   28.16    5.67
  -1   5  -5   32.32    6.35
  -3  -5  -5   67.89    6.56
  -5  -5  -5   72.82    8.47
  -5   5  -5   86.19    8.18
  -7  -5  -5   26.17    9.45
  -7   5  -5   41.02    8.83
  -9  -5  -5   56.70   11.63
  -9   5  -5   45.58   11.53
  -8  -6   5   10.86   13.83
  -8  -6   5    1.51    9.06
  -8   6   5    4.49   14.01
  -6  -6   5   55.53   21.90
  -6  -6   5   36.29   13.00
  -6  -6   5   37.07    8.24
  -6   6   5   33.17    9.96
  -6   6   5   30.70   12.70
  -2  -6   5  155.15   13.30
  -2  -6   5  140.96    7.42
  -2  -6   5  152.87    7.55
   2  -6  -5  136.60    7.22
  -2  -6   5  147.82    7.52
   2  -6  -5  141.09    7.53
   2  -6  -5  133.83    7.55
  -2   6   5  132.46   11.95
  -2   6   5  127.52    7.62
   2   6  -5  154.79    7.83
  -2   6   5  131.12    7.59
  -2   6   5  135.26    7.23
   0  -6  -5 1051.74   42.01
   0  -6  -5 1063.03   45.47
   0  -6  -5 1034.74   42.02
   0  -6   5 1022.31   42.05
   0  -6  -5 1091.21   45.50
   0  -6   5 1070.83   42.06
   0   6  -5 1171.87   47.05
   0   6   5 1065.02   42.14
   0   6   5 1076.05   42.14
   0   6  -5 1099.65   45.84
   0   6  -5 1055.51   42.00
   0   6  -5 1070.08   42.09
  -2  -6  -5   16.40    4.32
  -4  -6  -5  383.91   18.64
  -6  -6  -5   15.72    7.88
  -6   6  -5   11.23    6.61
  -8  -6  -5   24.39   11.47
  -8   6  -5   16.06    8.06
  -9  -7   5   18.81   11.39
  -7  -7   5   21.45   13.14
  -7  -7   5   26.41    8.97
  -7   7   5   31.17   11.09
  -7   7   5   23.34   13.99
  -5  -7   5   34.10    7.04
  -5  -7   5   33.37   11.02
   5  -7  -5   35.98    5.57
  -5   7   5   30.97    9.05
   5   7  -5   31.20    5.32
  -5   7   5   39.42   12.45
  -3  -7   5   61.90    4.88
  -3  -7   5   63.80    5.27
   3  -7  -5   33.89    4.43
   3  -7  -5   33.09    3.87
  -3  -7   5   46.78    8.47
   3   7  -5   46.11    4.54
  -3   7   5   41.56    4.33
  -3   7   5   39.95    8.27
  -3   7   5   26.80    6.88
  -3   7   5   32.63    3.75
  -1  -7   5   37.65    7.22
   1  -7  -5   37.68    3.68
  -1  -7   5   39.22    3.98
   1  -7  -5   36.85    7.38
   1  -7  -5   46.02    4.21
   1  -7  -5   41.74    3.99
  -1  -7   5   41.17    4.11
  -1   7   5   45.94    4.47
  -1   7   5   30.03    6.43
  -1   7   5   40.88    3.86
   1   7  -5   45.88    4.31
   1  -7   5  112.18    6.48
  -1  -7  -5  111.35   11.77
  -1  -7  -5  107.85   11.75
  -1  -7  -5  110.35    7.18
  -1  -7  -5  106.24    6.19
  -1   7  -5  116.22   12.06
  -1   7  -5  117.71    6.19
  -1   7  -5  133.37   12.94
   1   7   5  109.60    6.42
  -3  -7  -5  152.07    9.69
  -5  -7  -5   78.06    9.50
  -7  -7  -5  100.23   13.08
  -6  -8   5   94.16   22.70
   6  -8  -5  104.01    9.21
  -6  -8   5  101.86   16.51
  -6  -8   5  109.34   11.06
  -6   8   5   99.47   16.07
  -6   8   5   83.96   14.00
   4  -8  -5  112.96    7.58
  -4  -8   5  109.24   16.00
  -4   8   5   91.02   16.10
   4   8  -5  113.82    7.49
  -4   8   5  119.71   13.70
  -2  -8   5  234.77   11.20
   2  -8  -5  239.33   10.91
   2  -8  -5  243.57   11.36
  -2  -8   5  236.67   11.26
  -2  -8   5  238.28   17.04
   2  -8  -5  236.85   11.22
  -2   8   5  240.57   11.33
  -2   8   5  271.76   11.14
  -2   8   5  240.99   16.14
  -2   8   5  241.79   11.42
   2   8  -5  252.61   11.53
   0  -8  -5  257.34   11.78
   0  -8  -5  272.21   16.58
   0  -8   5  257.88   11.85
   0  -8  -5  266.57   17.57
   0  -8   5  274.80   11.81
   0  -8  -5  259.50   11.84
   0   8  -5  270.46   11.66
   0   8   5  257.81   11.96
   0   8  -5  261.25   11.82
   0   8   5  261.98   11.95
   0   8  -5  273.34   17.52
  -2  -8  -5  507.51   22.47
  -2  -8  -5  569.44   27.55
  -2  -8  -5  512.48   26.15
  -2   8  -5  508.41   26.42
  -2   8  -5  539.31   27.12
  -4  -8  -5    4.51    5.70
  -6  -8  -5   71.01   11.13
  -8  -8  -5   32.95   11.67
  -9  -9   5   11.00   11.11
  -7  -9   5   33.75   24.40
  -7  -9   5   48.08    9.98
  -7  -9   5   32.75   16.66
  -7   9   5   45.55   13.32
  -7   9   5   52.90   12.91
  -5  -9   5   48.03    7.55
   5  -9  -5   50.54    6.35
  -5  -9   5    7.53   21.26
  -5  -9   5   45.57   12.11
   5   9  -5   42.63    5.70
  -5   9   5   29.17    9.44
  -5   9   5   48.53   11.98
   3  -9  -5   76.96    6.40
  -3  -9   5   78.83   16.92
  -3  -9   5   83.63   13.74
  -3  -9   5   85.76    6.47
  -3  -9   5   81.52    6.19
   3  -9  -5   73.04    6.35
   3  -9  -5   79.00    5.85
  -3  -9   5   88.70    6.52
  -3   9   5   69.13    6.25
  -3   9   5   79.87   11.55
  -3   9   5   68.05    6.33
   3   9  -5   89.35    6.61
  -3   9   5   83.82    5.77
  -3   9   5   94.35   13.21
  -1  -9  -5    1.16    3.56
   1  -9   5   11.62    3.44
  -1  -9  -5   11.46    7.29
  -1  -9  -5    2.15    3.13
  -1  -9  -5    0.70    6.29
  -1   9  -5    8.59    3.04
  -1   9  -5    2.63    3.16
   1   9   5    5.08    3.51
  -1   9  -5    5.51    6.46
  -3  -9  -5   61.66    6.60
  -3   9  -5   50.82    9.50
  -3   9  -5   57.40    9.19
  -5  -9  -5   -0.69    7.07
  -7  -9  -5   29.50   10.01
  -8 -10   5    9.36    9.98
  -8 -10   5   -5.01   15.01
  -8  10   5   32.66   12.83
   6 -10  -5   59.27    7.34
  -6 -10   5   42.49   14.91
  -6 -10   5   40.29    8.61
  -6  10   5   40.70   11.60
  -6  10   5   56.65   13.03
   6  10  -5   45.01    6.61
  -4 -10   5  174.10   19.31
   4 -10  -5  177.33    9.55
   4 -10  -5  179.40   10.02
  -4  10   5  166.42    9.71
   4  10  -5  180.11   10.46
  -4  10   5  204.35   16.93
  -2 -10   5  394.43   17.45
   2 -10  -5  401.06   17.09
  -2 -10   5  407.59   17.57
  -2 -10   5  403.38   24.04
   2 -10  -5  403.96   17.41
   2 -10  -5  409.44   17.49
  -2 -10   5  387.38   28.78
   2  10  -5  402.47   17.61
  -2  10   5  394.92   17.41
  -2  10   5  390.23   17.08
  -2  10   5  397.32   17.49
  -2  10   5  401.38   22.81
  -2  10   5  440.92   23.98
   0 -10  -5  204.32   16.67
   0 -10   5  236.35   10.91
   0 -10  -5  254.35   17.90
   0 -10  -5  228.51   10.97
   0 -10   5  235.42   11.09
   0 -10  -5  230.29   11.01
   0  10   5  228.93   11.22
   0  10   5  238.05   11.27
   0  10  -5  232.38   17.18
   0  10  -5  235.53   10.81
   0  10  -5  238.08   11.10
  -2 -10  -5  460.95   20.65
  -2 -10  -5  476.25   25.86
  -2 -10  -5  450.47   25.96
   2 -10   5  511.44   20.00
   2  10   5  455.63   19.87
  -2  10  -5  454.54   26.21
  -2  10  -5  485.76   25.96
  -4 -10  -5   41.96    7.37
  -6 -10  -5   46.57    9.73
  -8 -10  -5   27.75   12.64
  -7 -11   5   14.13   15.73
   7 -11  -5   22.12    7.36
  -7 -11   5   22.99    8.53
  -7  11   5   28.81   12.89
   7  11  -5   23.23    6.35
   5 -11  -5   96.75    8.29
  -5 -11   5   75.46   14.81
  -5 -11   5   50.89   24.88
  -5 -11   5   83.89    9.51
  -5  11   5   96.69   16.72
   5  11  -5   85.00    7.72
  -5  11   5   96.30   14.76
   3 -11  -5   85.41    6.14
  -3 -11   5   86.48    6.75
  -3 -11   5   70.33   11.36
   3 -11  -5   75.79    6.81
  -3 -11   5   73.48   18.86
   3 -11  -5   77.57    6.70
  -3 -11   5   78.16    7.05
  -3  11   5   82.22    6.15
   3  11  -5   78.97    7.13
  -3  11   5   78.68    6.26
  -3  11   5   72.13    6.02
  -3  11   5   70.63   11.25
  -3  11   5   72.19   12.06
   1 -11  -5  263.69   12.73
  -1 -11   5  274.10   12.88
   1 -11  -5  264.11   19.03
  -1 -11   5  279.80   19.45
   1 -11  -5  289.43   12.75
   1 -11  -5  272.54   12.33
  -1 -11   5  259.89   12.64
  -1  11   5  265.03   12.97
   1  11  -5  276.45   26.76
  -1  11   5  277.92   12.92
   1  11  -5  268.75   12.90
  -1  11   5  271.51   19.18
  -1 -11  -5    1.71    7.03
  -1 -11  -5    8.03    3.63
  -1 -11  -5   10.05    3.57
  -1 -11  -5    0.83    6.98
   1 -11   5    2.35    3.71
   1 -11   5    7.53    3.42
  -1 -11  -5    6.66    3.94
  -1  11  -5   11.09    7.37
  -1  11  -5    3.44    3.19
  -1  11  -5    0.80    8.49
   1  11   5   12.75    4.16
  -1  11  -5    7.49    3.58
  -3 -11  -5   85.20   13.41
   3 -11   5   92.53    7.28
  -3 -11  -5   94.62    8.66
  -3 -11  -5   93.06   15.85
  -3  11  -5   69.66   11.06
  -3  11  -5   92.09   16.71
  -5 -11  -5   65.76    9.15
  -7 -11  -5   58.49   11.00
  -8 -12   5   47.41   19.28
   8 -12  -5   52.85    9.89
  -8 -12   5   62.91   13.36
  -8  12   5   68.54   15.42
  -6 -12   5   10.84    7.71
   6 -12  -5   20.27    6.50
  -6 -12   5    9.16   13.97
  -6  12   5   20.19   12.58
   6  12  -5   17.65    5.94
  -6  12   5   19.54   11.85
   4 -12  -5  109.06    8.44
  -4 -12   5   95.06    7.57
  -4 -12   5  108.68   27.37
   4 -12  -5  108.52    7.76
  -4 -12   5  118.03   18.18
  -4  12   5   97.10   14.88
  -4  12   5  106.84    7.27
  -4  12   5   93.58   14.35
   4  12  -5  110.69    8.68
  -4  12   5  101.74    8.13
  -2 -12   5   39.61    4.79
   2 -12  -5   37.71    4.53
   2 -12  -5   37.33    4.82
  -2 -12   5   29.45    8.82
  -2 -12   5   28.13   11.90
   2 -12  -5   42.80    5.15
  -2 -12   5   36.95    5.03
  -2  12   5   25.94    8.36
  -2  12   5   28.11    4.06
  -2  12   5   34.18    4.67
  -2  12   5   25.10    7.70
  -2  12   5   34.12    5.10
   2  12  -5   42.18    5.36
   0 -12  -5  414.64   23.73
   0 -12  -5  425.69   24.75
   0 -12  -5  393.27   17.60
   0 -12   5  407.13   17.81
   0 -12  -5  405.63   17.73
   0 -12  -5  388.85   17.17
   0 -12   5  418.91   17.68
   0  12  -5  411.21   17.80
   0  12   5  409.36   17.97
   0  12   5  402.71   17.95
   0  12  -5  374.80   18.76
  -2 -12  -5  375.18   24.54
  -2 -12  -5  363.37   25.08
   2 -12   5  369.40   16.78
  -2 -12  -5  358.47   17.33
   2  12   5  365.99   16.75
  -2  12  -5  373.40   16.11
  -2  12  -5  360.66   23.82
  -2  12  -5  373.03   16.38
  -2  12  -5  383.58   25.73
  -4 -12  -5   11.99   11.39
  -4 -12  -5   12.98    6.95
  -4 -12  -5    4.96   12.72
  -4  12  -5    9.86   11.00
  -4  12  -5   16.31    9.79
  -6 -12  -5   26.12    9.10
  -7 -13   5   32.22   18.06
  -7 -13   5   42.02   10.83
   7 -13  -5   71.46    9.44
  -7  13   5   59.86   15.82
  -5 -13   5  117.59   11.82
   5 -13  -5  100.57    8.98
  -5 -13   5   95.69   16.70
   5  13  -5  114.58    9.54
  -5  13   5  108.27   19.81
  -5  13   5  104.53   18.32
  -3 -13   5   28.62    5.46
  -3 -13   5   30.36   10.17
  -3 -13   5   31.91    5.46
   3 -13  -5   33.07    5.25
   3 -13  -5   26.10    5.60
   3 -13  -5   35.69    4.91
  -3  13   5   33.66   10.60
  -3  13   5   24.34    5.31
   3  13  -5   37.02    5.85
  -3  13   5   24.98    5.24
  -3  13   5   30.75    8.70
  -3  13   5   35.05    4.48
  -1 -13   5   78.82    7.29
  -1 -13   5   97.72   14.46
  -1 -13   5  100.15    7.42
   1 -13  -5   95.26   14.35
   1 -13  -5   98.42    7.39
   1 -13  -5   87.88    6.76
   1 -13  -5   92.57    7.40
  -1  13   5   87.91   15.04
  -1  13   5   96.15    7.86
   1  13  -5  103.38    7.61
   1  13  -5   84.18   18.69
  -1  13   5   84.62    7.40
  -1 -13  -5   32.22    9.51
  -1 -13  -5   41.52    5.29
  -1 -13  -5   41.13    5.06
   1 -13   5   41.96    5.31
  -1 -13  -5   33.90    4.90
   1 -13   5   42.33    4.77
  -1 -13  -5   41.33   10.22
  -1  13  -5   42.99    4.57
   1  13   5   43.59    5.58
  -1  13  -5   26.37   13.50
  -1  13  -5   43.48    5.00
  -1  13  -5   33.90    9.24
  -3 -13  -5  102.64    9.42
  -3 -13  -5   86.29   14.60
  -3 -13  -5   91.82   13.76
   3 -13   5  107.71    8.32
  -3  13  -5  104.03   16.76
   3  13   5  110.02    9.22
  -3  13  -5   95.10   15.11
  -5 -13  -5   29.67    8.78
  -5  13  -5   36.05   13.51
  -5  13  -5   29.10   11.26
  -7 -13  -5   47.99   13.43
  -8 -14   5   15.68   10.01
   8 -14  -5   18.65    8.24
  -8 -14   5  -17.76   17.48
  -8  14   5   16.60   14.19
  -6 -14   5   51.52   16.71
  -6 -14   5   63.07   10.47
   6 -14  -5   56.86    8.64
   6  14  -5   60.11    7.92
  -6  14   5   72.30   15.39
  -4 -14   5  160.07   21.61
  -4 -14   5  117.92    9.68
  -4 -14   5  206.62   37.48
   4 -14  -5  136.12   10.51
   4 -14  -5  165.82   10.31
  -4  14   5  153.84   10.25
   4  14  -5  144.16   10.72
  -4  14   5  159.60    9.30
  -4  14   5  154.90   21.21
  -4  14   5  153.71   19.00
   2 -14  -5  231.58   12.00
  -2 -14   5  206.91   12.12
  -2 -14   5  219.61   12.32
  -2 -14   5  232.04   20.84
   2 -14  -5  247.89   11.87
  -2 -14   5  185.96   25.37
   2 -14  -5  223.13   11.91
  -2  14   5  236.19   11.50
  -2  14   5  209.22   12.27
  -2  14   5  228.42   21.42
   2  14  -5  233.73   12.30
  -2  14   5  230.01   12.27
   0 -14  -5  288.81   14.05
   0 -14  -5  299.91   14.03
   0 -14  -5  278.21   13.41
   0 -14   5  297.50   13.97
   0 -14  -5  317.66   22.96
   0 -14   5  295.92   14.34
   0 -14  -5  277.37   21.50
   0  14   5  283.01   14.48
   0  14  -5  231.45   29.70
   0  14   5  303.07   14.57
   0  14  -5  300.61   14.34
   2 -14   5   16.81    5.24
  -2 -14  -5   14.41    9.89
  -2 -14  -5   17.85    6.12
  -2 -14  -5    7.37   10.34
  -2 -14  -5   13.64    5.04
  -2  14  -5   19.19    4.12
  -2  14  -5   22.57   12.23
  -2  14  -5   15.66    4.71
   2  14   5   19.88    5.17
  -2  14  -5   15.65    8.79
  -4 -14  -5    4.77   15.02
  -4 -14  -5   32.65    8.48
  -4 -14  -5   32.17   13.69
   4 -14   5   31.84    6.69
  -4  14  -5   26.50   11.37
  -4  14  -5   24.18   13.41
  -6 -14  -5   20.51   10.05
  -6  14  -5   11.27   14.68
  -6  14  -5    3.56   11.51
   7 -15  -5   62.69   10.09
  -7 -15   5   54.29   10.60
  -7 -15   5   58.25   21.65
  -7  15   5   55.06   15.70
   7  15  -5   60.00    8.76
   5 -15  -5  125.16   10.53
  -5 -15   5  119.40   19.88
  -5 -15   5  108.87   12.79
  -5  15   5  129.64   21.58
   5  15  -5  106.31   10.07
  -3 -15   5   43.55   12.41
   3 -15  -5   30.92    5.53
  -3 -15   5   53.86    6.60
  -3 -15   5    6.25   16.20
  -3 -15   5   48.34    6.97
   3 -15  -5   36.03    6.59
   3 -15  -5   35.76    5.72
  -3  15   5   35.27    6.12
  -3  15   5   12.95   11.09
  -3  15   5   34.50    5.04
  -3  15   5   23.84    5.73
   3  15  -5   39.33    6.69
   1 -15  -5   62.36    6.40
  -1 -15   5   68.55    6.70
   1 -15  -5   72.18    6.99
  -1 -15   5   52.35   11.03
   1 -15  -5   64.64    5.99
  -1 -15   5   72.24    6.68
   1 -15  -5   65.58   12.24
   1  15  -5    6.04   26.54
  -1  15   5   75.67    6.85
   1  15  -5   73.13    7.07
  -1  15   5   81.79    7.49
   1 -15   5  152.25    9.43
   1 -15   5  147.66    9.73
  -1 -15  -5  147.77   19.37
  -1 -15  -5  122.83    9.35
  -1 -15  -5  137.98   19.82
  -1 -15  -5  128.73    9.44
  -1  15  -5  118.44    9.18
  -1  15  -5  127.79   20.24
  -1  15  -5  143.68    8.74
   1  15   5  146.48   10.15
  -1  15  -5  138.44   17.35
  -3 -15  -5  112.47   17.52
  -3 -15  -5  111.17   11.13
  -3 -15  -5  109.40   17.24
   3 -15   5  152.95   10.17
  -3  15  -5  130.86   18.98
   3  15   5  116.07   10.53
  -3  15  -5   85.61   16.78
  -5 -15  -5  -27.78   17.62
  -5 -15  -5    7.21    8.23
   5 -15   5   15.86    6.40
  -5 -15  -5   12.99   15.34
  -5  15  -5   16.98   14.81
  -5  15  -5   14.00   11.43
  -7 -15  -5    9.01   13.65
  -7  15  -5   10.98   16.99
  -6 -16   5    9.20    8.56
   6 -16  -5    2.68    6.99
  -6 -16   5   -2.03   13.95
  -6  16   5   24.19   13.37
   6  16  -5    4.97    6.98
  -4 -16   5   18.82    4.75
  -4 -16   5   26.82   13.03
   4 -16  -5   24.88    6.64
  -4 -16   5   29.27    6.74
  -4  16   5   20.71    5.33
  -4  16   5   23.47    5.90
  -4  16   5   16.81   12.38
  -4  16   5   23.51    6.37
   4  16  -5   26.96    7.09
  -2 -16   5  543.19   33.40
   2 -16  -5  547.70   23.02
  -2 -16   5  485.57   23.16
   2 -16  -5  536.98   23.95
  -2 -16   5  484.04   22.38
   2 -16  -5  526.68   23.11
  -2 -16   5  493.92   23.58
  -2  16   5  512.22   34.98
  -2  16   5  527.46   22.74
   2  16  -5  519.13   23.49
  -2  16   5  505.09   23.30
  -2  16   5  505.99   23.40
   0 -16  -5  458.53   29.96
   0 -16   5  410.17   19.40
   0 -16   5  404.22   19.12
   0 -16  -5  419.11   19.44
   0 -16  -5  421.28   19.18
   0 -16  -5  412.51   18.57
   0  16   5  400.30   19.52
   0  16  -5  400.48   19.02
   0  16   5  406.31   19.64
  -2 -16  -5  241.54   13.48
  -2 -16  -5  237.19   24.81
  -2 -16  -5  231.80   25.25
   2 -16   5  235.92   13.53
  -2 -16  -5  231.45   14.99
  -2  16  -5  206.17   27.88
  -2  16  -5  237.03   13.31
   2  16   5  225.44   14.32
  -2  16  -5  250.79   12.76
  -2  16  -5  241.53   22.97
  -2  16  -5  245.34   12.59
   4 -16   5   21.52    6.55
  -4 -16  -5   14.45   14.59
  -4 -16  -5   17.22    8.47
  -4 -16  -5    6.56   15.86
  -4  16  -5   17.86   11.45
   4  16   5   23.91    7.18
  -4  16  -5    4.36   13.86
  -6 -16  -5   -1.15   22.07
  -6 -16  -5   24.83    9.64
  -6 -16  -5   27.21   18.82
  -6  16  -5   23.64   17.91
  -7 -17   5   27.76   11.81
   7 -17  -5   40.99   10.56
  -7 -17   5   29.02   19.42
   7  17  -5   40.28    8.74
  -7  17   5   53.54   17.37
   5 -17  -5   98.23   11.07
  -5 -17   5   81.65   12.68
  -5 -17   5   84.86   18.71
   5  17  -5   98.46    9.87
  -5  17   5   90.55   18.58
  -3 -17   5   81.24    7.95
   3 -17  -5   55.51    7.08
   3 -17  -5   45.66    7.67
  -3 -17   5   76.39   14.75
  -3 -17   5   85.82    8.96
  -3  17   5   57.79    7.47
  -3  17   5   39.37   14.01
   3  17  -5   56.42    7.98
  -3  17   5   74.38    7.98
  -1 -17   5  255.90   14.25
  -1 -17   5  267.87   15.42
  -1 -17   5  311.22   24.84
  -1 -17   5  280.88   15.00
   1 -17  -5  257.35   15.21
   1 -17  -5  297.63   14.71
   1 -17  -5  315.19   25.23
   1 -17  -5  297.05   14.21
  -1  17   5  229.91   27.19
  -1  17   5  252.01   15.04
  -1  17   5  278.35   15.53
   1  17  -5  281.40   15.17
  -1 -17  -5  106.16    9.66
  -1 -17  -5  122.80   10.15
  -1 -17  -5  120.93   19.90
   1 -17   5  101.78    9.25
   1 -17   5  102.94    9.06
  -1  17  -5  104.95    8.89
  -1  17  -5   53.75   19.82
  -1  17  -5  102.87    9.08
   1  17   5  113.57    9.98
  -3 -17  -5   30.97   15.16
  -3 -17  -5   21.28    7.93
  -3 -17  -5   25.67   15.12
   3 -17   5   26.99    6.63
   3  17   5   57.38    8.16
  -3  17  -5   42.19    5.62
  -3  17  -5   15.86   15.42
  -5 -17  -5   60.54   10.93
   5 -17   5   70.70    9.08
  -5 -17  -5   58.45   19.54
   5  17   5   59.28    9.77
  -5  17  -5   30.92   17.55
  -7 -17  -5   -3.78   11.92
  -7 -17  -5   10.31   17.88
  -7  17  -5   -2.74   17.66
  -6 -18   5   27.66   17.01
   6 -18  -5   44.62    9.78
  -6 -18   5   38.83   11.65
   6  18  -5   19.08    7.73
   4 -18  -5   92.24    9.86
  -4 -18   5   95.08    8.13
  -4 -18   5   90.13   18.06
  -4 -18   5  146.45   11.13
  -4  18   5  102.03   22.43
   4  18  -5   95.22    9.82
  -4  18   5  112.55    9.40
  -4  18   5  101.23    9.08
   2 -18  -5   48.03    8.06
  -2 -18   5   44.94    8.26
   2 -18  -5   51.89    7.95
  -2 -18   5   41.31    6.65
  -2 -18   5   49.99   12.39
   2 -18  -5   51.06    6.97
  -2 -18   5   45.77    7.85
  -2  18   5   43.22    7.33
   2  18  -5   49.00    8.00
  -2  18   5   48.84    7.78
   0 -18  -5  115.03   10.09
   0 -18  -5  131.97   10.45
   0 -18  -5   85.74   16.52
   0 -18  -5  106.54    8.72
   0 -18   5   93.43    9.44
   0 -18   5  104.54    8.50
   0  18  -5  109.94    9.29
   0  18   5  119.14   10.46
   0  18  -5   54.67   25.61
   0  18   5   98.84    9.68
   2 -18   5  218.17   14.27
  -2 -18  -5  221.66   14.12
  -2 -18  -5  225.84   27.26
  -2 -18  -5  195.12   14.31
  -2  18  -5  197.84   12.52
  -2  18  -5  206.05   13.13
  -2  18  -5  198.85   31.40
  -2  18  -5  229.26   11.96
   2  18   5  199.71   13.44
   4 -18   5  123.68   10.76
  -4 -18  -5  106.31   22.06
  -4 -18  -5  116.85   12.45
  -4  18  -5   57.27   19.90
   4  18   5  105.22   10.92
   6 -18   5   14.42    7.83
  -6 -18  -5   15.08   11.55
  -6 -18  -5    1.85   18.33
  -6  18  -5    0.23   17.90
   7 -19  -5  112.09   13.93
  -7 -19   5   80.36   14.04
   7  19  -5   85.57   11.27
  -5 -19   5   11.38    9.99
   5 -19  -5   16.23    9.00
  -5 -19   5   18.38   17.09
   5  19  -5   20.95    7.42
  -5  19   5   18.82    6.65
   3 -19  -5  116.51   10.64
  -3 -19   5  111.38   10.94
   3 -19  -5  113.63    9.61
  -3 -19   5  122.53   10.75
  -3  19   5  119.81   10.39
   3  19  -5  132.62   11.68
  -3  19   5  127.97   10.52
  -1 -19   5  164.85   11.79
  -1 -19   5  173.70   11.76
  -1 -19   5  177.52   12.48
   1 -19  -5  188.85   11.80
   1 -19  -5  146.66   12.43
   1 -19  -5  165.60   11.66
  -1  19   5  151.25   12.05
   1  19  -5  172.46   12.47
  -1  19   5  152.35   12.76
  -1 -19  -5  227.01   14.55
   1 -19   5  224.93   13.53
  -1 -19  -5  226.57   28.28
  -1 -19  -5  192.14   13.50
  -1  19  -5  190.35   12.95
  -1  19  -5  164.51   30.48
   1  19   5  233.94   14.44
  -3 -19  -5  136.65   24.32
   3 -19   5  133.71   11.90
  -3 -19  -5  172.29   13.96
  -3  19  -5  157.30   11.54
   3  19   5  145.87   12.47
  -3  19  -5  112.91   22.14
  -3  19  -5  140.70   10.01
   5 -19   5   12.46    8.54
  -5 -19  -5    7.96   17.35
  -5 -19  -5   15.05   10.47
   5  19   5   15.99    8.72
  -5  19  -5    0.72   18.72
   6 -20  -5   30.59    8.82
  -6 -20   5   25.56   12.55
   6  20  -5   27.01    8.18
  -4 -20   5   30.57   10.22
   4 -20  -5   30.14    7.80
  -4 -20   5   37.89    8.55
  -4  20   5   16.43    7.13
   4  20  -5   18.27    8.00
  -4  20   5   36.79    7.78
   2 -20  -5   85.27   10.14
  -2 -20   5  123.44   11.52
   2 -20  -5  104.24    9.55
  -2 -20   5  154.62   11.08
  -2 -20   5  121.76   10.90
  -2  20   5  104.29    9.87
  -2  20   5   98.50   10.21
   0 -20  -5   24.51    7.82
   0 -20   5   35.61    8.47
   0 -20  -5   16.91    6.59
   0  20   5   30.87    8.06
  -2 -20  -5   98.20   20.61
  -2 -20  -5  146.48   12.42
  -2 -20  -5  137.55   11.90
   2 -20   5   94.01    9.91
  -2  20  -5  114.68   10.25
  -2  20  -5  100.33    9.96
   2  20   5  155.64   12.31
  -4 -20  -5   -1.22   15.85
  -4 -20  -5   -0.75    9.84
   4 -20   5    7.52    7.27
  -4  20  -5  -12.68   17.82
   4  20   5    6.77    8.99
  -6 -20  -5   19.18   10.43
   6 -20   5   30.99    9.79
  -6 -20  -5   32.89   21.69
  -6  20  -5   -1.43   19.81
  -5 -21   5   24.99   11.03
   5 -21  -5    8.33    8.29
   5  21  -5   15.74    8.48
  -5  21   5   20.96    7.56
  -3 -21   5   40.04    9.08
   3 -21  -5   25.33    7.24
  -3 -21   5   23.90    8.79
   3 -21  -5   39.13    8.40
  -3  21   5   23.84    7.94
   3  21  -5   30.25    8.65
  -3  21   5   19.69    7.66
   1 -21  -5   54.97    9.22
  -1 -21   5   69.96    9.29
   1 -21  -5   65.91    8.56
   1 -21  -5   60.75    9.72
  -1 -21   5   68.07    8.03
  -1 -21   5   65.06    9.10
   1  21  -5   63.16    8.86
  -1  21   5   48.62    9.37
  -1  21   5   64.88   10.01
  -1 -21  -5  119.51   11.29
  -1 -21  -5  120.14   10.91
   1 -21   5  121.94   10.67
   1 -21   5  106.05   10.75
  -1  21  -5  122.16   10.55
   1  21   5  110.12   11.61
  -1  21  -5  117.39   10.29
  -3 -21  -5   31.72    8.94
   3 -21   5   28.88    8.15
  -3 -21  -5   28.88   17.30
   3  21   5   36.51    8.72
  -3  21  -5   24.62    7.21
   5 -21   5   20.19    8.66
  -5 -21  -5   14.24   10.51
  -5 -21  -5   17.56   21.17
   5 -21   5   12.78    7.71
   5  21   5   25.72   12.09
  -6 -22   5   17.51   12.61
   4 -22  -5   27.73    9.43
  -4 -22   5   45.30   10.04
  -4 -22   5   29.94   12.83
   4  22  -5   27.64    9.57
  -4  22   5   34.14    8.78
  -2 -22   5   32.53    8.14
  -2 -22   5   23.55    9.18
   2 -22  -5   44.98    7.51
   2 -22  -5   31.66    8.41
  -2  22   5   20.55    8.70
  -2  22   5   22.41    8.38
   2  22  -5   29.80    9.10
   0 -22  -5   29.00    8.09
   0 -22  -5   28.31    8.97
   0 -22   5   44.61    8.08
   0 -22   5   35.01    8.58
   0 -22  -5   46.00    9.18
   0  22   5   29.37    9.59
   0  22  -5   42.84    8.29
   2 -22   5   39.49    8.21
  -2 -22  -5   48.33   10.62
  -2  22  -5   36.88    7.75
  -2  22  -5   43.34    8.29
   2  22   5   31.23    8.99
   4 -22   5   55.46   11.70
  -4 -22  -5   50.06   12.70
   4  22   5   59.40   11.83
  -5 -23   5   30.30   13.21
  -5  23   5   36.09    8.48
   5  23  -5   44.27   10.78
  -3 -23   5    9.38    9.70
   3 -23  -5    6.70    7.91
   3 -23  -5   16.34    8.47
  -3  23   5   21.34    8.66
   3  23  -5    9.35    9.16
  -3  23   5    8.27    7.96
  -1 -23   5   28.98    9.76
   1 -23  -5   14.93    7.85
  -1 -23   5   12.46    7.31
   1 -23  -5   22.40    9.87
   1 -23  -5   24.88    8.40
  -1 -23   5   16.20    8.31
   1  23  -5   19.24    8.13
  -1  23   5   20.72    8.87
  -1 -23  -5   10.33    8.64
   1 -23   5   29.59    8.31
  -1 -23  -5    6.99    9.67
   1 -23   5   25.75    8.19
  -1  23  -5   40.23    8.06
  -1  23  -5   19.83    8.12
   1  23   5   38.15    9.69
   3 -23   5   42.91    9.33
   3  23   5   29.45    9.35
  -3  23  -5   43.53    8.42
   5 -23   5   21.88   10.16
  -5 -23  -5   32.10   11.78
   5  23   5   17.33   10.56
  -4 -24   5   41.23   12.21
   4 -24  -5   31.98   10.09
  -4 -24   5   27.40   14.49
   4  24  -5   15.35    9.83
  -4  24   5   33.97    9.88
   2 -24  -5  143.92   12.79
  -2 -24   5  103.31   13.19
   2 -24  -5  110.44   13.85
  -2 -24   5   96.73   11.28
  -2 -24   5  105.42   12.45
   2  24  -5   92.67   11.65
  -2  24   5  103.50   12.64
  -2  24   5  119.66   13.43
   0 -24   5    1.25    7.05
   0 -24  -5   18.27    8.66
   0 -24  -5   -4.72    7.54
   0 -24  -5    9.15    8.97
   0 -24   5    9.46    8.44
   0  24  -5    7.35    7.61
   0  24   5   12.13    8.94
   2 -24   5   40.20    9.75
  -2 -24  -5   39.17   12.43
  -2  24  -5   44.38    9.45
   2  24   5   31.55   10.25
   4 -24   5   29.08    9.22
   4 -24   5   26.02   10.19
   4  24   5   18.79   10.05
   3 -25  -5   32.29   10.96
  -3 -25   5    2.01   11.26
  -3  25   5   18.30    9.18
   3  25  -5    9.69    9.50
  -3  25   5   27.12    9.73
   1 -25  -5   10.57    9.95
  -1 -25   5    9.13    7.60
   1  25  -5   -3.40    8.27
  -1  25   5    7.23    9.45
  -1 -25  -5   29.47   10.96
   1 -25   5   17.95    7.96
   1 -25   5   41.37    9.97
   1  25   5   23.57   10.31
  -1  25  -5   16.07    8.07
  -1  25  -5   16.50    8.84
  -3 -25  -5   17.15   10.58
   3 -25   5   26.21   10.20
   3 -25   5   13.95    9.36
  -3  25  -5   18.84    8.50
   3  25   5   10.32   11.13
  -2 -26   5   19.98   10.57
   2 -26  -5   17.31    9.97
  -2 -26   5    4.39   11.18
  -2 -26   5   13.88   10.90
   2  26  -5   17.71    9.52
  -2  26   5   11.33   10.08
   0 -26   5   19.54   10.67
   0 -26   5    8.11    7.76
   0 -26   5    0.95    9.39
   0  26  -5    9.35    8.38
   0  26   5   39.68   11.27
   2 -26   5   18.63   11.80
   2  26   5   32.76   11.76
  -2  26  -5    9.05    8.63
   1 -27  -5   18.77   10.84
  -1 -27   5   18.51   10.12
   1  27  -5   31.30   10.28
  -1  27   5   20.87   10.50
   1 -27   5   15.05    8.87
  -1  27  -5   31.74    9.34
  -1  27  -5   17.78    9.54
   1  27   5   31.16   11.69
   0 -28   5   11.59   10.51
   0 -28   5   19.37   11.64
   0 -28   5    3.52   10.78
   0  28   5   13.66   12.07
   0  28  -5   -3.38    9.03
  -8   0   6   -5.79   15.39
  -8   0   6   41.61   10.28
  -6   0   6  224.45   27.45
  -6   0   6  239.33   14.40
   4   0  -6 1157.78   45.51
  -4   0   6 1139.91   51.54
  -2   0   6  125.32    6.92
   2   0  -6  140.00    7.15
  -2   0   6   98.06   14.51
  -2   0   6  130.15    6.96
   2   0  -6  138.34    7.04
  -2   0   6  131.62    6.63
   0   0  -6    5.59    5.39
   0   0  -6    8.05    2.47
   0   0   6   12.61    2.90
   0   0  -6    7.15    2.50
  -2   0  -6   21.02    4.51
  -4   0  -6  679.75   29.04
  -6   0  -6   16.46    7.34
  -8   0  -6   74.51   12.16
  -9  -1   6   96.76   14.35
  -9   1   6   84.06   12.94
  -7  -1   6    5.12   37.79
  -7  -1   6   19.14   16.39
  -7  -1   6   50.99    8.92
  -7   1   6   58.24    9.02
  -5  -1   6  118.83    9.69
  -5  -1   6  193.82   37.12
  -5  -1   6  140.01   19.18
  -5   1   6  132.75    9.31
  -5   1   6  129.09   21.52
  -3   1   6  303.81   21.81
  -1  -1   6  350.84   14.43
  -1  -1   6  343.26   14.34
   1  -1  -6  348.62   14.35
   1  -1  -6  334.67   14.35
   1   1  -6  352.00   14.43
  -1   1   6  312.71   19.31
  -1   1   6  340.08   14.31
  -1   1   6  348.76   14.40
   1   1  -6  351.74   14.50
  -1  -1  -6  194.34    9.79
  -3  -1  -6  116.07    8.10
  -3   1  -6  108.67    8.13
  -5  -1  -6   45.65    7.43
  -5   1  -6   46.11    7.26
  -7  -1  -6   31.32    9.02
  -7   1  -6   24.60    8.47
  -9  -1  -6   43.13   12.37
  -9   1  -6   37.94   11.85
  -8  -2   6   61.13   11.03
  -8   2   6   68.10   10.11
  -6  -2   6  210.95   13.84
  -6  -2   6  160.81   22.29
  -6  -2   6  146.28   34.90
  -6   2   6  223.49   13.09
  -6   2   6  215.37   23.90
  -4  -2   6   64.92    9.58
   4  -2  -6   60.30    5.21
  -4   2   6   66.85    6.20
   4   2  -6   62.74    5.29
  -4   2   6   63.77   11.32
  -2  -2   6  232.64   10.91
   2  -2  -6  243.86   11.06
  -2  -2   6  251.82   15.92
  -2  -2   6  247.24   10.89
  -2  -2   6  242.94   11.05
   2  -2  -6  247.22   11.08
  -2   2   6  251.00   11.02
  -2   2   6  253.92   10.78
  -2   2   6  247.93   16.22
  -2   2   6  255.20   11.08
   2   2  -6  250.96   11.14
   2   2  -6  237.71   11.18
  -2   2   6  265.32   18.28
   0  -2  -6 2952.05  121.30
   0  -2  -6 3150.84  121.31
   0  -2  -6 3125.43  125.16
   0  -2  -6 3152.47  121.34
   0  -2   6 3182.73  121.42
   0  -2  -6 3193.91  123.62
   0   2  -6 3447.42  123.72
   0   2  -6 3055.76  121.35
   0   2   6 3107.12  121.40
   0   2  -6 3102.36  121.32
  -2  -2  -6  143.32    8.66
  -4  -2  -6  254.08   13.71
  -4   2  -6  267.02   13.63
  -6  -2  -6  136.50   12.09
  -6   2  -6  119.01   11.59
  -8  -2  -6    7.99    9.52
  -8   2  -6    2.98    8.55
  -9  -3   6   20.10    9.42
  -9   3   6   32.18    9.69
  -5  -3   6   14.40   24.82
  -5  -3   6   16.33    9.45
   5  -3  -6    7.92    4.59
  -5  -3   6   18.88    5.69
  -5   3   6  -29.13   18.11
  -5   3   6   13.76    5.00
  -5   3   6   10.29   11.25
  -3  -3   6  419.13   22.67
  -3  -3   6  401.00   16.80
   3  -3  -6  406.19   17.05
  -3  -3   6  412.05   16.70
  -3   3   6  338.17   33.94
  -3   3   6  407.52   16.81
   3   3  -6  403.49   17.05
  -3   3   6  410.64   24.41
  -3   3   6  403.69   16.61
  -3   3   6  396.48   16.76
  -3   3   6  410.23   21.06
  -1  -3   6   90.64    5.88
   1  -3  -6   91.96    6.04
   1  -3  -6  103.13   10.89
   1  -3  -6   89.24    6.07
  -1  -3   6   93.10    6.09
  -1   3   6  118.13   12.71
  -1   3   6   95.75    6.03
   1   3  -6   98.04    5.91
  -1   3   6  101.98    6.17
  -1  -3  -6  185.45    9.53
  -3  -3  -6   42.87    5.67
  -3   3  -6   57.47    5.81
  -5  -3  -6   -0.14    6.14
  -5   3  -6   -0.25    5.55
  -7  -3  -6  184.34   15.62
  -7   3  -6  165.16   14.25
  -9  -3  -6    6.84   10.77
  -9   3  -6   -3.82    9.60
  -6  -4   6  169.94   12.52
  -6  -4   6  155.28   20.34
  -6  -4   6  145.68   28.28
  -6   4   6  171.83   21.59
  -4  -4   6  371.28   22.78
   4  -4  -6  368.75   16.05
  -4  -4   6  306.87   29.41
  -4   4   6  386.70   21.22
   4   4  -6  364.91   16.05
  -4   4   6  382.29   23.09
  -2  -4   6  555.06   22.55
  -2  -4   6  560.18   27.04
  -2  -4   6  554.50   22.52
   2  -4  -6  541.07   22.58
  -2  -4   6  636.49   29.52
  -2  -4   6  538.02   22.45
   2  -4  -6  549.87   22.56
  -2   4   6  526.60   27.10
  -2   4   6  562.94   22.54
   2   4  -6  560.09   22.60
  -2   4   6  554.09   26.16
  -2   4   6  552.86   22.55
  -2   4   6  538.72   22.33
   0  -4   6   19.60    3.36
   0  -4  -6   13.05    5.52
   0  -4  -6   14.95    2.92
   0  -4  -6   16.79    2.92
   0  -4  -6   20.97    3.14
   0  -4   6   13.87    2.98
   0  -4  -6   15.45    5.83
   0   4  -6   26.17    6.30
   0   4   6   13.50    4.85
   0   4  -6   16.39    2.91
   0   4   6   12.54    3.30
   0   4  -6   14.97    3.03
  -2  -4  -6  470.10   20.30
  -4  -4  -6  254.24   13.72
  -4   4  -6  253.91   13.32
  -6  -4  -6   26.91    8.30
  -6   4  -6   21.68    7.10
  -8  -4  -6   19.82   10.51
  -8   4  -6   24.43    9.83
  -9  -5   6   29.15   10.50
  -9   5   6  -10.47   14.94
  -5  -5   6   93.53    8.58
  -5  -5   6  140.32   23.66
  -5  -5   6   85.06   13.02
  -5   5   6   97.94   13.77
  -5   5   6   82.25   13.87
  -3  -5   6   48.23   17.01
  -3  -5   6   38.15    3.78
  -3  -5   6   41.22    8.24
  -3  -5   6   38.28    3.87
  -3  -5   6   38.38    3.97
   3  -5  -6   31.87    4.16
  -3   5   6   26.65    4.03
   3   5  -6   28.44    4.07
  -3   5   6   29.25    3.40
  -3   5   6   22.38    6.43
  -3   5   6   27.72    3.88
  -3   5   6   45.13   10.52
  -1  -5   6   31.37    3.60
   1  -5  -6   30.83    3.87
   1  -5  -6   35.48    3.74
  -1  -5   6   25.73    6.81
  -1  -5   6   35.61    3.93
   1  -5  -6   30.65    6.65
  -1   5   6   41.94    4.16
   1   5  -6   41.77    3.93
  -1   5   6   30.12    3.48
   1   5  -6   45.12   10.32
  -1   5   6   23.37    5.51
  -1  -5  -6  108.56    7.16
  -1  -5  -6  112.22   10.41
  -1  -5  -6  106.11   10.38
  -1   5  -6  112.65   11.20
  -1   5  -6  117.66   12.83
  -3  -5  -6   22.00    5.02
  -5  -5  -6    6.79    6.47
  -5   5  -6    8.94    5.89
  -7  -5  -6   44.68   10.67
  -7   5  -6   56.24    9.94
  -6  -6   6   11.53   11.63
  -6  -6   6   20.19    7.67
  -6   6   6   20.42   12.50
  -6   6   6   16.60    8.92
   4  -6  -6   75.63    6.49
  -4  -6   6   71.08   11.07
  -4   6   6   79.59   11.94
   4   6  -6   83.16    6.21
  -4   6   6   74.85   11.84
  -2  -6   6  129.13   13.08
   2  -6  -6   93.99    6.46
  -2  -6   6   94.17    6.21
  -2  -6   6   95.35    6.25
   2  -6  -6   97.37    6.47
  -2  -6   6   99.22    6.24
  -2   6   6   88.49   11.01
   2   6  -6   96.23    6.58
  -2   6   6   89.04    6.49
  -2   6   6   98.58    6.47
  -2   6   6   96.03    5.91
   0  -6  -6  206.19   15.16
   0  -6   6  237.07   10.21
   0  -6  -6  219.28   10.14
   0  -6  -6  223.04   10.19
   0  -6  -6  220.50   14.94
   0  -6   6  228.38   10.26
   0   6  -6  227.35   15.46
   0   6   6  217.57   10.21
   0   6   6  222.06   10.32
   0   6  -6  253.63   21.36
   0   6  -6  211.54    9.97
   0   6  -6  229.48   10.24
  -2  -6  -6  214.48   11.19
  -4  -6  -6   17.82    5.85
  -6  -6  -6   71.88   10.30
  -6   6  -6   73.23    8.91
  -8  -6  -6   36.54   11.18
  -8   6  -6   26.29    9.15
  -9  -7   6   13.25   11.31
  -9  -7   6  -13.64   16.50
  -9   7   6  -11.29   14.90
  -5  -7   6  160.69   19.81
   5  -7  -6  146.42    9.53
  -5  -7   6  122.14   10.55
  -5   7   6  119.38   21.16
  -5   7   6  149.52   16.55
  -3  -7   6  135.64    7.78
   3  -7  -6  142.65    7.66
   3  -7  -6  128.43    8.57
   3  -7  -6  143.13    8.03
  -3  -7   6  140.72   15.01
  -3  -7   6  129.30    7.56
  -3  -7   6  118.62   17.28
  -3  -7   6  131.13    7.98
  -3   7   6  135.72    7.98
   3   7  -6  141.57    8.01
  -3   7   6  148.94    7.40
  -3   7   6  146.92   13.47
  -3   7   6  162.04   14.93
  -3   7   6  141.39    7.90
   1  -7  -6  108.15    6.96
  -1  -7   6  114.98   12.72
  -1  -7   6  113.34    6.89
  -1  -7   6  115.58    6.86
   1  -7  -6  120.80    6.94
   1  -7  -6  112.10   12.56
   1   7  -6  111.06    6.95
  -1   7   6  121.42    7.02
  -1   7   6  108.57    6.66
  -1   7   6  123.32   11.57
   1  -7   6   11.85    3.32
  -1  -7  -6   12.04    6.20
  -1  -7  -6   13.86    3.88
  -1  -7  -6   10.32    6.21
  -1   7  -6   13.24    2.86
  -1   7  -6   12.05    6.46
  -1   7  -6   32.25    8.61
   1   7   6   11.58    3.34
  -3  -7  -6   60.31    6.71
  -5  -7  -6   90.39    9.85
  -7  -7  -6  107.96   13.87
  -8  -8   6    1.39   14.19
  -8  -8   6  -31.77   26.99
  -8  -8   6   22.69    9.99
  -8   8   6   12.65   14.33
  -6  -8   6   39.54   14.13
  -6  -8   6   46.77    8.76
   6  -8  -6   44.69    7.11
  -6  -8   6   52.57   22.00
  -6   8   6   48.76   14.17
  -6   8   6   37.44   11.27
   4  -8  -6   12.73    3.83
  -4  -8   6   19.06    9.09
   4  -8  -6   12.28    4.45
  -4   8   6   13.42    3.31
  -4   8   6   15.30    7.21
   4   8  -6   23.48    4.40
  -4   8   6   11.71    4.12
  -2  -8   6  226.27   16.79
   2  -8  -6  206.99   10.63
  -2  -8   6  217.86   10.52
   2  -8  -6  206.51   10.26
  -2  -8   6  220.68   10.66
   2  -8  -6  214.01   10.66
  -2   8   6  223.91   10.78
  -2   8   6  229.14   10.76
  -2   8   6  229.72   10.31
  -2   8   6  218.84   15.53
   2   8  -6  233.59   10.84
   0  -8   6  421.40   17.02
   0  -8   6  411.13   17.07
   0  -8  -6  396.20   22.29
   0  -8  -6  399.15   16.94
   0  -8  -6  393.35   16.96
   0  -8  -6  390.09   22.49
   0   8   6  408.31   17.16
   0   8  -6  403.54   22.16
   0   8   6  404.09   17.16
   0   8  -6  407.99   16.98
   0   8  -6  405.42   16.87
  -2  -8  -6  263.37   13.38
  -2  -8  -6  290.00   18.27
  -2   8  -6  275.38   18.11
  -2   8  -6  270.27   18.31
  -4  -8  -6   97.77    9.20
  -6  -8  -6   55.63    9.90
  -8  -8  -6   28.72   10.40
  -9  -9   6   19.80   11.69
  -7  -9   6   61.30   17.93
  -7  -9   6   35.91   24.66
  -7  -9   6   92.21   12.04
   7  -9  -6   95.86    9.61
  -7   9   6   70.38   14.57
  -7   9   6   74.75   15.38
  -5  -9   6  127.91   21.09
   5  -9  -6  130.30    9.31
  -5  -9   6   96.22   24.73
   5   9  -6  123.50    8.81
  -5   9   6  124.20   17.21
  -5   9   6  161.45   19.40
  -3  -9   6   76.57    6.15
   3  -9  -6   74.70    6.61
   3  -9  -6   71.28    5.88
  -3  -9   6   80.36   13.89
  -3  -9   6   84.79    6.67
  -3  -9   6   36.87   16.30
   3  -9  -6   83.75    6.48
  -3  -9   6   83.60    6.40
  -3   9   6   69.64    6.34
  -3   9   6   84.94   12.74
   3   9  -6   70.00    6.57
  -3   9   6   76.16    6.36
  -3   9   6   75.07   11.74
  -3   9   6   86.56    5.85
  -1  -9   6    0.72    3.37
  -1  -9   6    5.84    6.38
  -1  -9   6    3.39    3.53
   1  -9  -6    8.25    3.17
   1  -9  -6    1.50    6.69
   1  -9  -6    1.36    3.67
   1  -9  -6    9.15    3.59
  -1   9   6    2.15    3.86
   1   9  -6    8.35    3.87
  -1   9   6    0.28    6.43
  -1   9   6    8.23    3.53
  -1  -9  -6    9.17    3.90
  -1  -9  -6   -2.22    6.94
  -1  -9  -6    7.63    3.16
  -1  -9  -6    5.70    6.82
   1  -9   6    7.92    3.53
  -1   9  -6    6.95    3.09
  -1   9  -6    8.50    3.29
  -1   9  -6    9.25    7.07
   1   9   6    4.40    3.62
  -3  -9  -6   25.55    5.87
  -3   9  -6   20.01    7.81
  -3   9  -6   27.79    8.85
  -5  -9  -6   19.26    7.54
  -7  -9  -6   23.14   10.24
  -8 -10   6   24.75   10.35
  -8 -10   6   -8.75   14.92
  -8  10   6   43.01   12.69
  -6 -10   6   26.65    8.04
  -6 -10   6   30.41   13.84
   6 -10  -6   41.36    7.05
   6  10  -6   47.61    6.56
  -6  10   6   41.83   12.23
  -6  10   6   32.43   11.55
   4 -10  -6  103.25    8.02
   4 -10  -6  103.71    7.90
  -4 -10   6  118.00   18.33
  -4 -10   6  107.90    7.50
  -4 -10   6  108.77    8.31
  -4 -10   6  116.14   23.93
  -4  10   6   98.93   16.44
  -4  10   6  100.11    7.36
  -4  10   6  100.49    7.74
   4  10  -6  106.58    8.23
  -4  10   6  108.47   14.48
  -4  10   6  108.59    7.12
  -2 -10   6   95.46    6.84
   2 -10  -6   91.56    6.81
  -2 -10   6   77.77   16.10
  -2 -10   6  112.52   14.02
   2 -10  -6   85.50    6.50
   2 -10  -6   87.83    6.98
  -2 -10   6   93.60    6.94
   2  10  -6  105.15    7.14
  -2  10   6   85.35   11.78
  -2  10   6   92.95    7.03
  -2  10   6   95.14   12.98
  -2  10   6   90.73    6.30
  -2  10   6   97.78    7.06
   0 -10  -6  606.96   31.52
   0 -10   6  657.68   26.19
   0 -10  -6  610.36   26.08
   0 -10  -6  606.38   26.06
   0 -10   6  636.49   26.21
   0 -10  -6  642.19   32.00
   0  10   6  652.99   26.35
   0  10  -6  662.44   26.20
   0  10  -6  641.32   32.20
   0  10  -6  723.54   38.04
   0  10  -6  615.85   25.93
   0  10   6  635.33   26.32
  -2 -10  -6  184.17   16.74
   2 -10   6  175.60    9.44
  -2 -10  -6  190.55   10.47
  -2 -10  -6  182.71   16.23
  -2  10  -6  170.85   16.95
  -2  10  -6  190.73   16.28
   2  10   6  183.97    9.64
  -4 -10  -6  231.94   14.40
  -6 -10  -6  161.75   14.97
  -8 -10  -6   -1.26   11.80
  -7 -11   6   51.13   17.65
  -7 -11   6   46.56   10.28
   7 -11  -6   68.23    9.81
  -7  11   6   69.80   14.26
   5 -11  -6   11.56    5.77
  -5 -11   6  -33.67   22.54
  -5 -11   6   19.63   12.47
  -5  11   6   25.13   10.84
   5  11  -6   17.80    5.57
  -5  11   6   10.57    9.28
  -3 -11   6   34.34    5.21
   3 -11  -6   31.02    4.87
  -3 -11   6   32.32    4.34
  -3 -11   6   20.82   17.83
  -3 -11   6   27.84    4.86
   3 -11  -6   36.01    5.16
   3 -11  -6   29.85    4.46
  -3 -11   6   33.51    9.41
  -3  11   6   38.42    5.01
  -3  11   6   27.87    4.09
  -3  11   6   22.88    7.69
   3  11  -6   34.10    5.29
  -3  11   6   34.58    4.93
  -3  11   6   22.62    8.75
  -1 -11   6    2.48    6.94
   1 -11  -6    6.16    7.53
   1 -11  -6    6.82    3.97
   1 -11  -6    7.10    3.80
  -1 -11   6    6.36    3.71
   1 -11  -6    5.83    3.59
  -1 -11   6    4.47    3.87
  -1  11   6   -0.96    3.91
   1  11  -6  -25.39   14.46
   1  11  -6    6.33    4.06
  -1  11   6    5.27    6.33
  -1  11   6    8.48    4.17
   1 -11   6    4.84    3.44
  -1 -11  -6    4.92    7.74
  -1 -11  -6    9.17    3.70
   1 -11   6    6.19    3.82
  -1 -11  -6    5.42    6.98
  -1 -11  -6    2.66    3.67
  -1 -11  -6    3.43    3.91
  -1  11  -6    2.99    3.29
  -1  11  -6    5.22   10.09
  -1  11  -6    5.16    3.49
   1  11   6    2.34    4.06
  -1  11  -6    4.61    7.08
  -3 -11  -6   42.87    6.67
  -3 -11  -6   40.36   10.21
  -3  11  -6   51.29   11.17
  -3  11  -6   44.01    9.97
  -5 -11  -6    9.39    7.74
  -7 -11  -6   54.96   10.94
  -8 -12   6   49.49   19.92
  -8 -12   6   69.47   11.75
   8 -12  -6   67.78   10.63
  -8  12   6   59.18   15.09
  -6 -12   6   13.50   14.63
  -6 -12   6   15.08    8.54
   6 -12  -6   24.47    7.08
  -6  12   6   27.12   12.43
   6  12  -6   18.73    5.86
  -4 -12   6   11.99    4.14
  -4 -12   6   11.76    5.33
   4 -12  -6   12.78    4.66
   4 -12  -6   10.45    5.38
  -4 -12   6   15.91   10.87
  -4  12   6    6.25    9.92
   4  12  -6   17.81    5.20
  -4  12   6   10.53    3.94
  -4  12   6    6.47    8.00
  -4  12   6   14.37    4.99
  -2 -12   6  201.49   23.85
   2 -12  -6  171.83    9.57
   2 -12  -6  179.47   10.13
   2 -12  -6  188.27   10.08
  -2 -12   6  170.34   10.26
  -2 -12   6  184.70   18.17
  -2 -12   6  196.68   10.43
  -2  12   6  184.71    9.85
  -2  12   6  180.30   10.20
  -2  12   6  184.05   18.17
  -2  12   6  174.16   10.17
   2  12  -6  186.25   10.53
   0 -12   6    0.21    3.74
   0 -12  -6   -1.45    3.78
   0 -12  -6    4.33    7.67
   0 -12  -6    9.88    6.68
   0 -12  -6   -1.57    3.80
   0 -12   6    6.37    4.12
   0  12  -6   -3.56    3.66
   0  12  -6   -1.33    3.15
   0  12   6    5.85    4.11
   0  12  -6   -2.12    7.50
   0  12   6    1.39    4.26
  -2 -12  -6   92.50   15.84
   2 -12   6   88.29    7.32
  -2 -12  -6   92.75   16.08
  -2 -12  -6   86.35    7.96
   2  12   6  100.85    7.42
  -2  12  -6   87.67    7.00
  -2  12  -6   74.74   13.09
  -2  12  -6   68.97   11.22
  -4 -12  -6    9.54    6.94
  -4  12  -6    8.14   10.98
  -4  12  -6   13.38    9.89
  -6 -12  -6   20.06    9.25
  -7 -13   6   26.92    8.80
   7 -13  -6   24.55    7.76
  -7 -13   6    4.79   15.16
  -7  13   6   26.50   13.33
   7  13  -6   13.08    6.41
   5 -13  -6  143.49   10.79
  -5 -13   6  129.78   12.21
  -5 -13   6  148.24   24.94
  -5 -13   6  104.89   29.48
   5  13  -6  128.78   10.40
  -5  13   6  157.55   21.12
  -3 -13   6   56.88   11.78
   3 -13  -6   82.12    6.65
  -3 -13   6   78.07    6.85
   3 -13  -6   75.66    7.27
   3 -13  -6   76.28    6.47
  -3 -13   6   47.13   21.00
  -3 -13   6   81.57    7.13
  -3  13   6   54.90   10.56
  -3  13   6   63.31   11.88
   3  13  -6   72.26    7.26
  -3  13   6   68.08    5.84
  -3  13   6   77.87    6.95
  -3  13   6   74.54    6.85
  -1 -13   6   34.43    9.17
  -1 -13   6   38.84    5.60
   1 -13  -6   47.41    5.54
   1 -13  -6   43.67    4.95
   1 -13  -6   45.97    9.73
   1 -13  -6   38.04    5.05
  -1 -13   6   38.29    5.17
   1  13  -6   47.10    5.70
  -1  13   6   44.45    5.45
  -1  13   6   21.95    8.49
  -1  13   6   45.51    5.79
  -1 -13  -6   42.38   10.24
  -1 -13  -6   57.10    5.73
   1 -13   6   53.96    5.28
  -1 -13  -6   51.82    5.61
  -1 -13  -6   54.11    5.68
   1 -13   6   57.52    5.90
  -1 -13  -6   55.17   10.71
  -1  13  -6   46.94   14.76
  -1  13  -6   55.37    5.51
   1  13   6   53.76    6.20
  -1  13  -6   62.66    5.19
  -1  13  -6   51.45   10.13
  -3 -13  -6   91.94    8.96
   3 -13   6   78.55    7.17
  -3 -13  -6   61.65   13.50
  -3 -13  -6   73.74   13.15
  -3  13  -6   99.39   17.20
  -3  13  -6   65.06   13.54
  -5 -13  -6   66.01   10.10
  -5  13  -6   57.87   13.50
  -5  13  -6   51.73   14.64
  -7 -13  -6   35.38   13.45
  -8 -14   6    7.35   11.12
  -8 -14   6  -14.37   18.65
   8 -14  -6   -2.85    8.33
  -8  14   6   12.30   13.17
   6 -14  -6   26.11    7.46
  -6 -14   6   17.59   15.13
  -6 -14   6   32.08    8.87
  -6  14   6   30.99   12.77
   6  14  -6   23.63    6.70
   4 -14  -6  103.98    7.62
  -4 -14   6   33.43   22.89
  -4 -14   6   87.21    7.17
  -4 -14   6   84.82    8.14
  -4 -14   6   85.39   15.01
   4 -14  -6   90.57    8.46
  -4  14   6   89.65    7.51
   4  14  -6   80.48    8.01
  -4  14   6   82.74   14.84
  -4  14   6   90.31    8.22
  -4  14   6   84.80    6.91
   2 -14  -6    6.65    4.33
  -2 -14   6    9.38    8.70
  -2 -14   6    8.38   14.39
  -2 -14   6    9.80    4.71
   2 -14  -6    1.99    4.56
  -2 -14   6   10.16    4.99
   2 -14  -6    9.51    4.91
  -2  14   6    3.54    8.71
  -2  14   6    1.14    4.67
   2  14  -6    9.83    5.18
  -2  14   6   -0.83    4.94
   0 -14   6    0.65    4.15
   0 -14  -6    9.95    7.76
   0 -14  -6    0.86    8.10
   0 -14   6    3.39    4.53
   0 -14  -6   13.12    4.74
   0 -14  -6   -0.38    4.55
   0  14  -6    5.95    4.73
   0  14   6    6.18    4.74
   0  14   6   11.28    5.30
   0  14  -6   -8.06   16.47
   0  14  -6   -1.08    3.65
  -2 -14  -6  114.00   19.16
   2 -14   6  157.13    9.62
  -2 -14  -6  143.36   19.52
  -2 -14  -6  132.02   10.52
  -2  14  -6  151.92    9.71
  -2  14  -6  155.05   18.51
  -2  14  -6  149.45    8.97
   2  14   6  142.04    9.86
  -2  14  -6  172.42   22.99
  -2  14  -6  145.38    8.95
  -4 -14  -6   46.84   14.80
   4 -14   6   56.51    7.57
  -4 -14  -6   44.88    8.81
  -4 -14  -6   32.64   14.96
  -4  14  -6   45.92   12.44
  -4  14  -6   35.46   13.82
  -6 -14  -6    4.17    8.88
  -6  14  -6   11.20   14.39
  -6  14  -6    2.95   12.28
  -7 -15   6   42.52   17.98
   7 -15  -6   57.81    9.86
  -7 -15   6   61.67   13.28
   7  15  -6   45.40    8.45
  -7  15   6   69.89   16.72
   5 -15  -6   28.79    6.79
  -5 -15   6   22.76    8.59
  -5 -15   6   24.24   14.22
   5  15  -6   23.83    6.17
  -5  15   6   26.16    5.23
  -5  15   6   28.17   12.14
   3 -15  -6   87.35    7.22
  -3 -15   6   79.69    7.74
  -3 -15   6   91.24    8.44
   3 -15  -6   86.00    7.77
   3 -15  -6   88.96    8.40
  -3 -15   6   64.09   13.83
  -3  15   6   98.20    8.08
   3  15  -6   71.87    7.95
  -3  15   6   80.82   14.22
  -3  15   6   93.07    7.30
  -3  15   6   79.01    7.77
  -1 -15   6  140.96    9.65
   1 -15  -6  152.85   18.58
  -1 -15   6  130.86    9.75
  -1 -15   6  137.22   18.01
   1 -15  -6  127.29    9.17
   1 -15  -6  140.54    9.21
   1 -15  -6  143.70    9.46
  -1  15   6  132.05    9.97
   1  15  -6  118.25    9.80
  -1  15   6  126.29   18.18
  -1  15   6  151.53   10.41
   1  15  -6  107.45   24.26
  -1 -15  -6   78.77    7.28
   1 -15   6   80.61    7.49
  -1 -15  -6   68.72   12.91
   1 -15   6   95.47    7.82
  -1 -15  -6   85.87    7.80
  -1 -15  -6   61.72   12.96
  -1  15  -6   91.04    6.99
  -1  15  -6   82.71   17.87
   1  15   6   93.71    7.81
  -1  15  -6   81.08    6.92
  -1  15  -6   67.90   12.30
   3 -15   6  138.97   10.05
  -3 -15  -6  140.71   11.88
  -3 -15  -6  133.18   24.53
  -3 -15  -6  145.13   23.82
  -3  15  -6  139.00   20.08
   3  15   6  128.42   10.72
  -3  15  -6   95.68   17.42
  -5 -15  -6   42.78    9.65
   5 -15   6   51.98    7.94
  -5 -15  -6   12.84   17.97
  -5 -15  -6   55.48   17.71
  -5  15  -6   38.19   13.12
  -5  15  -6   35.77   15.40
  -7 -15  -6   49.38   15.14
  -7  15  -6   42.14   18.60
  -6 -16   6   30.04   10.28
   6 -16  -6    9.82    7.74
  -6 -16   6   16.87   15.86
   6  16  -6    9.32    6.31
  -6  16   6   17.61   12.86
  -4 -16   6   22.42    7.09
  -4 -16   6   20.41    6.39
   4 -16  -6   21.91    6.53
  -4 -16   6   13.90   11.81
  -4 -16   6    9.75    4.55
   4 -16  -6   25.97    6.94
  -4  16   6   20.12    5.13
  -4  16   6   21.25    6.49
  -4  16   6   22.87    5.97
   4  16  -6   14.66    6.73
  -4  16   6   11.89   12.53
  -2 -16   6  179.09   20.48
  -2 -16   6  175.08   11.56
  -2 -16   6  185.04   10.20
   2 -16  -6  172.18   10.43
  -2 -16   6  161.53   11.26
   2 -16  -6  154.90   10.67
  -2  16   6  141.45   11.15
   2  16  -6  158.67   11.23
  -2  16   6  149.30   11.43
  -2  16   6  132.29   20.98
   0 -16  -6   45.64   12.42
   0 -16  -6   58.10    6.80
   0 -16  -6   60.84    7.68
   0 -16   6   53.06    6.74
   0 -16   6   49.74    7.13
   0  16   6   73.16    7.16
   0  16  -6   51.21    7.15
   0  16  -6   26.69   20.24
   0  16  -6   63.07    6.95
   0  16   6   84.09    8.06
  -2 -16  -6    9.30   12.16
   2 -16   6   13.65    5.83
  -2 -16  -6   23.64   13.06
  -2 -16  -6   22.88    6.40
  -2  16  -6   10.95    4.80
  -2  16  -6   10.28    5.17
  -2  16  -6    7.72    9.91
  -2  16  -6    5.03   14.11
   2  16   6   27.56    6.49
   4 -16   6   21.21    6.51
  -4 -16  -6   12.54   13.94
  -4 -16  -6   19.61    8.20
  -4 -16  -6   -3.70   15.24
  -4  16  -6   16.03   14.90
   4  16   6   13.67    6.73
  -4  16  -6   20.54   12.55
  -6 -16  -6    5.10   17.88
  -6 -16  -6   14.65   11.23
  -6  16  -6    4.81   15.71
  -7 -17   6   38.30   20.24
   7 -17  -6   52.27   10.90
  -7 -17   6   30.79   12.43
   7  17  -6   35.75    8.51
  -5 -17   6   21.28    9.61
  -5 -17   6   22.09   14.76
   5 -17  -6   28.20    8.06
  -5  17   6    5.75    5.31
  -5  17   6   13.00   13.11
   5  17  -6   13.32    6.98
   3 -17  -6  206.73   12.86
  -3 -17   6  201.78   27.11
  -3 -17   6  193.88   13.61
   3 -17  -6  222.87   12.30
  -3 -17   6  173.37   13.36
   3  17  -6  182.38   12.59
  -3  17   6  178.93   12.86
  -3  17   6  173.43   23.84
  -3  17   6  171.99   12.22
   1 -17  -6  107.50    9.67
  -1 -17   6  113.08    9.34
   1 -17  -6  137.53    9.75
   1 -17  -6  125.73    9.82
   1 -17  -6   84.93   15.44
  -1 -17   6   92.02   16.62
  -1 -17   6  104.67    9.43
  -1  17   6  108.04    9.45
   1  17  -6  104.28    9.25
  -1  17   6  124.59   10.07
  -1 -17  -6    2.10    6.18
   1 -17   6    5.02    5.60
  -1 -17  -6   -3.22    5.76
  -1 -17  -6    0.46   10.81
   1 -17   6    5.51    5.53
  -1  17  -6    6.29    4.71
  -1  17  -6  -17.24   16.47
  -1  17  -6   13.57    5.36
   1  17   6   19.61    6.88
  -3 -17  -6  108.06   19.35
  -3 -17  -6  146.26   12.76
  -3 -17  -6  135.92   24.42
   3 -17   6  167.81   11.20
   3  17   6  132.86   11.47
  -3  17  -6  128.30   21.63
  -5 -17  -6   14.31   17.39
  -5 -17  -6   -7.86   20.27
   5 -17   6   10.17    7.04
  -5 -17  -6    3.64    8.87
  -5  17  -6    1.78   15.31
  -7 -17  -6   22.98   10.51
  -7  17  -6   12.62   18.67
  -6 -18   6   17.18    9.68
   6 -18  -6    7.36    9.00
  -6 -18   6   24.11   17.45
   6  18  -6   11.15    7.75
   4 -18  -6   86.96    9.77
  -4 -18   6   97.07   18.09
  -4 -18   6  105.61   10.55
  -4  18   6   98.65    9.38
   4  18  -6   84.18    9.60
  -4  18   6   90.51    8.95
  -2 -18   6   50.29    7.78
   2 -18  -6   50.19    8.37
  -2 -18   6   72.00    8.58
   2 -18  -6   50.31    7.32
   2 -18  -6   51.71    7.64
  -2  18   6   55.88    7.44
  -2  18   6   48.61    8.21
   2  18  -6   61.35    8.33
   0 -18   6   55.99    6.90
   0 -18  -6   75.21    8.36
   0 -18  -6   64.95    8.76
   0 -18   6   62.12    8.50
   0 -18  -6   60.17    7.07
   0 -18  -6   56.40   15.09
   0  18   6   76.42    9.34
   0  18  -6   66.51    7.93
   0  18   6   70.01    7.99
   0  18  -6   23.34   28.00
  -2 -18  -6   42.32    7.89
  -2 -18  -6   40.87   14.84
   2 -18   6   37.80    7.28
  -2 -18  -6   59.73    8.31
  -2  18  -6   34.91    6.71
  -2  18  -6   36.83    6.18
  -2  18  -6   43.79    6.54
  -2  18  -6   31.93   18.85
   2  18   6   69.74    8.11
   4 -18   6   20.91    6.78
  -4 -18  -6   24.69   10.59
  -4 -18  -6   28.57   16.28
  -4  18  -6   -0.89   16.61
   4  18   6   54.81    8.87
   6 -18   6    7.05    7.67
   6 -18   6   10.86    8.53
  -6 -18  -6   14.12   13.23
  -6 -18  -6    4.05   18.09
  -6  18  -6    4.33   18.31
   7 -19  -6   24.18   11.03
  -7 -19   6   42.44   13.68
   7  19  -6   29.18    9.17
  -5 -19   6   43.95   12.06
   5 -19  -6   30.07    8.21
  -5  19   6   42.52    7.42
   5  19  -6   35.36    8.59
   3 -19  -6   22.21    6.46
  -3 -19   6   41.84    8.52
   3 -19  -6   30.15    7.61
  -3 -19   6   40.87    7.70
  -3  19   6   28.06    7.57
   3  19  -6   24.53    7.66
  -3  19   6   18.35    7.00
   1 -19  -6  228.03   13.66
   1 -19  -6  220.16   13.36
   1 -19  -6  222.87   13.09
  -1 -19   6  192.17   13.06
  -1 -19   6  201.27   13.83
  -1 -19   6  214.78   14.28
  -1  19   6  222.87   14.03
  -1  19   6  203.38   14.99
   1  19  -6  202.85   13.74
  -1 -19  -6  142.46   26.58
  -1 -19  -6  157.17   13.23
   1 -19   6  154.03   12.11
  -1 -19  -6  157.94   11.36
  -1  19  -6   86.97   30.55
  -1  19  -6  128.90   11.02
   1  19   6  167.02   14.04
  -3 -19  -6   38.82    8.99
   3 -19   6   39.81    7.86
  -3 -19  -6   40.15   16.88
   3  19   6   74.53    9.47
  -3  19  -6   67.92    7.49
  -3  19  -6   26.99   18.38
  -5 -19  -6   10.08   18.17
  -5 -19  -6   23.43   10.96
   5 -19   6   15.25    8.39
   5  19   6   16.14   10.11
  -5  19  -6  -16.95   18.47
   6 -20  -6   13.81    8.73
  -6 -20   6    4.91    9.86
   6  20  -6    4.22    7.82
  -4 -20   6   34.55    9.22
   4 -20  -6   26.55    7.94
  -4  20   6   25.28    7.72
   4  20  -6   29.30    8.80
  -4  20   6   24.60    7.59
   2 -20  -6  344.30   17.12
  -2 -20   6  295.58   18.64
  -2 -20   6  304.73   19.35
   2 -20  -6  334.26   17.62
  -2  20   6  299.97   17.90
  -2  20   6  288.72   18.33
   2  20  -6  311.94   17.91
   0 -20   6  403.82   20.50
   0 -20  -6  405.21   20.59
   0 -20   6  373.26   19.73
   0 -20  -6  400.44   20.00
   0  20  -6  352.75   19.16
   0  20   6  359.06   20.78
   2 -20   6   88.48   10.94
  -2 -20  -6  112.58   11.13
  -2 -20  -6   85.20   10.44
  -2 -20  -6   77.41   19.08
   2  20   6  101.01   10.38
  -2  20  -6   89.27    9.09
  -2  20  -6   98.68    9.58
   4 -20   6   -1.59    6.58
  -4 -20  -6    5.30   16.69
   4  20   6    2.15    8.05
  -4  20  -6  -29.47   18.16
  -6 -20  -6   24.77   22.04
  -6 -20  -6   25.44   13.29
  -6  20  -6  -18.35   20.14
   6  20   6   33.87   11.37
  -5 -21   6   35.90   12.02
  -5  21   6   41.30    8.17
   5  21  -6   26.22    8.88
   3 -21  -6   18.14    6.86
  -3 -21   6   20.31    8.55
  -3 -21   6   21.90    8.54
   3 -21  -6   14.03    7.74
  -3  21   6    6.02    7.46
   3  21  -6   14.72    8.76
  -3  21   6   24.83    7.84
  -1 -21   6  103.98   10.45
   1 -21  -6  126.35   11.59
   1 -21  -6  108.86   10.90
   1 -21  -6  101.38   10.74
  -1 -21   6  110.94    9.69
  -1 -21   6  114.50   11.33
   1  21  -6  106.25   10.96
  -1  21   6  122.27   11.84
  -1  21   6   99.23   10.94
  -1 -21  -6  135.07   11.43
  -1 -21  -6  134.44   12.30
   1 -21   6  111.30   10.31
   1 -21   6  105.57   10.89
  -1  21  -6   91.54    9.54
   1  21   6  130.00   11.87
  -3 -21  -6   29.58   17.99
  -3 -21  -6   50.44    9.86
   3 -21   6   32.00    7.77
   3  21   6   32.91    8.78
  -3  21  -6   33.62    7.42
  -5 -21  -6   30.83   22.86
   5 -21   6   35.40   10.34
  -5 -21  -6   36.21   13.14
   5 -21   6   36.48    9.64
   5  21   6   44.76   10.66
   4 -22  -6   18.14    8.50
  -4 -22   6    8.98   11.65
  -4 -22   6   25.71   10.08
  -4  22   6    0.62    8.04
   4  22  -6   28.37   10.08
  -2 -22   6   64.33    8.54
  -2 -22   6   57.42   10.47
   2 -22  -6   64.85    9.50
  -2 -22   6   60.64   11.01
   2 -22  -6   58.53    9.89
  -2  22   6   48.45    9.28
  -2  22   6   63.93   10.28
   2  22  -6   38.87    9.22
   0 -22  -6  171.53   13.63
   0 -22  -6  158.92   12.61
   0 -22   6  151.74   12.30
   0 -22   6  150.57   13.37
   0  22  -6  162.10   13.19
   0  22   6  177.66   15.50
  -2 -22  -6   35.57    8.86
  -2 -22  -6   33.29    9.74
   2 -22   6   40.50    8.46
   2  22   6   36.49   10.88
  -2  22  -6   25.37    8.15
  -2  22  -6   48.44    7.95
  -4 -22  -6   85.68   14.65
   4 -22   6   83.27   12.28
   4  22   6   66.65   11.95
  -5 -23   6    8.05   11.24
   5  23  -6   13.08    9.10
  -5  23   6    3.24    7.87
  -3 -23   6   34.46   12.03
   3 -23  -6   55.80   11.71
   3  23  -6   35.53    9.73
  -3  23   6   35.47    9.05
  -3  23   6   33.45    8.59
  -1 -23   6   30.00    8.50
   1 -23  -6   22.01    8.65
   1 -23  -6   29.38    8.27
  -1 -23   6   28.55    7.43
   1 -23  -6   30.60    9.84
  -1 -23   6   38.25    9.11
  -1  23   6   19.74    9.51
   1  23  -6   30.52    8.66
   1 -23   6   18.27    7.43
  -1 -23  -6   21.24    9.40
  -1 -23  -6   34.71    9.99
   1 -23   6   14.31    7.83
   1  23   6   29.24    9.90
  -1  23  -6   22.99    8.19
  -1  23  -6   28.60    7.55
   3 -23   6   34.36    8.97
  -3 -23  -6   38.73   10.81
  -3  23  -6   36.73    8.28
   3  23   6   35.62   10.53
   5 -23   6   29.21   11.26
   5 -23   6   35.47   10.06
  -5 -23  -6   38.80   13.72
   5  23   6   35.52   11.34
  -4 -24   6   -6.89   10.48
  -4 -24   6   -1.64   10.38
   4 -24  -6    6.51    9.26
   4  24  -6    4.43    9.59
  -4  24   6    3.71    8.63
   2 -24  -6   63.00   10.23
  -2 -24   6   42.22   10.83
  -2 -24   6   31.26    8.80
   2 -24  -6   59.11   10.98
   2  24  -6   46.84   10.04
  -2  24   6   44.72   10.76
  -2  24   6   43.59   10.04
   0 -24  -6    1.68    7.61
   0 -24   6    4.47    7.16
   0 -24   6    2.53    7.99
   0 -24  -6   10.14   10.01
   0  24   6   20.43   10.08
   0  24  -6    1.62    7.48
  -2 -24  -6   57.57   12.27
   2 -24   6   25.30    8.70
   2  24   6   40.73   10.89
  -2  24  -6   26.01    8.26
   4 -24   6    7.82    8.39
   4 -24   6   13.81    8.96
   4  24   6    4.81   10.87
   3 -25  -6    8.63    7.76
  -3 -25   6    9.94   10.15
  -3 -25   6    6.70   12.12
  -3  25   6   10.02    9.12
  -3  25   6    3.19    8.22
   3  25  -6   19.29   10.15
  -1 -25   6   39.82    8.82
   1 -25  -6   35.47    9.36
   1 -25  -6   24.00   10.05
  -1  25   6   12.94    9.90
   1  25  -6   34.24    9.32
   1 -25   6   11.57    9.28
   1 -25   6   -4.02    8.61
  -1 -25  -6   27.73   11.15
   1  25   6   13.80   11.69
  -1  25  -6   22.33    8.09
  -1  25  -6    7.28    8.08
  -3 -25  -6   14.35   10.62
   3  25   6   27.11   10.69
  -3  25  -6   23.21    8.52
   2 -26  -6   24.20   11.70
  -2 -26   6   18.06    9.27
  -2 -26   6   13.82   11.65
   2  26  -6   14.26    9.68
  -2  26   6    4.81    9.57
   0 -26  -6   29.02   12.59
   0 -26   6    4.95    9.00
   0  26   6   17.39   11.38
   0  26  -6   18.26    8.41
   2 -26   6   20.68   10.58
  -2  26  -6   29.43    9.26
   2  26   6   29.64   12.26
  -1 -27   6   17.15   10.51
   1 -27  -6   29.26   10.19
  -1 -27   6   22.64   10.11
   1  27  -6   17.50    8.86
  -1  27   6   36.39   11.61
   1 -27   6   19.77   10.50
   1  27   6   34.63   13.12
  -1  27  -6   18.82    9.23
  -8   0   7    7.54    8.52
  -6   0   7   25.01   15.65
  -6   0   7  -63.00   38.76
  -6   0   7   26.39    6.85
  -4   0   7  -24.49   25.31
  -4   0   7   29.97   10.74
  -2   0  -7    1.36    4.02
  -4   0  -7    6.35    4.96
  -6   0  -7    8.72    7.39
  -8   0  -7    5.56    8.95
  -9  -1   7  -19.12   15.51
  -9  -1   7   22.19    9.79
  -9   1   7   35.99    9.97
  -9   1   7   -5.10   15.49
  -7  -1   7   89.73   10.64
  -7  -1   7   29.23   17.83
  -7   1   7   47.17   15.75
  -7   1   7   92.05   10.16
  -5  -1   7  342.19   48.54
  -5  -1   7  277.98   14.81
  -5  -1   7  348.79   25.57
  -5   1   7  285.51   26.24
  -5   1   7  285.25   14.79
   5   1  -7  270.35   13.95
  -3  -1   7  214.01    9.86
  -3  -1   7  212.45    9.65
   3  -1  -7  206.20   10.02
  -3  -1   7  202.38    9.77
   3   1  -7  209.04   10.00
  -3   1   7  209.75    9.86
  -3   1   7  204.37    9.82
  -3   1   7  221.51    9.64
  -1  -1   7  182.00    8.89
   1  -1  -7  181.05    8.73
  -1  -1   7  178.10    8.78
   1  -1  -7  172.78    8.85
  -1   1   7  185.52    8.89
   1   1  -7  229.31   15.27
   1   1  -7  191.55    8.83
  -1   1   7  170.32   14.04
   1   1  -7  190.04    9.03
  -1   1   7  172.59    8.72
  -3  -1  -7   17.46    4.82
  -3   1  -7   24.03    5.04
  -5  -1  -7   75.31    8.39
  -5   1  -7   69.76    8.48
  -7  -1  -7   57.30   10.94
  -7   1  -7   62.01   10.65
  -8  -2   7  -13.52   18.06
  -8  -2   7   67.47   10.44
  -8   2   7    1.68   15.03
  -8   2   7   45.70    9.01
  -2  -2   7   58.66    5.23
   2  -2  -7   69.91    5.37
   2  -2  -7   68.18    5.60
  -2  -2   7   66.54    5.23
  -2  -2   7   65.42    5.03
   2   2  -7   70.58    5.01
  -2   2   7   62.96    4.80
  -2   2   7   46.92    8.45
  -2   2   7   66.84   12.58
  -2   2   7   63.75    5.39
   2   2  -7   71.20    5.83
  -2   2   7   68.89    5.37
   0  -2   7   93.65    5.77
   0  -2  -7   97.87    5.62
   0  -2  -7   88.94   12.56
   0  -2  -7   95.26    5.43
   0  -2  -7   85.35    5.18
   0   2  -7   99.47    5.66
   0   2  -7   95.75    5.38
   0   2   7   91.19    5.73
  -2  -2  -7   13.49    4.31
  -4  -2  -7   44.76    6.50
  -4   2  -7   43.62    6.44
  -6  -2  -7   65.33    9.03
  -6   2  -7   50.15    8.52
  -8  -2  -7   15.03   10.12
  -8   2  -7   22.43   10.02
  -9  -3   7   66.38   13.16
  -9   3   7   51.73   10.37
  -5  -3   7  244.81   21.42
   5  -3  -7  271.18   12.88
  -5   3   7  255.91   23.47
   5   3  -7  255.19   12.77
   1  -3  -7  158.46    8.21
   1  -3  -7  165.46    8.18
  -1  -3   7  156.37   12.90
   1  -3  -7  170.52   13.83
  -1  -3   7  158.55    8.02
   1  -3  -7  167.17   13.04
  -1  -3   7  167.01    8.14
  -1   3   7  154.76   12.72
  -1   3   7  165.50    8.08
   1   3  -7  165.54    8.06
  -1   3   7  164.88    8.22
   1   3  -7  144.95   16.91
  -1  -3  -7  417.69   18.00
  -3  -3  -7  131.78    8.91
  -5  -3  -7   60.51    7.78
  -5   3  -7   51.21    7.88
  -7  -3  -7   35.22    9.84
  -7   3  -7   29.31    8.85
  -6  -4   7  228.90   23.32
  -6  -4   7  267.00   15.56
   6  -4  -7  254.73   13.60
   4  -4  -7  108.03    7.35
  -4  -4   7  113.69   14.61
  -4  -4   7   97.53   19.78
  -4   4   7  111.62   15.47
   4   4  -7  110.18    7.38
  -2  -4   7  100.20    6.08
  -2  -4   7  100.12   12.04
  -2  -4   7  105.10   15.96
   2  -4  -7   84.21    6.41
   2  -4  -7   83.56    6.25
  -2  -4   7   97.97    6.16
  -2  -4   7   96.01    6.12
   2   4  -7   99.75    6.27
  -2   4   7   85.83    5.66
  -2   4   7   89.43   12.19
  -2   4   7   89.52    6.20
  -2   4   7   95.97    6.36
   0  -4  -7   11.20    3.04
   0  -4  -7    9.40    5.67
   0  -4  -7   15.28    3.03
   0  -4  -7   21.58    5.66
   0  -4   7   15.12    3.42
   0  -4  -7   15.80    2.90
   0  -4   7   10.50    3.35
   0   4   7   10.76    3.28
   0   4  -7   12.54    3.05
   0   4  -7    3.26    7.25
   0   4  -7   14.38    2.94
   0   4  -7   14.15    6.39
  -2  -4  -7  273.38   13.21
  -4  -4  -7   31.90    6.34
  -4   4  -7   37.17    6.12
  -6  -4  -7   10.67    6.99
  -6   4  -7   11.96    7.10
  -8  -4  -7   17.45   10.51
  -8   4  -7   20.40    9.05
  -9  -5   7   44.69   11.78
  -9   5   7   -5.61   15.58
  -5  -5   7  138.74   24.71
   5  -5  -7  130.67    9.51
  -5  -5   7  140.66   18.28
  -5   5   7  179.74   27.11
  -5   5   7  125.02   19.77
   5   5  -7  142.29    8.95
  -5   5   7  139.27   15.34
  -3  -5   7   64.93    4.97
  -3  -5   7   55.17    4.70
  -3  -5   7   59.95    4.70
   3  -5  -7   74.92    5.47
   3  -5  -7   65.62    5.30
  -3   5   7   71.10    5.21
  -3   5   7   62.19    5.04
  -3   5   7   43.35   11.57
  -3   5   7   49.82    7.88
  -3   5   7   64.89    5.02
   3   5  -7   63.51    5.24
   1  -5  -7  107.27    6.73
   1  -5  -7  106.17   11.76
   1  -5  -7  111.13   16.42
   1  -5  -7  106.60    6.62
  -1  -5   7  109.18   12.18
  -1  -5   7  117.39    6.51
  -1  -5   7  103.17    6.48
  -1   5   7   85.31   11.16
  -1   5   7  110.26    6.75
   1   5  -7  109.91    6.73
  -1   5   7  103.82    6.54
  -1  -5  -7  658.57   30.42
   1  -5   7  695.95   27.57
  -1  -5  -7  711.55   28.33
  -1  -5  -7  683.70   30.64
  -1   5  -7  699.93   31.71
  -1   5  -7  701.74   31.20
  -3  -5  -7   68.16    6.71
  -5  -5  -7   17.51    7.16
  -5   5  -7   17.14    6.46
  -7  -5  -7   82.10   11.20
  -7   5  -7  104.38   11.20
  -8  -6   7   63.18   26.47
  -8  -6   7   76.78   18.13
  -8  -6   7   85.23   12.64
  -8   6   7   73.35   17.06
  -6   6   7  172.04   22.69
   4  -6  -7   73.56    6.68
  -4  -6   7   96.52   15.62
  -4   6   7   74.40    5.58
   4   6  -7   71.75    6.62
  -4   6   7   70.77    5.65
  -4   6   7   79.18   12.04
  -4   6   7   82.72   12.92
  -2  -6   7   16.11    7.08
  -2  -6   7   15.14    3.72
   2  -6  -7   15.55    3.90
   2  -6  -7   16.28    3.65
  -2  -6   7   20.19    3.50
  -2  -6   7   16.75    3.55
  -2   6   7   20.62    4.03
  -2   6   7   16.67    3.03
  -2   6   7   18.65    3.79
   2   6  -7   18.42    3.90
  -2   6   7   14.48    5.74
   0  -6   7  114.59    6.77
   0  -6  -7  114.36    6.67
   0  -6  -7  116.36   11.99
   0  -6   7  112.69    6.84
   0  -6  -7  137.84   12.22
   0  -6  -7  117.22    6.76
   0   6  -7  117.58   12.51
   0   6   7  113.24    6.76
   0   6  -7  120.94    6.76
   0   6  -7  115.26    6.40
   0   6   7  116.08    6.82
  -2  -6  -7   95.01    7.57
  -4  -6  -7  206.51   12.77
  -6  -6  -7  123.22   12.38
  -8  -6  -7    6.71   10.22
  -9  -7   7  -22.00   17.52
  -9  -7   7   28.32   11.52
  -9   7   7  -15.52   15.36
  -3  -7   7  127.01    7.44
  -3  -7   7  136.19    7.82
   3  -7  -7  120.10    7.84
   3  -7  -7  131.59    7.86
  -3  -7   7  125.60   15.11
  -3  -7   7  120.02    7.85
  -3   7   7  144.89   13.40
   3   7  -7  131.69    7.87
  -3   7   7  124.30    7.71
  -3   7   7  137.97    7.32
  -3   7   7  134.62    7.85
  -3   7   7  140.58   14.81
  -1  -7   7   20.87    7.03
  -1  -7   7   16.40    3.42
   1  -7  -7   12.57    6.55
  -1  -7   7   12.21    3.58
   1  -7  -7   20.62    3.67
   1  -7  -7   15.41    3.69
  -1   7   7    9.96    3.12
  -1   7   7   10.33    3.84
   1   7  -7   12.86    3.72
  -1  -7  -7  292.92   17.92
   1  -7   7  314.64   13.32
  -1  -7  -7  318.38   13.94
  -1  -7  -7  316.65   18.36
  -1   7  -7  289.63   12.93
  -1   7  -7  307.36   18.59
  -3  -7  -7    0.30    4.85
  -5  -7  -7   14.03    6.84
  -7  -7  -7   54.97   10.21
   8  -8  -7    6.82    7.62
  -8  -8   7    9.10   15.02
  -8  -8   7    1.68    8.90
  -8   8   7   -2.11   14.31
   6  -8  -7   83.68    8.14
  -6  -8   7   73.62    9.85
  -6  -8   7   16.30   22.36
   6   8  -7   82.55    7.45
  -6   8   7   56.52   12.11
  -6   8   7   69.27   15.27
  -4  -8   7   21.05    9.74
  -4  -8   7   47.88   19.34
  -4  -8   7   21.86    3.91
   4  -8  -7   23.12    4.16
  -4  -8   7   28.27    4.50
   4  -8  -7   25.33    4.98
   4   8  -7   21.19    4.67
  -4   8   7   24.14    8.16
  -4   8   7   27.04    4.62
  -4   8   7   29.27   10.35
  -4   8   7   27.73    4.07
  -2  -8   7  510.41   21.27
   2  -8  -7  502.00   21.25
  -2  -8   7  504.10   37.78
  -2  -8   7  483.11   21.14
  -2  -8   7  506.54   27.17
   2  -8  -7  507.39   21.20
  -2   8   7  493.87   21.24
  -2   8   7  569.86   27.90
  -2   8   7  499.34   21.12
  -2   8   7  499.46   21.23
   2   8  -7  514.99   21.41
  -2   8   7  501.80   26.40
   0  -8  -7   75.77   13.05
   0  -8  -7   48.29    4.47
   0  -8  -7   62.01    4.79
   0  -8   7   51.43    4.47
   0  -8   7   59.50    4.80
   0  -8  -7   50.68    8.54
   0   8  -7   46.58    8.44
   0   8   7   39.81    4.44
   0   8   7   49.60    4.86
   0   8  -7   51.67    4.57
   0   8  -7   53.62    4.24
  -2  -8  -7  205.15   11.49
  -2   8  -7  226.05   16.36
  -2   8  -7  217.48   16.84
  -4  -8  -7  142.17   11.14
  -6  -8  -7   39.45    8.97
  -8  -8  -7    3.47   11.43
  -9  -9   7   29.35   11.81
  -7  -9   7   72.15   11.27
  -7  -9   7   12.51   24.56
  -7  -9   7   64.84   16.68
   7  -9  -7   61.52    9.16
   7   9  -7   57.68    7.00
  -7   9   7   60.63   14.33
   5  -9  -7   65.28    6.92
  -5  -9   7   43.17   13.10
  -5  -9   7   82.40   23.53
   5   9  -7   58.46    6.33
  -5   9   7   59.21   12.21
  -5   9   7   48.57   10.94
  -3  -9   7   30.14   16.88
   3  -9  -7   38.37    4.59
  -3  -9   7   50.75    4.96
  -3  -9   7   42.11    9.37
   3  -9  -7   46.24    5.15
  -3  -9   7   41.14    5.13
   3  -9  -7   52.95    5.40
  -3  -9   7   49.65    4.63
  -3   9   7   40.77    8.27
  -3   9   7   44.29    4.95
  -3   9   7   63.65    5.48
  -3   9   7   51.28    4.52
  -3   9   7   46.84    8.69
   3   9  -7   59.84    5.64
  -1  -9   7    8.38    3.87
   1  -9  -7   -0.27    3.58
  -1  -9   7    7.17    6.81
   1  -9  -7    4.50    6.90
   1  -9  -7   14.06    3.83
  -1  -9   7    7.68    3.58
  -1   9   7    6.84    6.32
   1   9  -7    5.51    3.89
  -1   9   7   11.82    4.15
  -1   9   7    6.56    3.31
  -1  -9  -7   28.23    7.99
  -1  -9  -7   19.45    7.67
  -1  -9  -7   38.69    4.82
  -1  -9  -7   27.92    3.84
   1  -9   7   41.60    4.57
  -1   9  -7   33.62    3.67
  -1   9  -7   25.03    7.99
  -1   9  -7   51.91   11.59
   1   9   7   30.83    4.34
  -3  -9  -7   26.31    5.84
  -5  -9  -7   29.87    8.11
  -7  -9  -7   25.62   11.20
  -8 -10   7   13.23    9.72
   8 -10  -7   26.76    8.91
  -8 -10   7   21.47   16.33
  -8  10   7   42.71   12.81
  -6 -10   7    3.63    7.51
   6 -10  -7    9.58    6.02
  -6 -10   7    2.91   13.11
  -6  10   7   10.50   11.06
   6  10  -7    1.53    5.41
  -6  10   7    1.53    9.59
   4 -10  -7   37.37    5.60
  -4 -10   7   34.95   11.14
  -4 -10   7   29.43    5.43
  -4 -10   7   30.09    4.38
   4 -10  -7   29.06    4.84
  -4  10   7   30.00    4.25
  -4  10   7   33.45    5.14
  -4  10   7   24.58    8.57
  -4  10   7   34.17    9.92
   4  10  -7   41.22    5.63
  -4  10   7   41.59    5.29
  -2 -10   7  449.07   19.38
  -2 -10   7  449.33   19.37
   2 -10  -7  468.43   19.37
   2 -10  -7  438.95   19.37
  -2 -10   7  378.98   31.87
  -2 -10   7  444.48   26.40
   2 -10  -7  451.71   18.91
   2  10  -7  458.64   19.49
  -2  10   7  460.02   25.60
  -2  10   7  463.70   19.49
  -2  10   7  462.74   19.44
   0 -10  -7  183.39   16.45
   0 -10  -7  172.62    9.32
   0 -10  -7  181.02   16.48
   0 -10  -7  171.76    9.13
   0 -10   7  177.44    9.22
   0 -10   7  177.56    9.34
   0  10  -7  172.28   24.11
   0  10  -7  173.43   15.98
   0  10  -7  182.82    9.28
   0  10   7  176.49    9.42
   0  10  -7  164.50    8.85
   0  10   7  174.90    9.52
  -2 -10  -7   61.44    6.47
  -2 -10  -7   60.01    9.96
   2 -10   7   68.34    5.58
  -2 -10  -7   47.23    9.11
  -2  10  -7   53.57    9.91
  -2  10  -7   68.13   11.02
  -4 -10  -7    7.19    6.57
  -6 -10  -7   42.39    9.52
  -8 -10  -7   -6.97    8.80
  -7 -11   7   26.21    9.98
   7 -11  -7   29.90    8.05
  -7 -11   7   29.57   16.35
   7  11  -7   30.63    6.62
  -7  11   7   40.92   13.02
  -5 -11   7   15.04   24.18
  -5 -11   7   24.66   13.32
   5 -11  -7   33.79    6.65
   5  11  -7   25.31    5.93
  -5  11   7   21.68    9.99
  -5  11   7   45.45   11.47
  -3 -11   7  114.52    8.88
  -3 -11   7  129.31    8.76
   3 -11  -7  123.56    8.65
   3 -11  -7  120.58    8.35
  -3 -11   7  125.56   16.98
   3 -11  -7  123.04    8.04
  -3 -11   7  115.04   23.37
  -3 -11   7  114.86    7.66
  -3  11   7  124.64    7.69
  -3  11   7  110.77    8.39
  -3  11   7  117.59    8.54
  -3  11   7  134.11   14.85
   3  11  -7  129.39    8.75
  -3  11   7  125.22   16.06
   1 -11  -7    0.97    7.30
   1 -11  -7   11.49    4.23
  -1 -11   7    6.95    7.07
  -1 -11   7   11.39    4.15
  -1 -11   7    5.27    3.82
   1 -11  -7    7.53    4.00
  -1  11   7    8.82    4.62
  -1  11   7    3.63    6.45
   1  11  -7    8.12    4.24
  -1  11   7    4.26    4.12
  -1 -11  -7   37.45    4.93
   1 -11   7   38.87    5.09
  -1 -11  -7   29.27    8.28
  -1 -11  -7   36.93    4.42
   1 -11   7   44.62    4.80
  -1 -11  -7   27.65    8.75
  -1  11  -7   31.51    8.70
   1  11   7   32.24    4.88
  -1  11  -7   15.09   11.30
  -1  11  -7   29.35    4.00
  -1  11  -7   41.08    4.49
  -3 -11  -7    6.00    9.89
  -3 -11  -7    4.73    5.71
  -3 -11  -7    6.67    9.63
  -3  11  -7    5.24    8.67
  -3  11  -7    8.85    9.73
  -5 -11  -7  103.79   11.50
  -7 -11  -7   28.27   11.40
   8 -12  -7   25.57    9.24
  -8 -12   7   10.95   16.63
  -8 -12   7   33.06   11.56
  -8  12   7   34.81   13.38
   8  12  -7   15.43    6.82
   6 -12  -7    3.00    6.12
  -6 -12   7    1.95   14.01
  -6 -12   7   10.69    8.34
  -6  12   7   19.95   11.44
   6  12  -7    0.09    5.48
   4 -12  -7   13.15    5.64
  -4 -12   7    5.19   10.14
  -4 -12   7  -42.72   22.93
  -4 -12   7   14.53    4.22
  -4 -12   7   10.60    5.14
   4 -12  -7   11.07    5.28
   4  12  -7   10.57    5.20
  -4  12   7   10.27    8.34
  -4  12   7   15.08    4.94
  -4  12   7   16.27    5.11
  -4  12   7   12.77    4.07
  -4  12   7   -2.03    9.37
   2 -12  -7  325.29   15.82
   2 -12  -7  342.45   15.51
   2 -12  -7  357.56   16.11
  -2 -12   7  373.73   24.48
  -2 -12   7  352.39   16.31
  -2 -12   7  352.11   16.26
  -2  12   7  355.38   23.92
  -2  12   7  341.18   16.21
   2  12  -7  334.48   16.10
  -2  12   7  347.44   16.02
   0 -12   7    6.65    4.00
   0 -12  -7   13.41    7.72
   0 -12  -7    2.80    8.05
   0 -12   7   10.27    3.92
   0 -12  -7    0.85    4.11
   0 -12  -7    4.33    4.10
   0  12  -7    5.87    7.51
   0  12  -7    9.15    3.61
   0  12   7   10.26    4.79
   0  12  -7    4.18    3.99
   0  12   7   10.97    4.28
   0  12  -7  -10.81   13.22
   2 -12   7   55.34    5.85
  -2 -12  -7   44.36   10.38
  -2 -12  -7   45.59   11.29
  -2 -12  -7   65.03    6.78
  -2  12  -7   55.01   12.23
  -2  12  -7   44.99   10.30
   2  12   7   48.57    5.76
  -4 -12  -7  136.54   12.71
  -4  12  -7  125.74   20.04
  -4  12  -7  132.50   19.40
  -6 -12  -7  114.47   12.72
  -8 -12  -7   12.11   10.53
   7 -13  -7    9.95    7.70
  -7 -13   7   -0.77   16.95
  -7 -13   7   -2.26    9.18
   7  13  -7    8.35    6.15
  -7  13   7   25.66   13.04
   5 -13  -7   84.42    8.37
  -5 -13   7   74.21   15.72
  -5  13   7   83.64   14.72
  -5  13   7   85.77    6.70
   5  13  -7   73.03    7.88
   3 -13  -7  155.19   10.27
  -3 -13   7  123.73   22.37
  -3 -13   7  151.43   10.51
   3 -13  -7  160.77    9.84
  -3 -13   7  151.41   19.45
  -3 -13   7  156.05   10.78
   3 -13  -7  159.84   10.18
  -3  13   7  153.83   10.24
   3  13  -7  155.30   10.30
  -3  13   7  177.36    9.21
  -3  13   7  163.57   19.00
  -3  13   7  167.19   17.23
  -3  13   7  138.95    9.90
  -1 -13   7   46.66    5.91
   1 -13  -7   56.28    5.83
  -1 -13   7   56.18    5.79
  -1 -13   7   42.02    9.84
   1 -13  -7   47.71   10.52
   1 -13  -7   64.28    6.10
   1  13  -7   54.77    6.00
  -1  13   7   39.36   11.09
  -1  13   7   56.73    6.25
   1  13  -7    5.84   19.51
  -1  13   7   67.07    6.11
   1 -13   7   59.31    6.26
  -1 -13  -7   65.11   11.92
  -1 -13  -7   63.28    5.83
  -1 -13  -7   44.18   10.62
  -1 -13  -7   61.48    6.29
  -1 -13  -7   69.54    6.00
   1 -13   7   62.48    5.92
  -1  13  -7   53.34   10.85
   1  13   7   59.86    6.37
  -1  13  -7   58.11    5.31
  -1  13  -7   55.82   14.92
  -1  13  -7   63.93    5.72
  -3 -13  -7  327.71   27.53
  -3 -13  -7  349.67   19.38
  -3 -13  -7  360.85   27.91
   3 -13   7  388.47   17.27
  -3  13  -7  375.68   26.44
  -3  13  -7  346.82   28.23
  -5 -13  -7   12.68    8.46
  -5  13  -7   10.81   13.11
  -7 -13  -7   82.30   16.78
  -8 -14   7   17.27   10.87
   8 -14  -7    2.51    8.19
  -8 -14   7    6.06   17.91
   8  14  -7    5.03    7.07
  -8  14   7   24.77   14.27
   6 -14  -7   68.32    8.25
  -6 -14   7   31.99    9.62
  -6 -14   7   28.61   15.94
  -6  14   7   49.01   14.29
   6  14  -7   37.09    7.06
   4 -14  -7   58.85    6.65
  -4 -14   7   52.26   13.94
  -4 -14   7   43.91    5.76
  -4 -14   7   56.78    7.49
   4 -14  -7   59.71    7.65
  -4  14   7   65.91    6.18
  -4  14   7   56.28    6.67
   4  14  -7   53.59    7.14
  -4  14   7   49.47    6.76
  -4  14   7   59.61   13.33
   2 -14  -7   15.46    5.11
  -2 -14   7   17.74    5.56
  -2 -14   7   11.77    8.72
  -2 -14   7   16.95    5.10
   2 -14  -7   18.22    4.90
   2 -14  -7    4.84    5.00
   2  14  -7   24.85    5.78
  -2  14   7   10.27    8.78
  -2  14   7   13.71    4.90
  -2  14   7   13.58    5.55
   0 -14  -7  124.42    8.30
   0 -14   7  133.01    9.01
   0 -14  -7  113.21    8.81
   0 -14  -7  126.25   16.83
   0 -14   7  115.20    8.60
   0 -14  -7  121.11   17.44
   0  14   7  104.80    9.24
   0  14   7  102.04    9.00
   0  14  -7  120.45    7.89
   0  14  -7   94.95   20.28
   0  14  -7  126.73    8.88
  -2 -14  -7   26.85   11.63
  -2 -14  -7   43.82    7.18
   2 -14   7   42.03    6.29
  -2 -14  -7   36.89   12.07
  -2  14  -7   34.70   14.41
  -2  14  -7   46.47    5.19
  -2  14  -7   31.75   10.42
  -2  14  -7   42.19    5.48
   2  14   7   39.26    6.26
  -4 -14  -7   38.80    8.71
  -4 -14  -7   34.14   15.29
  -4 -14  -7   15.30   13.73
  -4  14  -7   24.99   13.76
  -4  14  -7   36.82   12.29
  -6 -14  -7   79.80   13.09
  -6  14  -7   79.07   16.75
  -6  14  -7   87.78   18.99
   7 -15  -7   58.10   10.06
  -7 -15   7   52.85   10.51
  -7 -15   7   27.02   18.14
   7  15  -7   30.02    7.84
  -7  15   7   40.14   14.86
  -5 -15   7   54.08   16.01
   5 -15  -7   60.22    7.91
  -5  15   7   55.48    6.91
  -5  15   7   44.11   13.34
   5  15  -7   49.94    7.38
  -5  15   7   48.18    6.04
   3 -15  -7   15.22    6.18
  -3 -15   7   14.21    6.04
  -3 -15   7   18.34   11.05
   3 -15  -7    9.38    5.64
  -3 -15   7   22.10    6.41
   3 -15  -7   11.66    5.49
  -3  15   7   19.41    5.82
  -3  15   7   15.97    5.80
   3  15  -7   24.15    6.22
  -3  15   7    8.99    9.88
  -3  15   7   13.66    4.39
  -1 -15   7   74.65    7.44
  -1 -15   7   69.85   12.26
   1 -15  -7   97.27    7.91
   1 -15  -7   77.86    7.20
   1 -15  -7   79.50    6.77
   1 -15  -7   70.38   12.89
  -1 -15   7   71.52    7.38
  -1  15   7   82.73    7.53
   1  15  -7   99.35    7.91
  -1  15   7   98.71    8.19
  -1 -15  -7  153.39   10.35
   1 -15   7  163.93   10.43
  -1 -15  -7  160.39   21.18
  -1 -15  -7  146.14   19.42
  -1 -15  -7  144.07   10.02
   1 -15   7  170.51   10.48
  -1  15  -7  146.38    9.90
   1  15   7  136.43   10.44
  -1  15  -7  197.25   29.30
  -1  15  -7  166.01    9.61
  -1  15  -7  152.34   19.10
  -3 -15  -7  177.51   13.90
  -3 -15  -7  174.53   25.29
   3 -15   7  218.31   12.43
  -3 -15  -7  182.37   24.30
   3  15   7  183.10   12.40
  -3  15  -7  162.15   26.18
  -3  15  -7  194.47   22.52
  -5 -15  -7  194.26   16.35
  -5 -15  -7  225.23   29.93
  -5  15  -7  190.15   25.21
  -5  15  -7  164.91   28.92
  -6 -16   7   16.77   15.76
   6 -16  -7   23.41    8.19
  -6 -16   7   12.19    9.88
  -6  16   7   27.91   13.27
   6  16  -7   15.22    6.78
  -4 -16   7   -2.73    6.22
  -4 -16   7   -3.49   10.87
   4 -16  -7   11.17    6.04
   4 -16  -7    3.20    6.11
  -4 -16   7    8.52    6.09
  -4 -16   7    8.55    4.31
  -4  16   7    2.92   10.77
  -4  16   7   10.57    6.28
  -4  16   7    9.53    5.66
   4  16  -7   -0.78    6.11
   2 -16  -7  243.92   12.99
  -2 -16   7  231.30   14.15
   2 -16  -7  264.42   14.31
  -2 -16   7  248.65   23.12
  -2 -16   7  220.80   14.12
   2 -16  -7  247.77   13.18
  -2  16   7  239.49   13.94
  -2  16   7  240.30   13.96
  -2  16   7  211.73   24.12
   2  16  -7  224.89   13.99
   0 -16   7   35.53    6.29
   0 -16  -7   34.19    6.30
   0 -16  -7   36.69   11.91
   0 -16  -7   40.60    6.27
   0 -16   7   27.84    5.97
   0  16   7   25.71    6.08
   0  16   7   41.82    7.69
   0  16  -7   30.36    5.01
   0  16  -7   38.12    6.27
   0  16  -7   32.29   22.49
  -2 -16  -7   51.80   14.05
   2 -16   7   55.37    7.28
  -2 -16  -7   52.64    8.17
  -2 -16  -7   34.46   13.22
  -2  16  -7   38.51   17.76
   2  16   7   43.67    7.65
  -2  16  -7   60.86    6.69
  -2  16  -7   59.06    6.17
  -2  16  -7   48.59   12.62
  -4 -16  -7   49.69   17.25
   4 -16   7   74.80    8.66
  -4 -16  -7   63.39   18.32
  -4 -16  -7   67.08   10.16
  -4  16  -7   46.28   14.43
  -4  16  -7   30.10   16.13
   4  16   7   54.56    9.23
  -6 -16  -7   43.26   12.98
  -6 -16  -7   26.81   17.76
  -6  16  -7   10.66   16.78
  -7 -17   7   17.50   10.01
   7 -17  -7   22.18    9.63
  -7 -17   7   12.74   18.76
   7  17  -7   19.09    7.79
  -5 -17   7   80.00   19.12
  -5 -17   7   75.10   11.39
   5 -17  -7   73.32   10.43
  -5  17   7   79.36    8.34
   5  17  -7   78.60    9.07
   3 -17  -7  117.42    9.35
  -3 -17   7  124.19   10.83
  -3 -17   7  116.52   10.35
   3 -17  -7   95.48    9.45
  -3 -17   7   84.78   16.68
  -3  17   7  109.56    9.33
  -3  17   7  108.62    9.29
  -3  17   7   81.17   20.55
   3  17  -7  105.26    9.62
  -1 -17   7    2.86    5.97
   1 -17  -7    7.93   11.69
   1 -17  -7    2.24    5.66
   1 -17  -7   20.66    6.10
   1 -17  -7    5.60    5.22
  -1 -17   7   12.58    6.02
   1  17  -7   15.78    6.22
  -1  17   7    2.38    5.98
  -1  17   7   13.07    6.56
  -1 -17  -7  110.25   17.72
   1 -17   7  135.61   10.60
  -1 -17  -7  113.13    9.87
  -1 -17  -7  120.14   10.63
  -1  17  -7  143.23    9.44
   1  17   7  130.86   11.17
  -1  17  -7  124.04    9.82
  -1  17  -7   91.02   21.59
  -3 -17  -7   75.33   17.40
   3 -17   7   98.99    9.13
  -3 -17  -7   64.79   17.22
  -3 -17  -7   95.87   10.48
  -3  17  -7   72.14   18.75
   3  17   7   95.75    9.45
   5 -17   7   98.11   10.74
  -5 -17  -7   64.02   23.03
  -5 -17  -7   79.09   13.85
  -5 -17  -7   94.44   21.93
  -5  17  -7   57.10   19.69
  -7 -17  -7   24.52   10.92
   6 -18  -7   35.63    8.39
  -6 -18   7   23.29   10.85
   6  18  -7   33.31    8.52
  -4 -18   7  103.83   10.50
  -4 -18   7   90.56   11.06
   4 -18  -7  110.77   10.42
  -4  18   7   92.58    9.40
   4  18  -7   74.57    9.71
  -4  18   7   99.70    9.25
  -2 -18   7  208.11   13.64
  -2 -18   7  195.46   13.16
   2 -18  -7  195.57   13.27
   2 -18  -7  230.17   13.66
   2 -18  -7  218.12   13.04
  -2 -18   7  193.19   12.29
  -2  18   7  212.31   13.77
  -2  18   7  195.67   13.66
   2  18  -7  181.01   13.60
   0 -18  -7   38.80    7.64
   0 -18   7   34.61    6.28
   0 -18  -7   20.27   12.55
   0 -18   7   29.90    7.16
   0 -18  -7   33.32    7.52
   0  18  -7   39.94    6.73
   0  18   7   39.44    8.00
   0  18   7   30.38    7.34
   0  18  -7  -22.46   25.25
  -2 -18  -7   24.57   14.30
   2 -18   7   30.00    6.81
  -2 -18  -7   36.70    7.72
  -2 -18  -7   46.50    7.56
  -2  18  -7   36.95    5.99
   2  18   7   35.32    8.05
  -2  18  -7   28.70    5.89
  -2  18  -7   28.58    6.21
  -2  18  -7    8.52   19.51
  -4 -18  -7   16.81    8.89
  -4 -18  -7   12.95   17.32
   4 -18   7   19.07    7.30
   4  18   7   13.54    8.40
  -4  18  -7   -5.70   17.28
  -6 -18  -7   20.21   12.79
  -6 -18  -7   35.39   21.10
  -6  18  -7   -3.72   18.16
   7 -19  -7   27.88   11.17
  -7 -19   7   29.92   13.18
   7  19  -7   36.00    9.21
   5 -19  -7   29.45    8.01
  -5 -19   7   16.20    9.16
   5  19  -7   13.76    8.03
  -5  19   7   31.47    7.26
   3 -19  -7  124.94   11.01
  -3 -19   7  127.27   11.76
   3 -19  -7  120.98   10.13
  -3 -19   7  118.02   11.21
  -3  19   7  108.94   10.92
  -3  19   7  131.35   11.08
   3  19  -7  125.62   11.19
  -1 -19   7  146.61   11.62
   1 -19  -7  151.23   11.78
   1 -19  -7  169.92   11.39
  -1 -19   7  145.63   12.04
   1 -19  -7  151.07   12.43
  -1  19   7  165.12   12.93
   1  19  -7  147.85   11.93
  -1  19   7  149.43   11.74
   1 -19   7   19.36    6.95
  -1 -19  -7   44.29    8.38
  -1 -19  -7   32.74    7.08
  -1 -19  -7   24.11   14.23
  -1  19  -7  -28.38   24.62
   1  19   7   35.58    9.22
  -1  19  -7   22.80    6.21
   3 -19   7  151.61   12.19
  -3 -19  -7  143.15   13.45
  -3 -19  -7  177.63   31.49
  -3  19  -7  104.99   22.77
   3  19   7  134.78   12.43
  -5 -19  -7   20.26   10.76
   5 -19   7   26.14    8.64
  -5 -19  -7    5.89   18.33
  -5  19  -7   -2.87   19.04
   6 -20  -7   19.05    8.46
  -6 -20   7   15.36   11.87
   6  20  -7   13.76    8.32
  -4 -20   7   42.66    9.68
   4 -20  -7   34.81    8.75
  -4  20   7   29.99    7.96
  -4  20   7   43.91    8.52
   4  20  -7   26.45    8.80
  -2 -20   7  114.64   12.51
   2 -20  -7  147.35   11.64
   2 -20  -7  128.38   11.50
  -2 -20   7  125.07   11.34
  -2 -20   7  106.54    9.94
  -2  20   7  128.62   10.77
   2  20  -7  133.49   12.19
  -2  20   7  138.46   11.87
   0 -20  -7   73.96    9.03
   0 -20   7   39.56    8.04
   0 -20  -7   41.02    8.73
   0  20  -7   39.35    7.39
   0  20   7   87.00   10.19
   2 -20   7   28.55    8.06
  -2 -20  -7   44.00   17.54
  -2 -20  -7   45.78    9.20
   2  20   7   55.51    9.29
  -2  20  -7   35.66    7.37
  -2  20  -7   48.70    7.02
  -4 -20  -7   15.72   11.92
   4 -20   7   11.29    7.03
  -4 -20  -7    4.21   18.64
   4  20   7   20.93    8.46
  -4  20  -7  -25.36   18.27
   6 -20   7    2.33    8.25
  -6 -20  -7    6.10   12.23
  -6 -20  -7   11.55   20.83
   6 -20   7   21.45    9.37
  -6  20  -7  -24.16   19.55
   5 -21  -7   65.68   10.22
  -5 -21   7   41.23   12.19
   5  21  -7   44.12    9.99
  -5  21   7   51.04    8.67
   3 -21  -7   26.78    7.94
  -3 -21   7   29.80    9.05
   3 -21  -7   27.70    9.77
  -3 -21   7   16.20    8.73
  -3  21   7   21.72    7.80
   3  21  -7   23.95    8.30
  -3  21   7   28.63    8.15
   1 -21  -7  131.69   10.78
   1 -21  -7  116.62   11.06
  -1 -21   7  107.06   11.56
   1 -21  -7  131.97   12.72
  -1 -21   7   98.97   11.63
  -1 -21   7  101.35    9.63
  -1  21   7  121.99   11.83
   1  21  -7  121.77   10.45
  -1 -21  -7   55.56   10.76
  -1 -21  -7   60.31    9.03
   1 -21   7   38.61    8.09
  -1  21  -7   45.27    7.46
   1  21   7   54.29   10.53
  -3 -21  -7   53.13   11.38
   3 -21   7   44.09    8.60
  -3 -21  -7   49.43   19.49
  -3  21  -7   50.64    7.73
   3  21   7   39.70    9.12
   5 -21   7   14.58    9.08
  -5 -21  -7   11.98   21.02
  -5 -21  -7   14.36   10.74
   5  21   7   23.92    9.77
   4 -22  -7   21.05    8.41
  -4 -22   7   21.65   10.04
   4  22  -7   23.23    9.00
  -4  22   7   11.27    7.80
  -2 -22   7   34.76    8.84
   2 -22  -7   36.31    8.53
  -2 -22   7   31.16    7.14
  -2 -22   7   43.15    9.41
   2 -22  -7   47.85    8.79
  -2  22   7   35.67    8.72
  -2  22   7   32.21    9.75
   2  22  -7   42.46    8.86
   0 -22   7   19.18    9.05
   0 -22  -7   40.97    9.56
   0  22   7   50.05   10.19
   2 -22   7    3.11    7.06
  -2 -22  -7   12.99    9.58
  -2  22  -7   12.03    7.00
   2  22   7   18.69    9.11
   4 -22   7   20.08    8.18
  -4 -22  -7   41.85   12.81
   4  22   7   52.64   11.06
  -5 -23   7   26.10   13.36
  -5 -23   7   21.44   11.48
  -5  23   7    9.89    8.24
   5  23  -7   18.69    9.79
   3 -23  -7   40.69    9.10
  -3 -23   7   38.96   10.58
   3 -23  -7   39.18    8.36
  -3 -23   7   24.32    9.02
   3  23  -7   33.75    9.55
  -3  23   7   33.97    9.13
  -3  23   7   37.73    9.08
   1 -23  -7   14.57    9.57
  -1 -23   7   17.77    7.34
   1 -23  -7   12.71    8.18
  -1 -23   7   26.08    8.70
  -1  23   7   18.95    9.18
   1  23  -7   22.18    8.10
   1 -23   7   53.31    9.15
  -1 -23  -7   56.78   10.70
  -1 -23  -7   48.65   12.76
   1 -23   7   48.13    9.14
   1  23   7   57.89   10.65
  -1  23  -7   41.78    8.30
  -1  23  -7   35.55    8.59
   3 -23   7    3.37    7.91
  -3 -23  -7   13.19    9.77
  -3  23  -7   15.80    7.36
   3  23   7   12.30    9.52
   4 -24  -7   -0.64    9.85
  -4 -24   7   13.56   10.99
  -4 -24   7   16.14   11.30
  -4  24   7    1.54    8.77
   4  24  -7    9.57    9.83
  -2 -24   7   46.38    8.49
   2 -24  -7   44.23    8.14
  -2 -24   7   47.33   10.41
   2 -24  -7   46.77   10.20
  -2 -24   7   41.82   11.53
   2  24  -7   26.53    9.40
  -2  24   7   52.16   10.49
   0 -24   7   40.89    9.06
   0 -24   7   45.04   10.29
   0 -24  -7   35.33   10.77
   0 -24  -7   39.89    9.01
   0  24   7   49.59   11.60
   0  24  -7   44.47    8.64
   2 -24   7   89.91   13.38
  -2 -24  -7  121.30   13.93
   2  24   7   93.32   14.54
  -2  24  -7   91.29   10.60
   4 -24   7   18.97   10.99
   4  24   7   26.98    9.88
   3 -25  -7   38.43    8.55
   3 -25  -7   26.14    9.83
  -3  25   7   16.18    9.81
  -3  25   7   28.91    9.43
   3  25  -7   28.56   10.12
   1 -25  -7   20.49    8.50
  -1 -25   7   22.10    8.83
   1  25  -7    1.51    8.65
  -1  25   7   12.88   10.11
   1 -25   7   29.65    9.67
  -1  25  -7   15.53    8.03
   1  25   7   18.05   12.14
  -1  25  -7    8.52    8.54
   3 -25   7   17.93    9.15
   3  25   7   15.16   10.81
  -3  25  -7   22.33    8.83
  -2 -26   7   33.28   10.42
  -2 -26   7   17.59    9.46
   2 -26  -7   20.85    9.97
  -2  26   7   26.87   10.69
   2  26  -7   -4.83    8.94
   0 -26   7   11.64    9.37
   0 -26   7    1.58    7.89
   0 -26  -7   21.32   12.53
   0 -26  -7   15.21   10.20
   0  26   7    0.02   11.17
   0  26  -7   -2.38    7.64
   2 -26   7   30.61    9.79
  -2  26  -7   34.44    9.47
   2  26   7   22.06   11.84
  -1 -27   7   16.37    8.61
  -1 -27   7    6.61   10.48
   1  27  -7   17.70    9.46
  -1  27   7   12.88   10.91
   1 -27   7    3.04    9.01
   1  27   7    7.84   12.23
  -1  27  -7   -1.90    9.22
  -8   0   8   15.90    9.34
  -8   0   8  -25.35   14.89
  -6   0   8  159.31   11.65
  -6   0   8  146.17   19.93
  -4   0   8  162.28   31.58
  -4   0   8  258.82   11.05
  -4   0   8  220.26   23.04
  -4   0   8  258.86   11.38
   4   0  -8  260.91   11.84
  -2   0   8   22.60    3.89
   2   0  -8   18.72    3.56
  -2   0   8   10.53    2.96
  -2   0   8   18.27    3.53
   2   0  -8   18.34    3.67
  -2   0   8   18.33   17.62
  -2   0   8   16.59    8.17
   0   0  -8  311.28   22.61
   0   0  -8  349.71   18.61
   0   0  -8  338.78   13.96
   0   0   8  343.45   14.19
  -2   0  -8  554.28   23.54
  -4   0  -8  211.34   12.44
  -6   0  -8   32.68    8.16
  -8   0  -8  143.02   15.92
  -9  -1   8    0.98   15.92
  -9  -1   8   50.84   11.81
  -9   1   8    3.36   16.18
  -9   1   8   39.05   10.16
  -7  -1   8   32.04   18.10
  -7  -1   8  120.63   11.42
  -7   1   8   65.18   16.70
  -7   1   8  118.69   11.11
  -5  -1   8  457.84   30.72
   5  -1  -8  354.90   17.21
  -5  -1   8  287.88   49.42
   5   1  -8  362.90   17.21
  -5   1   8  388.94   29.40
  -5   1   8  394.58   18.01
   1  -1  -8  548.94   22.83
  -1  -1   8  552.08   21.93
   1  -1  -8  568.49   26.71
  -1  -1   8  533.25   26.63
   1  -1  -8  528.26   21.85
  -1  -1   8  543.56   21.99
   1  -1  -8  525.24   21.84
  -1   1   8  507.26   25.34
  -1   1   8  540.53   21.98
   1   1  -8  561.19   21.94
   1   1  -8  545.56   21.94
  -1   1   8  543.94   21.93
   1   1  -8  529.83   26.48
  -3  -1  -8  105.38    8.30
  -3   1  -8   96.78    8.21
  -5  -1  -8    4.57    6.21
  -5   1  -8    9.29    6.36
  -7  -1  -8   27.95    9.64
  -7   1  -8   23.00    8.95
  -8  -2   8  100.75   12.20
  -8   2   8   88.92   11.30
   6  -2  -8  131.21    9.60
  -6  -2   8  112.86   18.01
  -6  -2   8  132.11   11.20
  -6   2   8  113.04   17.11
   6   2  -8  129.54    9.46
  -6   2   8  138.71   11.11
  -2  -2   8  143.32    7.66
  -2  -2   8  186.49   19.42
  -2  -2   8  139.13    7.39
   2  -2  -8  136.45    7.79
  -2  -2   8  134.09    7.45
   2  -2  -8  138.59    7.68
  -2  -2   8  121.14   14.47
  -2   2   8  139.21    7.75
  -2   2   8  136.21    7.32
  -2   2   8  145.92    7.65
   2   2  -8  136.16    7.73
  -2   2   8  145.69   13.26
   2   2  -8  138.14    7.97
   0  -2  -8   12.82    6.04
   0  -2   8   11.67    3.47
   0  -2  -8    8.08    2.54
   0  -2  -8    9.13    3.14
   0   2  -8   11.85    6.69
   0   2   8   10.05    3.28
   0   2  -8   12.28    2.80
   0   2  -8   14.78    8.18
   0   2  -8   14.41    3.24
  -2  -2  -8  219.78   11.54
  -4  -2  -8  113.98    9.49
  -4   2  -8  122.68    9.50
  -6  -2  -8  112.19   11.73
  -6   2  -8  104.45   10.81
  -8  -2  -8   23.07    9.33
  -8   2  -8   17.04    9.52
  -9  -3   8   41.44   11.39
  -9   3   8   28.23   10.34
  -9   3   8    5.10   15.57
   5  -3  -8  106.59    8.11
  -5  -3   8  142.16   28.63
   5   3  -8  116.88    8.21
  -5   3   8   92.98   15.30
  -5   3   8  104.73    8.62
   3  -3  -8  626.89   25.94
  -3  -3   8  636.91   25.70
   3  -3  -8  639.61   26.02
  -3  -3   8  644.20   25.85
  -3  -3   8  645.10   25.88
  -3  -3   8  684.77   31.90
  -3   3   8  652.21   25.70
  -3   3   8  635.89   25.87
  -3   3   8  618.01   25.76
   3   3  -8  581.51   26.02
   3   3  -8  635.91   26.02
   1  -3  -8  386.85   20.52
  -1  -3   8  415.02   21.57
   1  -3  -8  379.04   16.35
   1  -3  -8  364.41   27.14
  -1  -3   8  387.61   16.33
  -1  -3   8  397.08   16.44
   1  -3  -8  405.91   18.08
   1  -3  -8  401.04   16.38
   1  -3  -8  388.16   21.89
  -1   3   8  390.55   16.45
   1   3  -8  405.23   21.16
   1   3  -8  408.49   16.39
  -1   3   8  383.52   16.31
  -1   3   8  351.96   20.67
  -1  -3  -8  564.09   23.54
  -3  -3  -8    8.59    4.85
  -5  -3  -8   97.88    9.63
  -5   3  -8   93.85    9.83
  -7  -3  -8   43.67    9.74
  -7   3  -8   45.61    9.76
  -8  -4   8    7.17    8.73
  -8   4   8   -2.75   14.28
  -8   4   8    5.01    7.26
  -4  -4   8   82.24    6.54
  -4  -4   8   81.92   14.70
  -4  -4   8   80.74    5.70
   4  -4  -8   79.05    6.62
  -4  -4   8   44.08   19.66
  -4   4   8   79.58    5.67
  -4   4   8   76.44    5.63
  -4   4   8   73.35   11.52
   4   4  -8   84.79    6.71
  -2  -4   8  486.40   19.73
  -2  -4   8  444.80   24.83
   2  -4  -8  464.38   19.81
  -2  -4   8  465.84   19.76
  -2  -4   8  466.09   19.71
   2  -4  -8  446.94   19.75
  -2   4   8  465.28   19.73
  -2   4   8  491.26   20.01
  -2   4   8  569.35   26.62
  -2   4   8  464.78   19.80
   2   4  -8  482.57   19.83
   0  -4  -8  145.35    7.18
   0  -4   8  149.01    7.45
   0  -4  -8  144.19   12.21
   0  -4  -8  112.92   13.30
   0  -4  -8  136.00    7.02
   0  -4  -8  141.78    7.22
   0  -4  -8  117.44   17.67
   0   4  -8  150.49   13.02
   0   4  -8  143.02    7.21
   0   4  -8  146.81    7.20
   0   4   8  139.93    7.47
  -2  -4  -8  189.71   10.53
  -4  -4  -8   79.83    7.97
  -6  -4  -8   -0.95    7.36
  -6   4  -8   -0.74    6.80
  -8  -4  -8   11.21    9.02
  -8   4  -8   25.58   10.07
  -9  -5   8   49.35   12.38
  -9   5   8    2.49   15.93
  -5  -5   8  451.94   29.04
   5  -5  -8  431.72   19.60
   5   5  -8  407.52   19.12
  -5   5   8  434.34   29.06
  -3  -5   8   65.15    4.76
  -3  -5   8   60.65    5.09
   3  -5  -8   50.85    5.18
   3  -5  -8   63.04    5.43
  -3  -5   8   46.43    8.90
  -3  -5   8   48.31   14.92
  -3  -5   8   57.09    4.89
  -3   5   8   57.40    4.95
  -3   5   8   64.21    5.22
  -3   5   8   58.12   10.19
   3   5  -8   59.96    5.32
  -3   5   8   70.05    5.18
  -3   5   8   38.90   10.33
   1  -5  -8  654.63   26.37
  -1  -5   8  641.56   30.54
  -1  -5   8  662.04   26.44
   1  -5  -8  672.64   26.34
   1  -5  -8  646.54   31.12
   1  -5  -8  665.94   30.92
  -1  -5   8  684.71   26.42
  -1   5   8  676.74   26.51
   1   5  -8  568.50   32.08
  -1   5   8  589.91   29.99
  -1   5   8  699.67   26.49
   1   5  -8  677.04   26.46
  -3  -5  -8  128.30    9.05
  -5  -5  -8  156.48   12.31
  -7  -5  -8   76.90   11.16
  -8  -6   8   15.97    9.40
  -8  -6   8    8.83   15.42
   8  -6  -8   36.77    7.95
  -8   6   8   12.25   14.99
   4  -6  -8   95.98    7.45
  -4  -6   8   99.90    6.42
  -4  -6   8  102.93   16.28
  -4  -6   8  101.96    7.32
  -4   6   8   93.16   12.53
  -4   6   8   98.47    6.45
  -4   6   8   87.49   13.26
  -4   6   8   79.79    6.86
   4   6  -8  104.24    7.37
  -4   6   8   77.93    6.62
  -2  -6   8  212.44   10.41
  -2  -6   8  205.19   10.26
  -2  -6   8  227.77   17.29
  -2  -6   8  214.12   10.24
   2  -6  -8  219.11   10.44
   2  -6  -8  222.54   10.48
   2   6  -8  217.54   10.55
  -2   6   8  218.44   10.32
  -2   6   8  195.93   15.54
  -2   6   8  214.73   10.54
   0  -6  -8   76.46    5.78
   0  -6   8   84.81    5.91
   0  -6  -8   88.05   11.65
   0  -6   8   91.41    5.92
   0  -6  -8   87.29    5.82
   0   6   8   77.90    6.06
   0   6  -8   83.29    5.54
   0   6  -8   89.81    5.92
   0   6  -8   89.93   11.91
   0   6   8   63.27    6.25
  -2  -6  -8  130.29    8.63
  -4  -6  -8    3.44    5.84
  -6  -6  -8   21.63    8.86
  -8  -6  -8    1.52    8.83
  -9  -7   8   53.68   12.95
  -9  -7   8   -6.11   19.74
  -9   7   8    7.26   16.80
   5  -7  -8  136.51    9.79
  -5  -7   8  155.64   21.08
  -5  -7   8  104.55   23.06
   5   7  -8  147.55    9.81
  -5   7   8  164.76   22.60
  -5   7   8  171.65   17.35
  -3  -7   8  151.50    8.32
  -3  -7   8  136.50    7.89
  -3  -7   8  139.65   16.55
   3  -7  -8  144.39    8.41
  -3  -7   8  135.37    8.44
   3  -7  -8  142.96    8.54
  -3  -7   8  123.38   17.46
   3   7  -8  146.23    8.40
  -3   7   8  144.72    7.70
  -3   7   8  133.27    8.28
  -3   7   8  143.02   13.46
  -3   7   8  140.82    8.21
  -3   7   8  154.25   15.80
  -1  -7   8  311.31   13.30
   1  -7  -8  303.24   13.27
  -1  -7   8  293.86   13.21
   1  -7  -8  306.09   18.98
  -1  -7   8  335.55   19.91
   1  -7  -8  242.23   26.63
   1  -7  -8  292.42   13.23
  -1   7   8  305.99   13.26
   1   7  -8  310.66   13.36
  -1   7   8  234.54   19.46
  -1   7   8  300.23   13.38
  -1  -7  -8  214.92   15.41
   1  -7   8  218.92   10.36
  -1  -7  -8  227.08   11.11
  -1  -7  -8  211.92   15.87
   1   7   8  217.34   10.28
  -1   7  -8  226.37   16.28
  -1   7  -8  215.50    9.86
  -3  -7  -8    3.06    5.03
  -5  -7  -8   32.19    8.15
  -7  -7  -8   10.49    8.53
   8  -8  -8   10.59    7.60
  -8  -8   8    9.57   15.40
  -8  -8   8   13.54    9.12
  -8   8   8   -0.72   14.87
   6  -8  -8  115.76    9.61
  -6  -8   8  109.95   10.64
  -6  -8   8   98.84   17.71
   6   8  -8   97.69    9.13
  -6   8   8  108.79   17.83
  -6   8   8  101.61   17.17
   4  -8  -8   14.58    4.85
  -4  -8   8   19.03    3.97
  -4  -8   8    8.79    9.79
  -4  -8   8   -5.77   19.49
  -4  -8   8    9.29    4.54
  -4   8   8   10.82    4.38
  -4   8   8   10.32    7.36
  -4   8   8   10.63    3.51
  -4   8   8   15.27    4.47
   4   8  -8   12.06    4.36
   2  -8  -8  246.40   12.22
  -2  -8   8  242.94   12.17
  -2  -8   8  265.99   12.29
  -2  -8   8  314.49   29.13
  -2  -8   8  268.49   19.40
   2  -8  -8  250.63   12.21
  -2   8   8  261.50   12.31
  -2   8   8  254.05   18.26
  -2   8   8  253.35   12.10
   2   8  -8  255.73   12.24
  -2  -8  -8  102.71    7.96
  -2  -8  -8   95.78   12.52
  -2   8  -8  102.80   13.23
  -2   8  -8   89.93   13.87
  -4  -8  -8   13.33    6.38
  -6  -8  -8    7.44    7.95
  -8  -8  -8   -5.17   11.60
  -9  -9   8   11.52    9.73
  -7  -9   8   33.76    9.59
   7  -9  -8   36.90    8.01
  -7  -9   8   37.79   15.31
  -7   9   8   37.58   14.04
   7   9  -8   32.24    6.31
  -5  -9   8   57.37   14.33
   5  -9  -8   91.81    7.74
  -5  -9   8   71.46   24.70
  -5   9   8   78.38   13.32
  -5   9   8   62.36   11.63
   5   9  -8   70.00    6.84
  -3  -9   8   57.63    5.59
   3  -9  -8   66.83    5.97
  -3  -9   8   59.60    5.09
   3  -9  -8   65.09    5.74
  -3  -9   8   65.94    5.90
  -3  -9   8   28.45   18.29
  -3  -9   8   49.17   10.34
  -3   9   8   58.89    5.59
  -3   9   8   66.23    5.83
  -3   9   8   56.51    9.38
  -3   9   8   47.45    9.31
  -3   9   8   59.95    4.99
   3   9  -8   70.91    6.14
  -1  -9   8   28.67    4.63
   1  -9  -8   24.05    4.35
  -1  -9   8   32.62    4.33
   1  -9  -8   29.35    8.17
  -1  -9   8   28.09    7.90
   1  -9  -8   36.74    4.68
  -1   9   8   33.74    4.88
  -1   9   8   28.00    4.03
   1   9  -8   36.04    4.61
  -1  -9  -8    8.77    6.54
   1  -9   8    3.77    3.80
  -1  -9  -8    9.68    7.48
  -1  -9  -8   10.97    4.19
  -1   9  -8    3.82    7.15
   1   9   8    1.78    3.79
  -1   9  -8   12.82    3.16
  -1   9  -8    0.53    9.60
  -3  -9  -8   45.43    6.89
  -3   9  -8   42.36    9.57
  -5  -9  -8   10.48    7.73
  -7  -9  -8   73.86   11.51
  -8 -10   8   32.68   17.60
   8 -10  -8   45.59    8.90
  -8 -10   8   70.85   11.35
  -8  10   8   68.41   14.36
  -6 -10   8  -30.91   24.91
  -6 -10   8   21.74   14.32
   6 -10  -8   23.08    6.77
  -6 -10   8   14.07    7.75
  -6  10   8   43.37   12.90
   6  10  -8   21.23    6.12
   4 -10  -8   67.66    6.81
  -4 -10   8   53.32   12.23
  -4 -10   8   66.64   22.45
  -4 -10   8   67.18    6.49
   4 -10  -8   59.72    6.39
  -4 -10   8   56.02    5.46
  -4  10   8   61.72    5.50
   4  10  -8   65.21    6.63
  -4  10   8   76.17    6.38
  -4  10   8   62.95    6.26
  -4  10   8   53.67   11.58
  -4  10   8   52.92   10.43
   2 -10  -8  181.73    9.77
   2 -10  -8  186.35    9.87
  -2 -10   8  174.03    9.82
  -2 -10   8  178.73    9.84
  -2 -10   8  164.67   17.42
  -2  10   8  177.18    9.90
  -2  10   8  177.28   15.65
   2  10  -8  183.92    9.97
  -2  10   8  183.12    9.94
   0 -10   8  387.70   16.51
   0 -10   8  376.96   16.57
   0 -10  -8  355.28   16.23
   0 -10  -8  394.03   22.85
   0 -10  -8  361.13   16.33
   0 -10  -8  408.22   23.47
   0  10  -8  342.76   28.38
   0  10  -8  379.77   16.42
   0  10   8  369.78   16.74
   0  10  -8  378.67   23.06
   0  10  -8  357.39   16.02
  -2 -10  -8    7.40    4.99
   2 -10   8    5.84    4.12
  -2 -10  -8    6.14    8.04
  -2 -10  -8    4.74    7.87
  -2  10  -8    5.87    7.95
  -2  10  -8   12.21    9.95
  -4 -10  -8   40.94    7.85
  -6 -10  -8   63.70   11.75
  -8 -10  -8   -1.31    9.57
  -7 -11   8    8.24    8.64
  -7 -11   8   28.80   16.55
   7 -11  -8   26.68    8.59
  -7  11   8   30.50   12.60
   7  11  -8   19.04    6.35
   5 -11  -8  144.55   10.22
  -5 -11   8   80.97   27.29
  -5 -11   8  121.82   22.30
  -5  11   8  169.39   19.72
  -5  11   8  129.83    9.23
   5  11  -8  134.74   10.04
  -5  11   8  137.62    8.72
  -5  11   8  137.53   18.48
   3 -11  -8   87.03    7.10
   3 -11  -8   99.10    7.56
  -3 -11   8   73.33   12.34
  -3 -11   8   95.04    8.03
  -3 -11   8   76.44   20.67
  -3 -11   8   86.69    6.97
  -3 -11   8   87.92    7.95
  -3  11   8   97.30   15.05
  -3  11   8   90.95    7.20
   3  11  -8   88.65    7.89
  -3  11   8  100.07    7.42
  -3  11   8   82.55    6.86
  -3  11   8   90.32   13.39
   1 -11  -8   33.20    4.83
   1 -11  -8   37.20    5.04
  -1 -11   8   25.08    8.35
   1 -11  -8   29.06    9.10
  -1 -11   8   31.01    4.91
  -1 -11   8   34.18    4.63
  -1  11   8   25.93    4.59
   1  11  -8   35.11    5.29
  -1  11   8   38.19    5.45
   1 -11   8  222.57   10.96
  -1 -11  -8  237.75   17.64
  -1 -11  -8  197.67   10.56
  -1 -11  -8  211.44   11.25
  -1 -11  -8  204.42   18.60
  -1  11  -8  221.15   10.72
   1  11   8  203.23   11.16
  -1  11  -8  221.55   18.44
  -1  11  -8  221.11   23.53
  -1  11  -8  212.86   10.41
  -3 -11  -8   43.39    7.46
  -3  11  -8   54.83   12.08
  -3  11  -8   53.78   11.05
  -5 -11  -8  130.63   13.14
  -7 -11  -8   20.16   11.50
  -8 -12   8   12.53   10.49
  -8 -12   8   11.24   17.71
   8 -12  -8   24.33    8.87
  -8  12   8   46.21   14.04
   8  12  -8    9.51    6.94
  -6 -12   8   21.63    7.93
  -6 -12   8   11.70   15.37
   6 -12  -8   20.78    7.17
   6  12  -8   10.89    5.91
  -6  12   8   16.78   12.26
   4 -12  -8   59.24    6.41
   4 -12  -8   63.13    7.22
  -4 -12   8   58.70    7.21
  -4 -12   8   53.43   13.31
  -4 -12   8   47.33    5.49
  -4  12   8   63.74    5.69
  -4  12   8   47.49   11.97
  -4  12   8   58.49   11.51
   4  12  -8   59.61    6.91
  -4  12   8   60.27    6.62
  -4  12   8   67.48    6.57
   2 -12  -8   86.72    6.90
  -2 -12   8   94.39   16.46
  -2 -12   8   94.43    7.74
  -2 -12   8   90.16    7.71
   2 -12  -8   83.49    7.49
  -2  12   8   86.87    7.77
   2  12  -8   90.44    7.83
  -2  12   8   90.57    7.27
  -2  12   8   84.65   14.91
   0 -12   8   40.90    4.92
   0 -12   8   37.64    5.10
   0 -12  -8   33.03    4.94
   0 -12  -8   31.89    9.37
   0 -12  -8   28.58    9.49
   0 -12  -8   34.62    5.03
   0  12  -8   30.76    4.37
   0  12   8   28.39    5.51
   0  12   8   17.27    4.70
   0  12  -8   25.90    4.68
   0  12  -8   25.66    9.04
   0  12  -8   16.86   15.71
   2 -12   8   55.81    5.86
  -2 -12  -8   46.91    6.82
  -2 -12  -8   31.54   10.39
  -2 -12  -8   41.26   10.77
  -2  12  -8   49.09   13.81
  -2  12  -8   40.71   10.23
   2  12   8   33.90    5.65
  -4 -12  -8   56.87    8.89
  -4  12  -8   39.29   12.63
  -4  12  -8   48.97   12.35
  -6 -12  -8   15.07    9.29
  -7 -13   8    6.36   16.95
  -7 -13   8    3.13    8.44
   7 -13  -8    2.73    7.65
  -7  13   8   23.22   13.09
   7  13  -8   -1.23    6.23
  -5 -13   8   16.93   14.11
   5 -13  -8   33.68    7.09
  -5  13   8   29.67    6.02
  -5  13   8   20.88   11.53
  -5  13   8   28.52    5.04
   5  13  -8   35.19    6.30
  -3 -13   8  105.47    9.39
  -3 -13   8  110.73   19.43
   3 -13  -8  104.46    7.87
   3 -13  -8   96.85    8.85
   3 -13  -8  102.96    9.09
  -3 -13   8  104.00    9.22
  -3  13   8  110.47   17.06
  -3  13   8   96.89    7.44
  -3  13   8   99.15    8.55
  -3  13   8  105.50    8.22
   3  13  -8  104.60    8.81
  -3  13   8  100.73   15.10
  -1 -13   8   53.68    6.15
   1 -13  -8   77.20    6.62
   1 -13  -8   54.31   11.36
   1 -13  -8   62.17    6.14
  -1 -13   8   62.65    6.13
  -1 -13   8   48.43   10.36
  -1  13   8   63.29    6.47
   1  13  -8   63.84    6.48
  -1  13   8   81.20    7.23
   1  13  -8   18.53   21.41
  -1 -13  -8  174.22   19.46
   1 -13   8  190.65   10.27
  -1 -13  -8  160.24    9.51
  -1 -13  -8  180.48   18.43
   1 -13   8  188.66   10.31
  -1 -13  -8  165.20    9.91
  -1  13  -8  168.48   26.38
   1  13   8  163.82   10.50
  -1  13  -8  182.19    9.60
  -1  13  -8  165.73   18.50
  -1  13  -8  171.15    9.97
  -3 -13  -8   31.91   12.26
   3 -13   8   29.56    5.95
  -3 -13  -8   43.20   13.11
  -3 -13  -8   35.39    7.06
  -3  13  -8   22.32   13.08
  -3  13  -8   28.83   10.78
  -5 -13  -8   26.12    9.07
  -7 -13  -8   14.23   13.30
  -8 -14   8   42.71   12.70
   8 -14  -8   60.94   10.59
  -8 -14   8   40.89   18.89
  -8  14   8   60.45   16.74
   8  14  -8   45.07    8.52
  -6 -14   8   17.15    8.93
  -6 -14   8   17.84   15.18
   6 -14  -8   17.91    7.61
   6  14  -8   28.99    6.79
  -6  14   8   35.75   13.41
  -4 -14   8   20.21    6.47
  -4 -14   8   16.50    4.81
   4 -14  -8   25.24    5.62
  -4 -14   8   14.40   12.21
  -4 -14   8   19.14    6.40
   4 -14  -8   13.77    5.92
   4  14  -8   16.57    5.83
  -4  14   8   11.59    5.81
  -4  14   8   21.76    5.78
  -4  14   8   18.87   10.40
  -4  14   8   16.33    4.61
  -2 -14   8  141.40   10.39
  -2 -14   8  130.80   10.38
  -2 -14   8  148.97   19.33
   2 -14  -8  162.55   10.14
   2 -14  -8  150.61   10.28
   2  14  -8  130.12   10.20
  -2  14   8  145.47   10.19
  -2  14   8  157.52   10.14
  -2  14   8  127.32   17.94
   0 -14  -8    4.55    4.82
   0 -14   8    3.54    4.81
   0 -14   8    4.84    4.63
   0 -14  -8    3.67    4.85
   0 -14  -8    7.17    9.48
   0 -14  -8   -2.37    8.97
   0  14   8   -0.03    4.74
   0  14  -8    2.68    4.58
   0  14  -8    2.32    8.98
   0  14  -8    5.27   19.21
   0  14  -8    4.07    3.92
   0  14   8   14.35    5.83
  -2 -14  -8   15.15   11.33
  -2 -14  -8   -0.64   10.66
   2 -14   8   19.40    5.50
  -2 -14  -8   11.93    6.16
   2  14   8    6.51    5.56
  -2  14  -8   18.84    4.45
  -2  14  -8   18.88   10.25
  -2  14  -8   33.37   15.36
  -2  14  -8    4.29    4.73
  -4 -14  -8   83.36   10.43
  -4 -14  -8   83.67   17.56
   4 -14   8   92.30    8.76
  -4 -14  -8   53.77   16.30
  -4  14  -8   66.26   15.65
  -4  14  -8   69.54   14.20
   7 -15  -8   38.34    8.89
  -7 -15   8   26.88   19.41
  -7 -15   8   48.04   11.83
   7  15  -8   40.89    8.08
  -7  15   8   44.34   15.76
   5 -15  -8   23.44    6.81
  -5 -15   8   23.61   14.55
  -5  15   8   26.67   11.75
   5  15  -8   20.29    6.41
  -5  15   8   27.68    7.49
  -5  15   8   21.30    6.16
  -5  15   8   20.25    5.03
  -3 -15   8  135.37   11.25
  -3 -15   8  119.00   10.37
   3 -15  -8  130.93   10.08
   3 -15  -8  136.18   10.41
   3 -15  -8  121.89    9.88
  -3 -15   8  128.34   21.89
   3  15  -8  129.83   10.35
  -3  15   8  110.59    9.91
  -3  15   8  118.78   10.58
  -3  15   8  107.49   10.05
  -3  15   8  119.52   20.24
  -1 -15   8  143.08   10.83
   1 -15  -8  169.37   20.19
  -1 -15   8  156.52   20.36
   1 -15  -8  154.51   10.45
  -1 -15   8  146.47   10.32
   1 -15  -8  156.80   10.54
   1  15  -8  156.84   10.50
  -1  15   8  140.44   10.91
   1  15  -8  122.57   27.73
  -1  15   8  153.84   11.17
  -1 -15  -8   11.65    9.74
   1 -15   8    9.04    4.92
  -1 -15  -8   16.81    5.54
  -1 -15  -8   10.78    5.70
  -1 -15  -8   13.67   10.59
   1 -15   8    7.01    5.61
  -1  15  -8  -19.84   16.08
   1  15   8    8.23    5.93
  -1  15  -8    9.44    4.37
  -1  15  -8   -0.56    9.04
  -1  15  -8    5.63    4.69
  -3 -15  -8  219.58   27.87
   3 -15   8  225.90   13.06
  -3 -15  -8  195.83   14.64
  -3 -15  -8  169.03   24.50
  -3  15  -8  181.90   27.73
   3  15   8  202.72   13.31
  -3  15  -8  210.51   23.44
  -5 -15  -8   15.62   16.80
  -5  15  -8   35.55   14.13
  -5  15  -8   27.97   15.88
  -6 -16   8    9.04   16.72
  -6 -16   8   18.95    9.04
   6 -16  -8   22.72    7.45
   6  16  -8   12.48    6.69
   4 -16  -8    6.24    6.00
  -4 -16   8   15.35    4.68
  -4 -16   8   16.34    6.32
  -4 -16   8   17.33    7.02
  -4 -16   8   18.30   13.60
   4 -16  -8   21.33    6.75
   4  16  -8   13.99    6.42
  -4  16   8   25.17    6.29
  -4  16   8   16.75   11.55
  -4  16   8   14.28    6.46
  -2 -16   8   22.72    6.37
  -2 -16   8   13.23   11.20
  -2 -16   8   15.80    5.88
   2 -16  -8   10.50    5.56
   2 -16  -8   20.73    6.77
   2 -16  -8   23.93    6.03
   2  16  -8   12.29    6.22
  -2  16   8   19.34    6.14
  -2  16   8    4.67   10.03
  -2  16   8   16.23    6.37
   0 -16  -8   30.26   12.36
   0 -16   8   38.96    6.79
   0 -16  -8   45.66    6.55
   0 -16  -8   30.52    6.71
   0 -16   8   38.48    5.82
   0  16  -8   49.60    6.69
   0  16   8   41.63    6.84
   0  16  -8    1.82   21.86
   0  16  -8   41.24    5.50
   0  16   8   49.62    7.74
  -2 -16  -8   -2.11    6.68
  -2 -16  -8    0.93   12.21
   2 -16   8   -5.37    5.70
  -2 -16  -8    4.36   11.69
   2  16   8   12.88    6.47
  -2  16  -8   -2.10    5.15
  -2  16  -8    2.75   10.34
  -2  16  -8    0.23    4.77
  -2  16  -8  -10.89   16.71
  -4 -16  -8   33.45   16.04
   4 -16   8   37.78    7.08
  -4 -16  -8   25.98   15.95
  -4 -16  -8   39.46    9.36
  -4  16  -8   29.94   17.17
  -4  16  -8   35.94   13.61
  -6 -16  -8   71.20   20.93
  -6 -16  -8   62.82   13.75
  -6  16  -8   39.95   19.34
  -7 -17   8   23.61   12.14
   7 -17  -8   22.26    9.90
   7  17  -8   14.49    7.53
  -5 -17   8   68.09    9.70
   5 -17  -8   67.07    9.00
  -5 -17   8   60.01   17.89
   5  17  -8   56.73    8.80
  -5  17   8   75.13    8.36
  -3 -17   8   46.79    7.92
   3 -17  -8   38.63    7.05
  -3 -17   8   48.98    8.38
  -3 -17   8   23.84   12.86
   3 -17  -8   37.22    7.38
  -3  17   8   31.57    7.35
   3  17  -8   40.89    7.53
  -3  17   8   22.39    6.80
  -1 -17   8  131.12   11.07
   1 -17  -8  147.47   10.81
  -1 -17   8  113.32   10.11
   1 -17  -8  132.11   10.69
   1 -17  -8  106.45   19.06
  -1  17   8  141.23   10.96
   1  17  -8  112.39   10.43
  -1  17   8  134.61   10.92
  -1 -17  -8    8.70    6.06
   1 -17   8    8.03    6.09
  -1 -17  -8    2.30    6.55
  -1 -17  -8    7.70   12.02
   1  17   8    9.41    7.12
  -1  17  -8    2.80    5.25
  -1  17  -8   -0.78    4.80
  -3 -17  -8  226.31   29.65
  -3 -17  -8  266.99   17.14
   3 -17   8  338.68   16.46
  -3 -17  -8  275.45   30.40
  -3  17  -8  212.65   33.23
   3  17   8  259.00   15.33
  -5 -17  -8   36.13   19.31
  -5 -17  -8   35.90   11.35
   5 -17   8   28.89    8.15
  -5 -17  -8    9.99   20.97
  -5  17  -8    2.84   16.88
   6 -18  -8   19.06    8.51
  -6 -18   8   18.96    9.94
   6  18  -8   10.89    7.19
   4 -18  -8   40.21    8.51
  -4 -18   8   37.81    8.22
   4 -18  -8   31.25    8.15
  -4 -18   8   43.02    8.67
  -4  18   8   31.79    7.30
  -4  18   8   18.72    7.54
   4  18  -8   29.14    7.80
  -2 -18   8   41.36    7.83
   2 -18  -8   62.64    7.44
   2 -18  -8   57.35    8.33
  -2 -18   8   38.01    7.54
   2 -18  -8   49.44    7.01
  -2  18   8   46.94    8.23
  -2  18   8   61.21    8.57
   2  18  -8   38.78    7.79
   0 -18   8   43.67    7.70
   0 -18   8   32.30    6.34
   0 -18  -8   21.33   13.12
   0 -18  -8   38.79    7.34
   0 -18  -8   38.02    7.79
   0  18  -8   46.36    6.80
   0  18   8   51.69    8.68
  -2 -18  -8   11.20    7.13
  -2 -18  -8   22.87    7.36
   2 -18   8   14.15    7.29
  -2 -18  -8   19.25   15.17
  -2  18  -8   12.46    5.43
  -2  18  -8   20.07    5.50
  -2  18  -8  -14.23   20.02
   2  18   8   26.55    7.35
  -2  18  -8   16.82    5.93
  -4 -18  -8   27.29   17.99
   4 -18   8   36.75    7.89
  -4 -18  -8   40.35    9.84
   4  18   8   29.21    8.97
  -4  18  -8   -4.49   17.55
  -6 -18  -8   27.91   10.52
   6 -18   8   41.12   11.41
  -6 -18  -8   29.17   20.53
  -6  18  -8    4.54   19.85
  -5 -19   8   25.12    9.25
   5 -19  -8   32.86    8.49
   5  19  -8   20.76    8.25
  -5  19   8   30.02    7.39
   3 -19  -8  152.96   12.15
  -3 -19   8  157.19   13.80
  -3 -19   8  147.98   12.45
   3 -19  -8  160.40   11.72
   3  19  -8  149.85   12.55
  -3  19   8  146.75   11.80
  -3  19   8  140.23   11.65
   1 -19  -8   21.72    7.63
  -1 -19   8   25.76    7.89
  -1 -19   8   17.65    6.74
   1 -19  -8   29.56    7.62
  -1  19   8   35.06    8.26
  -1  19   8   31.25    8.10
   1  19  -8   23.32    7.06
  -1 -19  -8   51.40   16.45
   1 -19   8   67.00    9.04
  -1 -19  -8   75.24    8.96
  -1 -19  -8   51.75    8.75
  -1  19  -8   54.82    7.32
  -1  19  -8    7.49   28.59
   1  19   8   69.84    9.91
  -3 -19  -8   38.18    9.14
  -3 -19  -8   42.43   18.67
   3 -19   8   37.36    8.33
  -3  19  -8    3.60   19.53
   3  19   8   62.70    8.56
   5 -19   8   55.96   10.12
  -5 -19  -8   57.64   20.96
  -5  19  -8   30.31   20.71
   5  19   8   52.28   10.98
   6 -20  -8   44.62   12.17
  -6 -20   8   63.87   14.03
   6  20  -8   55.77    9.67
  -4 -20   8    9.97    9.09
   4 -20  -8   12.52    7.81
  -4  20   8   11.26    7.36
   4  20  -8    7.34    7.41
  -4  20   8    1.57    7.80
  -2 -20   8  103.12   10.68
   2 -20  -8  110.43    9.77
   2 -20  -8  118.68   10.88
   2 -20  -8  115.05   10.20
  -2 -20   8   95.53   10.00
  -2 -20   8  100.71    9.36
  -2  20   8   98.99   10.84
   2  20  -8  104.22   10.39
  -2  20   8  113.12   11.04
   0 -20  -8    8.26    7.56
   0 -20  -8    5.46    8.13
   0 -20   8   10.23    6.69
   0  20  -8   -2.79    6.33
   0  20   8   10.37    8.27
   2 -20   8  151.30   12.45
  -2 -20  -8  156.21   12.16
  -2 -20  -8  125.62   22.51
  -2 -20  -8  133.33   12.97
   2  20   8  117.94   11.53
  -2  20  -8  122.69   10.28
  -2  20  -8  132.91   10.73
  -4 -20  -8    2.79    8.65
   4 -20   8    4.71    7.82
  -4 -20  -8    1.16   17.04
  -4  20  -8  -16.36   19.36
   4  20   8    0.67    8.64
  -6 -20  -8    7.56   13.98
  -5 -21   8   44.98   11.43
  -5 -21   8   59.62   12.43
   5 -21  -8   53.58   10.02
   5  21  -8   50.96    9.53
  -5  21   8   41.77    8.54
  -3 -21   8   20.67    7.93
   3 -21  -8   31.92    7.56
   3 -21  -8   25.76    8.18
  -3 -21   8   33.96    8.83
  -3  21   8   27.74    8.75
   3  21  -8   28.29    8.18
  -3  21   8   35.56    8.89
   1 -21  -8   73.35    9.60
  -1 -21   8   40.92    9.17
   1 -21  -8   70.64   10.28
  -1 -21   8   51.95    7.94
  -1 -21   8   38.63    8.63
  -1  21   8   57.00    9.41
   1  21  -8   49.73    8.51
  -1 -21  -8   44.62    8.53
   1 -21   8   29.54    7.85
  -1 -21  -8   42.04    9.18
  -1  21  -8   29.83    6.85
   1  21   8   29.22    9.82
  -3 -21  -8   45.72   10.72
  -3 -21  -8   39.30   19.43
   3 -21   8   53.98    9.11
   3  21   8   74.39    9.91
   5 -21   8   33.30    9.98
  -5 -21  -8   26.99   19.91
   5  21   8   30.95   10.06
  -5  21  -8  -21.30   24.57
  -4 -22   8   61.89   12.05
  -4  22   8   78.10   10.54
   4  22  -8   95.55   11.31
  -2 -22   8   15.16    8.15
  -2 -22   8   15.39   10.19
   2 -22  -8   37.27    8.75
  -2 -22   8   22.40    9.44
  -2  22   8   35.00    9.72
  -2  22   8   44.63   10.10
   2  22  -8   39.66    8.42
   0 -22   8  164.40   15.91
   0 -22   8  167.01   14.00
   0 -22  -8  208.79   16.02
   0 -22  -8  192.25   13.44
   0  22   8  192.29   16.43
   0  22  -8  163.02   13.41
  -2 -22  -8   12.78    8.83
   2 -22   8   13.60    8.25
   2  22   8   10.03    8.75
  -2  22  -8   14.90    7.57
   4 -22   8   12.38    8.76
  -4 -22  -8   14.85    9.74
   4  22   8   22.34   10.30
  -5 -23   8   39.11   13.31
   5  23  -8   24.08   10.25
  -5  23   8   31.66    8.87
  -3 -23   8   47.57   11.42
  -3 -23   8   29.96    9.87
   3 -23  -8   49.77   10.01
  -3  23   8   33.93   10.08
  -3  23   8   57.22   10.18
   3  23  -8   31.93    9.80
  -1 -23   8   43.15    8.64
   1 -23  -8   67.32    9.84
   1 -23  -8   58.48   11.08
  -1 -23   8   49.18   10.08
   1  23  -8   50.42    8.93
  -1  23   8   38.05   10.70
  -1 -23  -8   20.69   11.25
   1 -23   8    9.05    7.43
  -1  23  -8    6.83    6.88
   1  23   8   25.57   10.50
  -1  23  -8    9.45    7.32
   3 -23   8   21.02   11.02
  -3 -23  -8   34.20   11.00
   3  23   8    4.98   10.83
  -4 -24   8   19.72   11.78
   4  24  -8   31.13   11.08
  -4  24   8   29.85    9.53
  -2 -24   8   41.55   11.37
  -2 -24   8   51.47   11.84
  -2 -24   8   49.53    9.03
   2 -24  -8   32.40    9.96
  -2  24   8   36.51   10.38
   2  24  -8   41.66    9.73
   0 -24   8   16.57    8.87
   0 -24   8    7.65    8.14
   0 -24  -8   24.03   10.65
   0 -24  -8   30.68   10.36
   0  24  -8   10.26    7.63
   0  24   8    5.07   10.59
   2 -24   8   22.75    8.64
  -2  24  -8   23.62    8.23
   2  24   8   55.72   11.60
   4 -24   8   -1.26    8.39
   4  24   8   19.77   11.53
   3 -25  -8   20.97    9.67
  -3 -25   8   17.92   11.22
  -3  25   8   17.18    9.63
  -3  25   8   15.07    9.46
   3  25  -8   26.35    9.79
   1 -25  -8   31.51    9.39
  -1 -25   8   20.22    9.58
  -1 -25   8   12.25    8.02
   1  25  -8   21.92    8.50
  -1  25   8   16.42   10.68
  -1 -25  -8   11.62   10.53
   1 -25   8   -7.88    8.01
  -1  25  -8   13.76    8.26
  -1  25  -8    6.83    7.75
   1  25   8    6.10   12.07
   3 -25   8    6.71    8.38
  -3 -25  -8   11.98   10.01
   3  25   8   17.06   11.97
  -3  25  -8   12.31    8.13
  -2 -26   8   29.32    8.91
   2 -26  -8   29.03   10.14
  -2  26   8   17.33   10.75
   2  26  -8   27.48    9.58
   0 -26  -8   13.21    9.78
   0 -26   8    0.43    7.24
   0 -26  -8   13.83   11.48
   0 -26   8   -3.16    8.95
   0  26   8    4.23   11.32
   0  26  -8    4.58    7.60
   2 -26   8   42.67   11.59
  -2 -26  -8   70.95   12.50
   2  26   8   55.56   13.08
  -2  26  -8   41.88   10.30
   1 -27  -8   14.47    9.56
  -1 -27   8   14.41   10.06
  -1  27   8   -0.97   10.53
   1  27  -8   -0.26    8.53
  -1 -27  -8    3.74   11.15
   1 -27   8   -0.27   10.21
  -1  27  -8   15.15    9.55
   1  27   8   29.42   12.88
  -8   0   9  -25.85   14.35
  -8   0   9    3.80    8.43
  -6   0   9   -9.10   14.30
   6   0  -9    1.25    5.71
  -6   0   9    0.86    6.20
  -4   0   9   -7.11   10.31
  -4   0   9  -42.18   27.99
  -4   0   9    7.08    3.57
  -4   0   9    7.25    3.03
   4   0  -9    8.72    4.24
   2   0  -9   -2.07    3.54
   2   0  -9   -2.16    3.39
  -2   0   9    0.96    3.37
  -2   0   9    0.77    3.71
  -4   0  -9    0.89    5.57
  -6   0  -9   -6.97    7.21
  -8   0  -9    5.98    9.72
  -9  -1   9  -25.52   14.69
  -9  -1   9   13.76    9.47
  -9   1   9  -11.91   15.58
  -9   1   9   12.19    9.03
   7  -1  -9   73.85    8.31
  -7  -1   9   84.50    9.72
  -7   1   9   73.22    9.80
  -7   1   9   47.20   15.99
   5  -1  -9  492.46   21.40
  -5  -1   9  441.56   52.23
   5   1  -9  493.61   21.36
  -5   1   9  498.08   33.46
   3  -1  -9   98.96    6.97
   3  -1  -9  101.29    6.85
  -3  -1   9   99.94    6.28
  -3  -1   9   99.51    6.60
  -3  -1   9  100.40    6.68
  -3   1   9   93.29    6.17
   3   1  -9   97.82    6.86
  -3   1   9   95.83    6.67
  -3   1   9  138.82   18.85
   3   1  -9   95.84    7.13
  -3   1   9  102.71    6.73
   1  -1  -9  774.05   36.34
  -1  -1   9  786.56   30.97
   1  -1  -9  789.82   30.97
   1  -1  -9  779.43   30.96
  -1  -1   9  784.93   31.05
   1  -1  -9  767.07   30.86
   1  -1  -9  667.83   44.58
   1   1  -9  774.86   30.98
  -1   1   9  772.39   30.96
   1   1  -9  778.85   30.88
  -1   1   9  778.50   31.05
   1   1  -9  808.90   31.00
   1   1  -9  815.12   35.94
  -3  -1  -9  140.40    9.53
  -3   1  -9  134.81    9.40
  -5  -1  -9   48.43    8.21
  -5   1  -9   46.52    8.13
  -7  -1  -9   26.96   10.06
  -7   1  -9   24.15    9.09
  -8  -2   9   18.06    9.02
  -8   2   9  -15.89   15.10
  -8   2   9   11.67    9.15
  -6  -2   9  208.05   13.43
  -6  -2   9  167.26   21.91
   6  -2  -9  201.78   12.02
   6   2  -9  201.24   11.76
  -6   2   9  214.76   13.23
  -6   2   9  189.55   25.08
  -4  -2   9   24.04   10.42
  -4  -2   9   33.70    4.51
  -4  -2   9   37.76    3.97
   4  -2  -9   37.32    4.89
  -4  -2   9   41.16    4.65
  -4  -2   9   64.52   21.73
  -4   2   9   33.62   10.21
   4   2  -9   46.60    5.11
  -4   2   9   33.27    4.41
  -4   2   9   34.53    3.87
  -4   2   9   48.23    4.73
  -2  -2   9  256.05   20.33
  -2  -2   9  323.77   26.24
   0  -2  -9  129.25    6.80
   0  -2  -9  110.56   13.55
   0  -2  -9  127.26    6.52
   0  -2   9  133.49    7.14
   0  -2  -9  132.89    6.88
   0   2   9  127.15    7.11
   0   2  -9  123.62    6.66
   0   2  -9  130.26    6.87
  -2  -2  -9   35.21    5.44
  -4  -2  -9   -1.88    5.50
  -4   2  -9    5.67    5.72
  -6  -2  -9   38.33    8.26
  -6   2  -9   35.94    8.40
  -8  -2  -9    0.48   10.39
  -8   2  -9   12.54   10.04
  -9  -3   9   64.93   13.11
  -9   3   9    3.90   15.57
  -9   3   9   69.18   11.72
  -7  -3   9    8.68   17.35
  -7  -3   9   36.92    8.29
   7  -3  -9   39.67    7.30
   7   3  -9   45.92    6.69
  -7   3   9    5.89   40.24
  -7   3   9   19.63   14.76
  -7   3   9   50.53    8.27
  -5  -3   9  232.40   23.32
  -5  -3   9  153.39   30.11
   5  -3  -9  248.02   12.17
  -5   3   9  255.30   24.51
   5   3  -9  231.49   12.13
   3  -3  -9   42.16    4.88
   3  -3  -9   48.11    4.96
  -3  -3   9   40.84    9.37
  -3  -3   9   48.53    4.65
  -3  -3   9   53.50    4.80
  -3  -3   9   48.62    4.08
  -3   3   9   52.24    4.95
   3   3  -9   52.73    5.06
   3   3  -9   54.74    5.23
  -3   3   9   43.79    4.51
  -3   3   9   47.32    4.13
  -3   3   9   46.12    9.93
   1  -3  -9  572.38   22.77
   1  -3  -9  659.07   32.07
  -1  -3   9  577.10   22.91
   1  -3  -9  554.89   22.64
   1  -3  -9  545.01   22.72
  -1  -3   9  568.02   22.75
  -1  -3   9  512.47   32.90
   1  -3  -9  546.55   27.98
  -1   3   9  563.36   22.85
   1   3  -9  531.44   22.90
   1   3  -9  552.27   27.22
  -1   3   9  536.90   22.71
   1   3  -9  552.61   22.74
  -3  -3  -9   44.71    6.21
  -5  -3  -9   71.42    9.00
  -5   3  -9   71.04    8.84
  -7  -3  -9   20.07    8.82
  -7   3  -9   26.91    9.90
   8  -4  -9    0.02    6.87
  -8  -4   9   -0.62    8.20
  -8   4   9   -5.60   14.44
   8   4  -9   11.06    6.39
  -4  -4   9  117.50   16.08
  -2  -4   9  252.39   11.79
   2  -4  -9  245.27   11.86
  -2  -4   9  254.97   17.94
  -2  -4   9  257.60   11.80
   2  -4  -9  251.59   11.87
   2  -4  -9  246.19   17.22
  -2   4   9  283.86   19.68
  -2   4   9  263.46   11.89
   2   4  -9  261.21   11.91
  -2   4   9  264.68   11.97
   0  -4  -9  566.45   22.50
   0  -4  -9  553.81   27.12
   0  -4  -9  543.01   22.44
   0  -4   9  565.71   22.68
   0  -4  -9  544.21   31.46
   0   4  -9  560.52   27.15
   0   4  -9  564.37   22.46
   0   4  -9  545.79   29.18
   0   4   9  549.85   22.64
   0   4  -9  574.71   22.55
  -2  -4  -9  246.90   12.69
  -4  -4  -9  113.64    9.80
  -6  -4  -9   28.40    8.26
  -6   4  -9   27.60    8.05
  -8  -4  -9   58.73   13.19
  -9  -5   9   19.99   11.14
   9  -5  -9   31.27    8.66
  -9   5   9  -10.36   15.61
  -5  -5   9  137.32   19.53
   5  -5  -9  120.64    9.38
   5   5  -9  139.11    9.09
  -5   5   9  142.17   20.85
   1  -5  -9   14.22    3.73
  -1  -5   9   26.12    4.11
   1  -5  -9   22.85    3.50
  -1  -5   9   11.45    8.04
   1  -5  -9   20.12    3.82
   1  -5  -9   24.80    7.40
  -1  -5   9   21.52    3.67
   1  -5  -9   16.33    9.26
  -1   5   9   25.98    4.13
  -1   5   9   19.12    3.53
   1   5  -9   25.29    7.55
   1   5  -9   24.66    4.20
  -1  -5  -9   49.44    5.44
  -1  -5  -9   41.47    7.15
  -1   5  -9   76.65   11.76
  -3  -5  -9    5.57    5.02
  -5  -5  -9    8.67    6.93
  -7  -5  -9   26.89    9.11
  -8  -6   9   54.94   19.21
  -8  -6   9   85.74   12.09
  -8   6   9   67.12   17.80
  -4  -6   9  359.83   15.82
  -4  -6   9  316.13   30.77
  -4  -6   9  359.50   15.87
  -4  -6   9  338.17   15.40
  -4  -6   9  357.90   24.52
   4  -6  -9  349.69   16.10
  -4   6   9  333.21   15.58
   4   6  -9  344.71   16.03
  -4   6   9  327.65   15.59
  -4   6   9  403.63   25.83
  -4   6   9  362.91   15.35
   2  -6  -9   77.72   12.09
   2  -6  -9   91.52    6.57
  -2  -6   9   87.74    6.49
   2  -6  -9   74.87    6.73
  -2  -6   9   79.17    6.42
  -2  -6   9   90.45   13.44
  -2   6   9   81.71    6.38
   2   6  -9   84.93    6.63
  -2   6   9   87.48    6.56
   0  -6  -9 1090.53   43.83
   0  -6  -9 1030.66   48.55
   0  -6  -9 1160.28   48.57
   0  -6  -9 1090.17   43.89
   0  -6   9 1121.94   44.07
   0  -6   9 1134.38   44.03
   0   6  -9 1102.87   43.83
   0   6  -9 1149.90   44.02
   0   6  -9 1155.93   48.84
   0   6   9 1118.38   44.10
  -2  -6  -9   66.05    6.47
  -4  -6  -9    2.21    5.81
  -6  -6  -9   24.79    8.98
  -8  -6  -9   -6.78   10.83
   9  -7  -9   22.76    8.39
  -9  -7   9   19.62   10.84
  -9   7   9  -19.18   16.35
  -7  -7   9   35.28   30.28
  -7  -7   9   83.03   17.56
  -7  -7   9  106.32   11.53
   7  -7  -9  119.10   10.59
   7   7  -9   82.12    8.44
  -7   7   9   85.81   17.36
  -3  -7   9   51.73   10.14
  -3  -7   9   66.15    5.55
  -3  -7   9   58.26    5.35
   3  -7  -9   66.50    5.83
  -3  -7   9   31.63   15.29
  -3  -7   9   63.85    5.40
   3  -7  -9   61.79    5.56
  -3   7   9   54.65    9.63
  -3   7   9   61.62    5.48
  -3   7   9   49.51    8.46
  -3   7   9   60.76    5.41
   3   7  -9   56.91    5.42
  -3   7   9   59.46    5.59
  -1  -7   9  219.58   10.29
   1  -7  -9  210.88   16.19
  -1  -7   9  216.18   10.36
   1  -7  -9  204.02   10.33
  -1  -7   9  223.20   18.53
   1  -7  -9  197.67   10.25
   1  -7  -9  187.07   20.01
   1  -7  -9  202.38   10.75
  -1   7   9  209.89   10.51
  -1   7   9  205.55   10.29
   1   7  -9  215.71   10.41
  -1  -7  -9   94.45   13.57
  -1  -7  -9  120.74   12.92
   1  -7   9  134.70    7.38
  -1  -7  -9  134.60    8.24
  -1   7  -9  127.91   13.76
  -3  -7  -9   55.89    6.86
  -5  -7  -9   16.57    7.68
  -7  -7  -9   12.74    8.84
   8  -8  -9   15.45    7.92
  -8  -8   9   16.05   16.93
  -8  -8   9   22.24   10.11
   8   8  -9   18.39    6.75
  -8   8   9   -5.14   15.15
  -4  -8   9    3.91    3.65
  -4  -8   9    4.56    9.57
   4  -8  -9    0.95    4.75
  -4  -8   9    4.69    4.40
  -4  -8   9  -11.26   19.64
   4  -8  -9    4.43    4.86
  -4  -8   9    5.51    4.63
  -4   8   9    4.92    4.55
  -4   8   9    7.16   10.38
   4   8  -9    7.44    4.31
  -4   8   9   -1.79    6.79
  -4   8   9   -0.46    3.47
  -4   8   9    2.06    4.47
   2  -8  -9  208.71   17.29
  -2  -8   9  207.39   18.27
   2  -8  -9  212.77   10.65
  -2  -8   9  212.31   10.49
  -2  -8   9  199.24   10.39
   2  -8  -9  200.27   10.68
  -2   8   9  215.94   10.81
  -2   8   9  210.20   16.01
  -2   8   9  209.24   10.62
   2   8  -9  212.71   10.74
   0  -8  -9  296.38   21.85
   0  -8   9  339.98   15.11
   0  -8   9  362.49   15.10
   0  -8  -9  340.56   14.86
   0  -8  -9  326.11   14.89
   0  -8  -9  363.27   21.24
   0   8   9  333.10   15.18
   0   8   9  341.10   15.17
   0   8  -9  357.75   21.23
   0   8  -9  344.44   14.71
   0   8  -9  359.62   15.08
  -2  -8  -9   88.83   12.63
  -2  -8  -9   97.81    7.76
  -2   8  -9   67.63   10.93
  -2   8  -9  100.34   13.45
  -4  -8  -9   35.88    7.51
  -6  -8  -9    2.95    7.90
  -8  -8  -9   20.24   12.58
  -7  -9   9   27.46   14.99
  -7  -9   9   17.06    8.69
   7  -9  -9   14.67    7.42
  -7   9   9   21.14   13.82
   7   9  -9   16.96    5.97
  -5  -9   9   -2.35   22.50
  -5  -9   9   10.83   11.46
   5  -9  -9   12.73    5.61
  -5   9   9   19.58   11.13
  -5   9   9    4.58    4.75
  -5   9   9    1.86    3.80
   5   9  -9    8.94    4.89
  -5   9   9   12.24    8.79
  -3  -9   9   21.94    9.47
   3  -9  -9   32.40    5.07
  -3  -9   9   25.08    4.88
  -3  -9   9   24.31    4.08
  -3  -9   9   30.05    4.90
   3  -9  -9   34.47    5.21
  -3   9   9   24.77    4.87
  -3   9   9   34.72    5.07
  -3   9   9   20.46    8.29
   3   9  -9   32.57    5.15
  -3   9   9   32.98    4.16
  -3   9   9   22.32    7.62
  -1  -9   9    0.50    8.05
   1  -9  -9   -0.77    7.45
  -1  -9   9    7.28    4.04
   1  -9  -9   23.52   10.70
   1  -9  -9    7.76    4.05
  -1  -9   9   12.36    3.96
   1  -9  -9    4.96    4.03
  -1   9   9    7.08    3.58
   1   9  -9   -1.24   14.30
  -1   9   9    3.14    4.32
   1   9  -9    4.61    4.04
   1  -9   9  150.80    8.56
  -1  -9  -9  146.44   14.34
  -1  -9  -9  152.62    9.04
  -1  -9  -9  146.89   15.31
   1   9   9  159.83    8.68
  -1   9  -9  159.08   15.36
  -1   9  -9  127.71   19.79
  -1   9  -9  143.80    7.84
  -3  -9  -9    3.49    5.55
  -5  -9  -9   91.91   11.00
  -7  -9  -9   33.33    9.71
  -8 -10   9   18.84   16.63
   8 -10  -9   43.88    8.97
  -8 -10   9   39.74   11.10
  -8  10   9   35.72   13.41
   8  10  -9   25.14    6.82
  -6 -10   9    7.23   12.97
   6 -10  -9   16.45    6.58
  -6  10   9   32.76   11.58
   6  10  -9   12.47    5.36
   4 -10  -9   29.79    6.01
  -4 -10   9   44.30    5.88
  -4 -10   9   35.83   11.77
  -4 -10   9   34.79    4.80
   4 -10  -9   45.58    6.24
  -4 -10   9   37.51    5.89
  -4 -10   9   -7.16   22.68
  -4  10   9   34.28    4.73
  -4  10   9   45.52   11.03
  -4  10   9   32.64    9.63
   4  10  -9   54.60    6.28
  -4  10   9   47.25    5.89
  -4  10   9   39.56    5.83
  -2 -10   9   58.35    5.65
  -2 -10   9   55.23    5.85
   2 -10  -9   69.56    5.86
   2 -10  -9   67.93    6.03
  -2 -10   9   48.23   10.19
   2 -10  -9   49.14    9.84
  -2  10   9   67.61    6.17
  -2  10   9   72.83   11.99
   2  10  -9   74.68    6.36
  -2  10   9   51.76    5.51
   0 -10  -9  193.65   17.37
   0 -10  -9  212.89   16.65
   0 -10   9  186.89   10.22
   0 -10   9  211.84   10.30
   0 -10  -9  182.61    9.81
   0 -10  -9  197.72   10.02
   0  10  -9  158.72   24.81
   0  10   9  187.72   10.24
   0  10  -9  197.87   10.01
   0  10   9  190.91   10.50
   0  10  -9  187.82    9.54
   0  10  -9  191.44   17.06
  -2 -10  -9   40.33    9.88
  -2 -10  -9   29.98    8.71
   2 -10   9   34.54    5.17
  -2 -10  -9   33.24    5.84
  -2  10  -9   54.31   12.76
  -2  10  -9   31.70    9.51
  -4 -10  -9   62.39    8.98
  -6 -10  -9   25.75   10.15
   7 -11  -9    9.50    7.58
  -7 -11   9   17.87   16.51
  -7 -11   9    9.10    8.98
  -7  11   9   43.24   12.73
   7  11  -9   18.91    6.28
  -5 -11   9   50.49   15.65
   5 -11  -9   50.16    7.29
  -5 -11   9   64.95    7.25
   5  11  -9   43.32    6.79
  -5  11   9   50.72    5.69
  -5  11   9   59.90    6.41
  -5  11   9   70.08   12.93
  -3 -11   9   41.53    5.96
  -3 -11   9   17.20   21.42
   3 -11  -9   49.54    5.99
  -3 -11   9   40.08    4.64
  -3 -11   9   46.31   11.36
  -3 -11   9   41.36    6.06
   3 -11  -9   62.74    6.38
  -3  11   9   51.20    5.06
  -3  11   9   46.47    9.70
  -3  11   9   37.47    9.77
  -3  11   9   59.77    6.35
   3  11  -9   52.70    6.07
  -3  11   9   51.96    6.11
  -1 -11   9  215.56   11.26
  -1 -11   9  222.62   11.32
  -1 -11   9  216.29   22.96
   1 -11  -9  221.68   19.04
   1 -11  -9  214.37   11.23
   1 -11  -9  209.27   11.07
  -1  11   9  199.86   11.05
  -1  11   9  216.67   11.64
   1  11  -9  213.65   11.34
  -1 -11  -9    2.96    8.21
  -1 -11  -9    6.42    4.12
  -1 -11  -9    5.96    7.42
  -1 -11  -9    5.12    4.37
   1 -11   9   10.14    4.55
  -1  11  -9   11.64    3.65
   1  11   9    5.80    4.63
  -1  11  -9   34.00   14.09
  -1  11  -9    2.47    8.12
  -1  11  -9   10.18    3.67
  -3 -11  -9  169.27   11.86
  -3  11  -9  193.97   20.27
  -3  11  -9  186.27   22.03
  -5 -11  -9   36.64    9.09
  -7 -11  -9    0.75   10.47
  -8 -12   9   25.22    9.73
   8 -12  -9   10.38    7.90
  -8 -12   9   17.98   16.83
  -8  12   9   43.74   13.38
   8  12  -9    5.75    6.91
  -6 -12   9   42.36   17.04
   6 -12  -9   52.50    8.33
  -6  12   9   31.76   13.50
   6  12  -9   39.10    6.84
  -4 -12   9   17.63    5.91
  -4 -12   9   21.63    6.15
  -4 -12   9   12.04   11.71
  -4 -12   9   14.88    4.40
   4 -12  -9   19.89    5.85
  -4  12   9   11.21    5.44
  -4  12   9   19.80    9.96
   4  12  -9   16.01    5.61
  -4  12   9   16.94    4.24
  -4  12   9   15.41    5.53
   2 -12  -9   68.09    6.18
  -2 -12   9   44.77   10.57
   2 -12  -9   38.46   10.39
  -2 -12   9   56.83    6.14
   2 -12  -9   52.93    6.24
  -2 -12   9   50.27    6.22
  -2  12   9   55.75    6.30
   2  12  -9   52.77    6.49
  -2  12   9   52.42    6.06
  -2  12   9   43.25    9.54
   0 -12  -9  406.13   26.59
   0 -12   9  441.37   18.96
   0 -12  -9  434.28   27.36
   0 -12  -9  402.40   18.70
   0 -12  -9  401.16   18.53
   0 -12   9  429.34   18.78
   0  12  -9  462.71   36.57
   0  12  -9  420.85   26.34
   0  12   9  415.40   19.27
   0  12  -9  428.84   18.66
   0  12  -9  425.40   18.40
  -2 -12  -9    8.80    9.50
  -2 -12  -9    9.07   10.07
  -2 -12  -9    9.81    5.36
   2 -12   9   10.38    4.83
   2  12   9    9.40    4.95
  -2  12  -9    0.79   13.85
  -2  12  -9   13.02    9.35
  -4 -12  -9   85.71   10.43
  -4  12  -9   68.41   14.51
  -4  12  -9   79.96   13.67
  -6 -12  -9   81.83   11.74
   7 -13  -9   12.06    8.15
  -7 -13   9   14.50   16.19
  -7 -13   9   16.91    9.73
   7  13  -9   23.86    6.71
  -7  13   9   21.50   13.25
   5 -13  -9   32.24    6.87
  -5 -13   9   24.61   14.38
  -5 -13   9   39.75    5.48
  -5  13   9   38.69   12.26
   5  13  -9   27.77    6.22
  -5  13   9   28.44    6.26
  -5  13   9   37.74    5.37
   3 -13  -9   68.13    7.32
  -3 -13   9   57.90   13.11
   3 -13  -9   86.91    7.89
  -3 -13   9   66.56   20.97
  -3 -13   9   88.93    7.98
  -3 -13   9   75.73    7.42
   3  13  -9   76.05    7.50
  -3  13   9   69.81    6.23
  -3  13   9   94.61   17.14
  -3  13   9   81.98    7.57
  -3  13   9   78.75    7.55
  -1 -13   9  172.95   10.57
   1 -13  -9  175.27   10.45
  -1 -13   9  148.52   10.05
   1 -13  -9  158.22    9.91
   1 -13  -9  192.08   19.07
   1  13  -9  163.25   24.39
  -1  13   9  177.30   10.63
  -1  13   9  167.15   10.80
   1  13  -9  171.79   10.34
   1 -13   9   18.72    5.15
  -1 -13  -9   23.27    9.26
  -1 -13  -9   19.81    5.07
   1 -13   9   18.46    4.99
  -1 -13  -9   16.97   10.14
  -1  13  -9   10.01    4.44
  -1  13  -9   21.70   16.49
  -1  13  -9   13.61    9.14
  -1  13  -9   22.74    4.42
   1  13   9   27.01    5.82
  -3 -13  -9  101.83   16.22
   3 -13   9  123.77    9.36
  -3 -13  -9  106.34   10.51
  -3 -13  -9   88.73   15.09
  -3  13  -9   87.25   14.38
  -3  13  -9   87.20   15.92
  -5 -13  -9   11.50    8.64
  -5  13  -9    3.72   13.11
  -5  13  -9   10.53   11.63
  -7 -13  -9   51.19   15.80
   8 -14  -9   36.36    9.97
  -8 -14   9   17.39   19.80
  -8 -14   9   29.72   10.47
   8  14  -9   21.35    7.47
  -6 -14   9   -6.60   16.82
   6 -14  -9    3.05    7.27
  -6 -14   9    8.92    8.04
  -6  14   9   17.22   12.22
   6  14  -9    8.38    6.28
  -4 -14   9   27.13   12.85
   4 -14  -9   35.95    7.12
  -4 -14   9   37.74    7.17
  -4 -14   9   34.18    5.35
  -4 -14   9   45.85    7.06
   4  14  -9   32.70    6.67
  -4  14   9   43.22   11.59
  -4  14   9   37.26    5.38
  -4  14   9   32.06    6.40
  -4  14   9   38.54    6.65
   2 -14  -9   33.91   12.91
   2 -14  -9   41.24    6.71
  -2 -14   9   38.94    6.34
  -2 -14   9   41.52   11.59
  -2 -14   9   37.39    6.11
   2 -14  -9   31.35    5.95
   2  14  -9   55.96    7.09
  -2  14   9   43.44    6.59
  -2  14   9   44.42    6.18
  -2  14   9   23.30    9.57
   0 -14  -9  164.82   10.20
   0 -14  -9  165.42   10.28
   0 -14   9  171.43   10.42
   0 -14   9  156.79   10.29
   0 -14  -9  162.97   20.70
   0 -14  -9  123.81   20.99
   0  14   9  164.57   10.33
   0  14  -9  165.98   27.05
   0  14   9  165.80   11.44
   0  14  -9  153.00   10.20
   0  14  -9  173.14    9.56
   0  14  -9  164.56   18.86
  -2 -14  -9   -2.84   10.38
   2 -14   9   12.57    5.39
  -2 -14  -9    4.43   10.84
  -2 -14  -9    3.22    6.23
  -2  14  -9   -3.74    9.33
  -2  14  -9   -9.11   15.35
  -2  14  -9    6.07    4.27
   2  14   9    3.65    5.50
  -4 -14  -9  232.15   15.80
  -4 -14  -9  226.75   27.23
  -4 -14  -9  200.04   26.10
  -4  14  -9  204.75   27.61
  -4  14  -9  221.11   24.60
  -6 -14  -9  105.63   14.86
  -7 -15   9    7.82    9.80
   7 -15  -9   16.61    8.95
  -7 -15   9   10.20   18.66
   7  15  -9   10.28    6.90
  -5 -15   9   18.02    5.28
  -5 -15   9   12.30    6.81
   5 -15  -9   15.21    6.79
  -5 -15   9    8.53   14.16
  -5  15   9   21.97    6.41
   5  15  -9   24.65    6.57
  -5  15   9   23.60    6.56
  -5  15   9   30.90   11.97
  -3 -15   9  131.58   11.12
  -3 -15   9  137.60   23.77
   3 -15  -9  118.22   10.25
   3 -15  -9  132.91   10.21
  -3 -15   9  125.30   10.91
   3  15  -9  132.84   10.80
  -3  15   9  135.56   10.81
  -3  15   9  123.26   19.91
  -3  15   9  118.36   10.48
   1 -15  -9   18.68    5.86
   1 -15  -9   16.07   11.01
  -1 -15   9   13.38    5.74
  -1 -15   9   13.69    5.68
   1 -15  -9    7.18    5.72
   1  15  -9  -21.30   25.59
   1  15  -9    7.65    5.46
  -1  15   9    4.77    5.88
  -1  15   9   15.03    6.55
   1 -15   9   86.47    8.06
   1 -15   9   83.12    8.22
  -1 -15  -9   97.37   17.47
  -1 -15  -9   85.39    7.71
  -1 -15  -9   97.54    7.68
  -1 -15  -9   74.51   14.45
  -1  15  -9   70.28   13.32
  -1  15  -9   89.05    7.92
  -1  15  -9   33.29   20.16
  -1  15  -9   85.22    7.52
   1  15   9   85.74    8.66
   3 -15   9  111.31    9.65
  -3 -15  -9   68.53   15.82
  -3 -15  -9   82.89   16.79
  -3 -15  -9   82.89   10.05
  -3  15  -9   71.90   17.41
  -3  15  -9   74.92   14.73
   3  15   9   76.78    8.00
  -5 -15  -9  144.76   14.69
  -5 -15  -9  188.09   29.91
  -5  15  -9  123.24   21.52
  -5  15  -9  168.95   25.59
   6 -16  -9   40.80    9.17
  -6 -16   9   23.45   17.32
  -6 -16   9   22.21    9.79
   6  16  -9   24.81    7.24
  -4 -16   9   21.56    7.46
   4 -16  -9   18.79    6.76
  -4 -16   9   24.82    7.34
  -4 -16   9   12.12   12.91
   4  16  -9   13.47    6.64
  -4  16   9   28.61    6.64
  -4  16   9    4.87    6.36
   2 -16  -9   50.05    7.54
  -2 -16   9   45.51   14.23
  -2 -16   9   54.91    7.38
  -2 -16   9   49.78    7.05
   2 -16  -9   48.37    7.68
   2  16  -9   60.63    7.64
  -2  16   9   57.04    8.09
  -2  16   9   58.96    7.69
   0 -16   9   48.39    6.89
   0 -16  -9   50.50    7.63
   0 -16  -9   49.77    6.90
   0 -16  -9   37.54   12.73
   0 -16   9   43.90    6.59
   0  16  -9   -4.76   24.32
   0  16   9   39.89    6.73
   0  16  -9   42.12    5.89
   0  16  -9   53.99    6.88
   0  16   9   45.30    7.92
  -2 -16  -9   40.07    8.09
  -2 -16  -9   35.31   14.54
  -2 -16  -9   22.42   12.42
   2 -16   9   33.91    7.07
  -2  16  -9   23.23    5.30
  -2  16  -9   36.43    6.10
  -2  16  -9   -3.83   17.74
  -2  16  -9   24.71   13.41
   2  16   9   20.58    7.34
  -4 -16  -9  116.43   12.33
   4 -16   9  128.37   11.36
  -4 -16  -9  116.19   20.97
  -4 -16  -9   84.98   19.32
  -4  16  -9   90.73   20.00
  -4  16  -9  138.63   23.03
  -6 -16  -9   21.51   11.45
  -6  16  -9  -10.59   16.42
  -7 -17   9   -0.92   10.81
   7 -17  -9   15.26    8.54
   7  17  -9    6.66    7.06
   5 -17  -9   56.94    8.76
  -5 -17   9   55.33    9.08
  -5  17   9   42.17    7.77
   5  17  -9   38.37    7.97
  -3 -17   9  141.47   11.72
   3 -17  -9  141.76   11.30
  -3 -17   9  130.54   12.10
  -3  17   9  139.63   11.69
  -3  17   9  136.12   11.54
   3  17  -9  130.24   11.05
  -1 -17   9    6.27    6.26
   1 -17  -9    9.91    6.60
  -1 -17   9   10.42    6.56
   1 -17  -9   -0.03    6.53
  -1  17   9   10.65    7.53
   1  17  -9   11.65    6.21
  -1  17   9   12.44    6.46
  -1 -17  -9   49.89    7.04
  -1 -17  -9   44.88   14.80
   1 -17   9   43.77    7.54
  -1 -17  -9   44.59    7.67
  -1  17  -9   39.79    5.95
   1  17   9   45.14    8.62
  -1  17  -9   50.22    6.46
  -1  17  -9    7.78   22.15
  -3 -17  -9   47.24    9.03
   3 -17   9   56.69    8.63
  -3 -17  -9   44.42   18.83
  -3 -17  -9   43.71   16.27
  -3  17  -9   26.61   19.68
   3  17   9   77.32    8.63
  -5 -17  -9   47.54   10.58
  -5 -17  -9   48.58   20.35
  -5  17  -9   16.76   18.85
  -6 -18   9   10.91    9.63
   6 -18  -9    5.64    8.90
   6  18  -9   -0.16    7.49
  -4 -18   9  100.47   10.75
   4 -18  -9  131.25   11.22
  -4 -18   9  108.27   10.98
  -4  18   9  117.56   10.53
  -4  18   9  133.85   10.80
   4  18  -9  118.08   11.27
  -2 -18   9   26.30    6.94
  -2 -18   9   32.28    7.43
   2 -18  -9   34.73    6.99
   2 -18  -9   48.56    8.25
   2  18  -9   29.28    7.26
  -2  18   9   30.76    8.17
  -2  18   9   38.03    7.44
   0 -18  -9  302.37   29.99
   0 -18  -9  286.18   15.72
   0 -18   9  283.23   16.33
   0 -18  -9  289.01   17.24
   0  18  -9  270.09   15.36
   0  18   9  293.15   17.57
  -2 -18  -9   11.57   13.67
   2 -18   9   17.69    7.10
  -2 -18  -9    8.78    7.12
   2  18   9   12.31    8.16
  -2  18  -9  -26.63   20.06
  -2  18  -9    3.90    5.09
  -2  18  -9    8.55    5.90
  -4 -18  -9   -4.99    8.23
   4 -18   9    6.74    7.11
  -4 -18  -9    8.06   17.03
  -4  18  -9   -7.94   17.38
   4  18   9    0.33    8.04
  -6 -18  -9   52.24   21.03
  -6 -18  -9   30.18   12.84
  -6  18  -9   -3.01   21.23
  -5 -19   9   33.37    8.72
   5 -19  -9   28.00    8.23
   5  19  -9   19.12    8.06
  -5  19   9   12.54    7.31
  -3 -19   9   50.36    8.32
  -3 -19   9   62.11    9.38
   3 -19  -9   58.70    8.78
   3  19  -9   51.63    8.68
  -3  19   9   50.93    8.64
  -3  19   9   49.82    8.12
  -1 -19   9   63.02    8.56
   1 -19  -9   71.65    9.04
  -1 -19   9   62.71    8.83
   1 -19  -9   72.86    9.06
  -1  19   9   64.22    9.70
   1  19  -9   65.83    8.49
  -1  19   9   50.87    9.91
  -1 -19  -9   65.82    8.85
  -1 -19  -9   54.91    8.88
  -1 -19  -9   33.93   15.21
   1 -19   9   51.46    7.88
   1  19   9   65.89    9.56
  -1  19  -9   48.16    7.06
   3 -19   9  104.50   10.41
  -3 -19  -9   81.70   21.61
  -3 -19  -9  100.78   11.27
   3  19   9   75.54   10.81
  -5 -19  -9   22.00   18.61
  -5 -19  -9    5.61    9.61
   5 -19   9   -2.97    7.57
  -5  19  -9   -8.88   20.29
  -6 -20   9   64.39   12.50
   6 -20  -9   59.05   12.21
   6  20  -9   36.58    8.79
   4 -20  -9    9.35    7.64
  -4 -20   9   -0.34    8.02
  -4  20   9    6.87    7.86
   4  20  -9    2.86    7.50
  -4  20   9   10.91    7.55
   2 -20  -9   37.43    8.45
  -2 -20   9   28.52    8.81
   2 -20  -9   47.94    9.60
  -2 -20   9   48.44    9.27
  -2  20   9   48.54    9.48
  -2  20   9   48.17    8.63
   2  20  -9   43.02    8.39
   0 -20  -9    8.73    8.31
   0 -20  -9    4.66    7.31
   0 -20   9   -1.77    6.94
   0  20   9   12.58    8.99
   0  20  -9    0.93    6.10
  -2 -20  -9   23.34    8.77
  -2 -20  -9   21.24   16.51
   2 -20   9   17.24    7.26
  -2 -20  -9   23.63    8.20
  -2  20  -9   10.13    6.44
   2  20   9   40.10    8.71
  -4 -20  -9   25.87    9.46
  -4 -20  -9   11.47   17.82
   4 -20   9   27.33    8.95
  -4  20  -9  -18.89   22.06
   4  20   9    8.89    8.38
  -5 -21   9   46.27   11.06
   5 -21  -9   33.91    9.98
  -5  21   9   42.54    8.68
   5  21  -9   33.89    9.04
  -3 -21   9   31.86    9.82
  -3 -21   9   29.74    9.35
  -3  21   9   37.55    9.40
  -3  21   9   32.83    8.77
   3  21  -9   41.72    8.79
   1 -21  -9   33.81    9.71
   1 -21  -9   42.09    9.98
  -1 -21   9   27.72    8.36
  -1  21   9   45.40    9.79
   1  21  -9   38.14    8.21
  -1 -21  -9   11.71    9.28
   1 -21   9   20.87    7.68
  -1 -21  -9   21.87    9.16
  -1  21  -9    5.93    6.18
   1  21   9   14.75    9.58
   3 -21   9   68.89   11.18
  -3 -21  -9   73.73   21.28
  -3 -21  -9   75.63   10.93
   3  21   9   68.38   10.58
  -5 -21  -9   15.77   19.63
  -5 -21  -9   15.39   10.59
   5 -21   9   -3.33    8.27
   5  21   9    4.23   11.38
  -5  21  -9  -28.66   22.95
  -4 -22   9   67.53   10.90
   4 -22  -9   67.05   10.06
  -4  22   9   54.74    9.56
   4  22  -9   50.94   10.02
  -4  22   9   46.96    9.66
  -2 -22   9    1.75    8.78
  -2 -22   9   10.30    7.22
  -2 -22   9   -4.83    9.29
   2 -22  -9   10.51    8.09
   2  22  -9    8.16    7.97
  -2  22   9   18.57    9.12
   0 -22  -9   38.94   10.11
   0 -22   9   14.68    8.00
   0 -22  -9   14.49    9.52
   0  22  -9   12.56    6.64
   0  22   9   17.93   10.42
   2 -22   9    0.29    8.29
  -2 -22  -9    1.02    9.38
   2  22   9   -3.33    9.99
  -2  22  -9    3.59    6.91
  -4 -22  -9   16.87    9.56
   4 -22   9    8.54    9.66
  -4 -22  -9   14.06   19.44
   4  22   9   13.55    9.92
  -5 -23   9   19.41   10.87
  -5 -23   9   22.13   12.50
  -5  23   9   15.55    8.62
   5  23  -9    9.03    9.08
  -3 -23   9   26.84   10.20
   3 -23  -9   49.43    9.60
  -3 -23   9   27.96    8.74
   3  23  -9   32.71    9.52
  -3  23   9   36.12    9.76
  -3  23   9   34.46    9.49
   1 -23  -9   24.93    8.83
   1 -23  -9   15.94    9.88
  -1 -23   9   16.52    8.70
  -1 -23   9   15.85    6.67
   1  23  -9   12.50    7.97
  -1  23   9    9.15    9.46
  -1 -23  -9    0.11   10.05
   1 -23   9   -1.77    8.76
   1  23   9   12.13   11.12
  -1  23  -9   16.73    7.37
   3 -23   9    5.80    7.76
  -3 -23  -9    6.88    9.54
   3  23   9    5.06   11.49
  -4 -24   9   15.32    9.99
   4 -24  -9   25.19    9.58
   4  24  -9   14.27   10.18
  -4  24   9   27.73   10.13
   2 -24  -9  109.30   11.64
  -2 -24   9  106.99   13.04
  -2 -24   9  106.36   12.52
  -2 -24   9   79.57   10.95
   2  24  -9   97.22   11.30
  -2  24   9   91.86   12.19
   0 -24   9   21.95    8.04
   0 -24  -9   37.38   11.25
   0 -24   9   16.85    9.39
   0  24   9   28.16   11.77
   0  24  -9   21.88    7.97
   2 -24   9    5.42    9.54
   2  24   9   20.02   11.75
  -2  24  -9   16.29    8.18
  -4 -24  -9   11.61    9.57
   3 -25  -9   35.87   11.41
  -3 -25   9   17.69   11.60
   3  25  -9   29.85    9.85
  -3  25   9   23.06   10.40
  -3  25   9   28.82   10.93
  -1 -25   9    2.76    7.14
  -1 -25   9    1.17    8.73
  -1  25   9    1.99   11.01
   1  25  -9   19.49    8.30
   1 -25   9   -1.77    9.63
   1  25   9    4.61   10.44
  -1  25  -9    8.46    8.32
   3 -25   9   20.98    9.15
   3  25   9   37.64   11.56
  -2 -26   9   21.90    9.61
  -2 -26   9   18.81    9.66
  -2  26   9   24.50   10.98
   2  26  -9   17.18    9.68
   0 -26   9    4.67    8.68
   0 -26   9    5.52    9.13
   0 -26  -9   18.66   11.81
   0  26   9    1.72   10.72
   0  26  -9   11.76    8.20
   2 -26   9   48.19   10.87
   2  26   9   71.44   14.76
  -2  26  -9   49.29   10.39
  -1 -27   9    4.84    9.45
  -1 -27   9   11.33   10.31
   1  27  -9    5.68    8.49
  -1  27   9   25.97   12.66
   8   0 -10   10.12    6.77
  -8   0  10  -15.43   14.84
  -8   0  10   12.86    8.93
   6   0 -10   74.23    7.68
  -6   0  10   59.54   17.27
  -6   0  10   79.33    8.80
  -4   0  10  597.95   25.56
   4   0 -10  653.96   26.15
  -4   0  10  638.55   25.50
  -4   0  10  628.68   36.11
  -4   0  10  602.68   25.53
   2   0 -10  543.86   22.27
  -2   0  10  531.99   22.17
  -2   0  10  538.78   22.29
   2   0 -10  542.00   22.29
   0   0 -10 1213.06   47.51
   0   0  10 1209.57   47.70
   0   0 -10 1263.70   51.94
   0   0 -10 1179.47   54.53
  -4   0 -10  539.51   24.65
  -6   0 -10    6.04    7.90
  -8   0 -10   75.65   13.14
  -9  -1  10    8.75   10.46
   9  -1 -10   12.32    7.54
  -9  -1  10  -10.60   15.45
  -9   1  10  -15.29   15.37
  -9   1  10   10.95    9.43
  -7  -1  10   -6.42   16.35
  -7  -1  10   20.64    7.92
   7  -1 -10   21.75    6.67
  -7   1  10   -2.47   14.29
  -7   1  10   25.79    7.94
   7   1 -10   23.49    6.52
   3  -1 -10   15.42    4.35
  -3  -1  10   19.26    4.01
   3  -1 -10   17.15    4.33
  -3  -1  10   17.69    4.25
  -3  -1  10   18.78    3.29
  -3   1  10  -35.55   27.35
  -3   1  10   19.08    4.26
  -3   1  10   19.28    3.53
   3   1 -10   22.43    4.45
   3   1 -10   14.43    4.12
  -3   1  10   34.40   10.00
  -3   1  10   22.93    4.11
   1  -1 -10   40.47    9.21
   1  -1 -10   52.97    4.58
   1  -1 -10   47.40    4.56
  -1  -1  10   53.53    4.77
   1  -1 -10   50.86    4.28
  -1  -1  10   40.77    4.30
  -1   1  10   44.78    4.30
   1   1 -10   43.83    4.41
  -1   1  10   44.90    4.58
   1   1 -10   48.79    4.14
   1   1 -10   53.77    4.78
   1   1 -10   35.20    8.73
  -3  -1 -10   82.53    8.28
  -5  -1 -10   26.13    7.64
  -5   1 -10   34.90    7.91
  -7  -1 -10   35.31   10.52
  -7   1 -10   20.59    9.57
  -8  -2  10  -27.34   17.15
  -8  -2  10   24.40    9.45
   8  -2 -10   22.45    7.52
   8   2 -10   10.00    6.50
  -8   2  10   40.28   10.05
  -8   2  10   -7.12   15.45
  -6  -2  10  133.75   20.96
  -6  -2  10  105.62   33.80
   6  -2 -10  155.16   10.91
  -6  -2  10  165.15   11.82
  -6   2  10  169.25   11.68
  -6   2  10  178.49   24.21
   6   2 -10  151.53   10.62
  -4  -2  10  230.32   11.36
  -4  -2  10  245.51   11.67
  -4  -2  10  246.81   11.81
   4  -2 -10  252.08   12.17
  -4  -2  10  276.18   23.54
  -4   2  10  241.35   11.66
  -4   2  10  236.78   22.51
  -4   2  10  164.97   38.43
   4   2 -10  247.39   12.11
  -4   2  10  238.10   11.71
  -4   2  10  255.69   11.35
   2  -2 -10  198.69   10.02
  -2  -2  10  200.29   10.10
   2  -2 -10  195.45   10.05
  -2  -2  10  201.98    9.97
   2   2 -10  194.33   10.16
  -2   2  10  194.62    9.93
  -2   2  10  201.03   10.13
  -2   2  10  250.19   18.47
   2   2 -10  208.89   10.13
   0  -2  10   24.48    3.93
   0  -2 -10   30.08    3.73
   0  -2 -10   21.78    3.04
   0  -2 -10   24.66    7.38
   0   2 -10    7.57    7.55
   0   2 -10   21.03    3.31
   0   2  10   24.12    3.81
   0   2 -10   18.15    3.67
  -2  -2 -10  823.26   34.02
  -4  -2 -10   44.68    7.31
  -6  -2 -10  105.96   11.82
  -6   2 -10  105.88   11.34
  -8  -2 -10   43.30   11.69
  -8   2 -10    7.22    9.94
  -9  -3  10   23.77   10.64
   9  -3 -10   23.68    8.53
   9   3 -10   27.29    7.38
  -9   3  10    8.67   15.37
  -7  -3  10  118.69   22.06
   7  -3 -10  136.31   11.08
  -7  -3  10  156.87   14.21
  -7   3  10   97.96   18.53
  -7   3  10  192.09   13.75
   7   3 -10  148.55   10.31
  -3  -3  10  129.96    7.59
  -3  -3  10  129.62    7.26
  -3  -3  10   89.11   17.93
  -3  -3  10  126.18    7.69
   3  -3 -10  124.28    7.92
   3  -3 -10  121.35    7.80
  -3  -3  10  109.25   16.46
  -3   3  10  129.60    7.61
   3   3 -10  133.72    8.14
  -3   3  10  127.19   15.23
  -3   3  10  132.50    7.74
   3   3 -10  118.82    7.83
  -3   3  10  137.27    7.12
  -1  -3  10  215.53   10.33
  -1  -3  10  212.01   10.09
   1  -3 -10  205.69   17.90
   1  -3 -10  216.23   10.13
   1  -3 -10  206.12   10.06
   1  -3 -10  206.60    9.86
   1   3 -10  226.55   10.10
  -1   3  10  216.06   10.04
  -1   3  10  206.81   10.27
   1   3 -10  204.23   15.52
   1   3 -10  207.39    9.93
  -1   3 -10  554.41   26.73
  -3  -3 -10  248.74   13.52
  -5  -3 -10   34.24    7.68
  -7  -3 -10    8.00    8.52
  -7   3 -10    3.75    8.30
   8  -4 -10   34.10    8.20
  -8  -4  10   15.03    8.83
  -8  -4  10  -36.05   19.55
  -8   4  10   10.66   15.08
   8   4 -10   32.42    7.07
   4  -4 -10  219.92   11.93
  -4  -4  10  226.65   11.40
   4  -4 -10  231.49   11.78
  -4  -4  10  230.79   10.96
  -4  -4  10  240.87   11.61
  -4  -4  10  239.35   20.75
  -4   4  10  229.02   11.26
  -4   4  10  229.66   11.37
   4   4 -10  222.45   11.72
  -4   4  10  239.48   10.88
  -4   4  10  221.94   21.77
   2  -4 -10  187.11   15.55
  -2  -4  10  181.20    9.47
   2  -4 -10  181.68    9.58
  -2  -4  10  191.17   16.91
  -2  -4  10  177.74    9.49
   2  -4 -10  190.94    9.53
  -2   4  10  182.82    9.45
  -2   4  10  194.90    9.65
  -2   4  10  197.92   18.15
   2   4 -10  167.83    9.44
   0  -4 -10  159.01    8.14
   0  -4 -10  161.44   18.08
   0  -4  10  161.61    8.58
   0  -4 -10  173.41    8.10
   0   4 -10  159.28    8.17
   0   4  10  156.27    8.53
   0   4 -10  161.07   14.79
   0   4 -10  163.29    8.10
  -2  -4 -10  199.13   11.27
  -4  -4 -10   11.28    6.01
  -6  -4 -10    4.94    7.85
  -8  -4 -10   23.46   12.16
   9  -5 -10   10.16    8.36
  -9  -5  10   28.03   11.10
  -9   5  10   10.45   16.05
   9   5 -10    9.00    6.95
   7  -5 -10   43.40    7.50
  -7  -5  10    8.37   15.83
  -7  -5  10   28.82    8.48
   7   5 -10   29.07    6.57
  -7   5  10   18.75   14.04
  -3  -5  10  178.49   21.59
  -1  -5  10   53.11    4.81
   1  -5 -10   45.25    8.53
   1  -5 -10   49.08    4.35
   1  -5 -10   42.45    4.66
   1  -5 -10   40.70    4.48
  -1  -5  10   49.46    4.52
   1  -5 -10   53.40   10.06
   1   5 -10   50.72    4.33
  -1   5  10   44.03    4.89
  -1   5  10   36.41    4.54
   1   5 -10   45.44    8.65
   1   5 -10   48.51    4.88
  -1  -5 -10  316.07   14.09
  -1  -5 -10  250.63   18.85
  -1   5 -10  324.56   18.97
  -3  -5 -10    0.66    5.12
  -5  -5 -10   40.45    8.34
  -7  -5 -10   11.12    8.95
  -8  -6  10   27.63    9.46
   8  -6 -10   23.85    7.67
  -8  -6  10  -20.55   17.77
  -8   6  10    3.74   15.50
   8   6 -10   14.74    6.38
  -4  -6  10   19.81    3.87
   4  -6 -10   23.01    5.21
  -4  -6  10   51.37   18.00
  -4  -6  10   26.25    9.73
   4  -6 -10   18.28    4.95
  -4  -6  10   26.45    4.64
  -4  -6  10   24.80    4.66
  -4   6  10   24.42    4.81
  -4   6  10   21.31    4.73
  -4   6  10   13.21   10.30
   4   6 -10   22.12    4.94
  -4   6  10   18.67    3.80
  -2  -6  10  128.14   14.80
  -2  -6  10  116.86    7.52
   2  -6 -10  115.37    7.77
   2  -6 -10  129.55    7.69
  -2  -6  10  115.77    7.58
   2  -6 -10  105.98   13.26
  -2   6  10  109.26   15.81
  -2   6  10  117.55    7.52
   2   6 -10  123.99    7.80
  -2   6  10  118.68    7.76
   0  -6 -10  311.04   14.30
   0  -6 -10  342.03   20.27
   0  -6 -10  302.60   14.29
   0  -6  10  334.86   15.31
   0  -6  10  332.35   14.62
   0   6 -10  384.13   20.93
   0   6 -10  339.91   14.48
   0   6 -10  327.66   14.22
   0   6  10  325.58   14.66
  -2  -6 -10  224.71   12.14
  -4  -6 -10   43.28    7.53
  -6  -6 -10  -11.39    8.28
  -8  -6 -10   49.51   13.76
  -9  -7  10   19.95   11.06
   9  -7 -10    2.97    7.76
  -9   7  10  -29.61   16.32
   9   7 -10   19.52    7.36
  -7  -7  10   27.41    9.01
   7  -7 -10   24.70    7.10
  -7  -7  10   20.70   14.25
   7   7 -10   28.35    6.57
  -7   7  10    9.12   14.23
  -1  -7  10  126.54    7.84
   1  -7 -10  124.52    7.73
  -1  -7  10  126.60    7.83
   1  -7 -10  126.88   14.07
   1  -7 -10  140.66   18.70
   1  -7 -10  135.06    7.79
   1  -7 -10  125.13    7.67
  -1   7  10  129.67    8.08
   1   7 -10  131.85    7.84
   1   7 -10  117.30   15.74
  -1   7  10  126.52    7.88
   1   7 -10  126.48    9.01
  -1  -7 -10   51.20    5.69
   1  -7  10   54.21    4.99
  -1  -7 -10   52.83    8.70
  -1  -7 -10   48.40    8.63
   1   7  10   46.80    4.93
  -1   7 -10   50.43    9.06
  -1   7 -10   65.39   12.47
  -3  -7 -10   63.78    7.39
  -5  -7 -10   25.21    8.19
  -7  -7 -10    0.11    8.54
  -8  -8  10    1.29   17.18
   8  -8 -10   14.80    7.78
  -8  -8  10   33.97   10.72
   8   8 -10   24.85    7.04
  -8   8  10   -7.14   16.02
  -6  -8  10   63.23   25.62
   6  -8 -10  106.87    9.59
  -6  -8  10   96.55   16.30
   6   8 -10   95.31    8.45
  -6   8  10   85.52   17.13
  -4  -8  10  119.03   18.91
  -4  -8  10  102.16    8.52
  -4  -8  10  139.97   24.52
   4  -8 -10  102.25    8.71
   4  -8 -10  111.65    8.60
  -4  -8  10   94.70    7.60
   4   8 -10  103.52    8.04
  -4   8  10  114.62   19.38
  -4   8  10  100.97    7.27
  -4   8  10  101.01    8.10
  -4   8  10  104.44   14.50
  -4   8  10   97.26    7.89
  -2  -8  10   98.49   14.56
   2  -8 -10   87.11    7.12
  -2  -8  10   94.52    7.18
  -2  -8  10   88.52    7.12
   2  -8 -10   84.08   13.47
   2  -8 -10   86.82    7.22
   2   8 -10   91.77    7.24
  -2   8  10   98.13    7.34
  -2   8  10  107.63   12.40
  -2   8  10   92.46    7.40
   0  -8  10 1301.28   51.37
   0  -8  10 1347.74   51.31
   0  -8 -10 1247.10   51.03
   0  -8 -10 1204.78   50.94
   0  -8 -10 1322.68   56.61
   0  -8 -10 1331.17   56.29
   0   8 -10 1300.45   56.92
   0   8 -10 1337.25   51.28
   0   8  10 1298.76   51.40
   0   8 -10 1281.58   51.01
  -2  -8 -10  257.78   14.07
  -2   8 -10  272.31   19.42
  -2   8 -10  317.83   21.81
  -4  -8 -10  106.78   10.52
  -6  -8 -10    9.01    8.20
  -8  -8 -10    6.60    9.66
  -7  -9  10   14.77    8.74
  -7  -9  10    4.18   13.77
   7  -9 -10   20.99    7.47
   7   9 -10   12.67    6.00
  -7   9  10   16.91   13.68
  -3  -9  10   21.52    4.91
   3  -9 -10   26.74    5.34
  -3  -9  10   17.43    4.89
   3  -9 -10   25.12    5.07
  -3  -9  10   23.95    4.03
  -3  -9  10   22.62    9.68
   3   9 -10   20.45    5.04
  -3   9  10   24.63    4.94
  -3   9  10   28.79    5.20
  -3   9  10   14.10    8.73
  -3   9  10   17.96    7.42
  -3   9  10   24.58    3.95
   1  -9 -10  150.18    8.87
  -1  -9  10  160.72    8.79
  -1  -9  10  157.09    8.85
   1  -9 -10  155.81    8.65
   1  -9 -10  160.42   16.00
   1  -9 -10  159.52    8.81
   1  -9 -10  147.70   16.16
  -1   9  10  154.19    9.22
  -1   9  10  162.42    8.82
   1   9 -10  151.66    8.89
   1   9 -10  103.26   18.51
   1  -9  10   35.93    4.97
  -1  -9 -10   26.29    8.58
  -1  -9 -10   35.85    8.66
  -1  -9 -10   37.28    5.39
  -1   9 -10   40.85    4.10
  -1   9 -10   30.41    8.65
   1   9  10   38.54    4.97
  -1   9 -10   28.21   12.86
  -3  -9 -10   18.71    6.33
  -5  -9 -10    3.20    7.57
  -7  -9 -10   13.32    9.37
  -8 -10  10   36.30   17.57
  -8 -10  10   39.64   11.30
   8 -10 -10   30.38    8.76
   8  10 -10   21.71    6.73
   6 -10 -10    0.34    6.44
  -6 -10  10    0.36   12.56
  -6  10  10   31.51   11.38
   6  10 -10    8.29    5.38
  -4 -10  10  183.04   10.90
  -4 -10  10  218.79   12.40
   4 -10 -10  207.36   12.08
  -4 -10  10  229.47   37.32
  -4 -10  10  207.19   12.04
   4 -10 -10  210.58   12.44
  -4 -10  10  218.85   23.86
  -4  10  10  214.30   11.47
  -4  10  10  204.31   19.22
  -4  10  10  187.21   11.48
   4  10 -10  202.68   11.97
  -4  10  10  226.59   11.04
  -2 -10  10    4.95    8.56
   2 -10 -10    5.98    4.71
  -2 -10  10    2.76    4.43
   2 -10 -10    6.19    8.37
   2 -10 -10    3.60    4.45
  -2 -10  10   12.34    4.63
  -2  10  10    3.21    4.86
  -2  10  10   16.30    4.59
  -2  10  10    7.16    6.59
   2  10 -10    9.72    4.66
   0 -10 -10   86.68   14.70
   0 -10 -10   76.15    6.56
   0 -10  10   82.71    6.92
   0 -10  10  100.46    7.24
   0 -10 -10   83.10    6.89
   0 -10 -10  109.08   14.32
   0  10 -10   88.97    6.88
   0  10  10   94.19    7.41
   0  10 -10   67.62   16.87
   0  10 -10   90.06    6.30
   0  10 -10   75.49   13.68
   0  10  10   80.82    7.19
  -2 -10 -10   35.25   10.08
  -2 -10 -10   26.69    5.73
  -2 -10 -10   27.73    9.02
   2 -10  10   29.69    5.37
  -2  10 -10   24.88    9.36
  -2  10 -10   34.59   12.53
  -4 -10 -10  166.16   12.96
  -6 -10 -10   59.42   11.47
  -7 -11  10   20.89   14.56
   7 -11 -10   15.95    7.92
  -7 -11  10   15.81    8.87
  -7  11  10   36.02   12.79
   7  11 -10   14.23    6.48
   5 -11 -10   88.16    8.60
  -5 -11  10   58.66   15.50
  -5 -11  10   71.82    6.43
  -5 -11  10   77.68    8.14
   5  11 -10   82.92    7.98
  -5  11  10  112.33   18.48
  -5  11  10   86.68    7.42
  -5  11  10   78.38    7.08
  -3 -11  10    0.22    3.21
  -3 -11  10    9.44    5.00
  -3 -11  10    0.09    9.29
   3 -11 -10    3.23    4.95
  -3 -11  10    8.91    4.81
   3 -11 -10   10.34    5.24
  -3  11  10    5.87    3.65
  -3  11  10    0.93    8.98
  -3  11  10   13.08    8.34
   3  11 -10    6.80    5.17
  -3  11  10    1.18    5.20
  -3  11  10   -0.28    5.09
   1 -11 -10    3.55    8.75
  -1 -11  10   10.01    4.22
  -1 -11  10   13.77    4.68
   1 -11 -10   10.59    4.64
   1 -11 -10    4.47    4.58
   1  11 -10    3.28    4.53
  -1  11  10    2.96    4.04
  -1  11  10    9.86    5.08
  -1 -11 -10   28.34    9.22
  -1 -11 -10   31.46    4.57
   1 -11  10   34.30    5.33
  -1 -11 -10   25.85    9.74
  -1 -11 -10   25.59    5.27
  -1  11 -10   32.02    4.37
  -1  11 -10   26.65    9.42
   1  11  10   22.40    5.57
  -1  11 -10   25.48   15.54
  -1  11 -10   25.79    4.26
  -3 -11 -10  120.29   18.47
  -3 -11 -10   92.10   10.04
  -3  11 -10  126.40   21.52
  -3  11 -10  141.34   18.95
  -5 -11 -10   26.15    8.75
  -7 -11 -10    9.90   11.94
  -8 -12  10   27.74    9.88
  -8 -12  10   14.13   18.14
   8 -12 -10   32.64    8.90
   8  12 -10   15.63    7.06
  -8  12  10   45.23   13.48
   6 -12 -10   50.43    8.31
  -6 -12  10   44.47   16.06
  -6  12  10   48.79   13.87
   6  12 -10   47.51    7.19
  -4 -12  10    7.54    6.04
  -4 -12  10   11.35    4.16
   4 -12 -10    7.08    5.88
  -4 -12  10   14.37    6.02
  -4 -12  10    6.57   11.84
   4  12 -10   15.54    5.69
  -4  12  10   14.73    4.48
  -4  12  10    7.30    5.63
  -4  12  10   16.73    9.56
  -4  12  10    9.50    5.61
   2 -12 -10   44.50   10.89
   2 -12 -10   59.04    6.22
  -2 -12  10   33.12   10.70
   2 -12 -10   48.77    6.32
  -2 -12  10   49.00    6.31
  -2 -12  10   40.22    5.61
  -2  12  10   49.10    6.37
   2  12 -10   42.96    6.17
  -2  12  10   43.05    5.91
  -2  12  10   38.84    9.15
   0 -12 -10  108.84    8.03
   0 -12 -10  116.29   17.22
   0 -12 -10  114.64   16.80
   0 -12  10  124.69    8.47
   0 -12  10  122.85    8.49
   0 -12 -10  105.60    8.34
   0  12  10  106.44    8.91
   0  12  10  121.44    8.47
   0  12 -10  113.57    7.60
   0  12 -10   80.14   22.04
   0  12 -10  113.06    8.20
   0  12 -10  111.98   16.38
  -2 -12 -10   72.01   13.24
   2 -12  10   94.85    7.99
  -2 -12 -10   78.84    7.88
  -2 -12 -10   63.60   11.72
   2  12  10   78.79    7.36
  -2  12 -10   71.07   16.36
  -2  12 -10   67.86   12.86
  -4 -12 -10  137.56   12.91
  -4  12 -10  140.76   20.07
  -6 -12 -10   22.47   10.18
   7 -13 -10   29.25    8.96
  -7 -13  10   50.93   10.55
  -7 -13  10   25.43   16.99
  -7  13  10   56.74   14.99
   7  13 -10   32.92    7.47
  -5 -13  10   29.98    5.35
  -5 -13  10   32.05   15.18
  -5 -13  10   34.81    7.26
   5 -13 -10   25.83    6.68
  -5  13  10   35.96   11.87
  -5  13  10   25.77    6.29
   5  13 -10   42.77    6.71
  -5  13  10   30.86    5.31
  -5  13  10   36.64    6.22
  -3 -13  10  352.71   29.54
  -3 -13  10  331.69   17.13
  -3 -13  10  360.95   17.11
   3 -13 -10  357.69   16.72
   3 -13 -10  366.74   17.18
  -3 -13  10  291.07   15.97
  -3  13  10  345.25   25.95
  -3  13  10  347.59   16.78
  -3  13  10  340.37   16.08
  -3  13  10  344.74   16.92
   3  13 -10  321.76   16.87
  -1 -13  10   20.74    5.06
   1 -13 -10   26.12    5.56
  -1 -13  10   19.83    5.39
   1 -13 -10   20.84    5.65
   1 -13 -10   22.51   10.32
  -1  13  10   13.83    4.86
  -1  13  10   17.98    6.09
   1  13 -10   27.62    5.53
   1 -13  10   21.88    5.41
  -1 -13 -10   21.31   10.93
   1 -13  10   28.49    5.50
  -1 -13 -10   25.35    5.23
  -1 -13 -10   21.76   10.42
  -1  13 -10   16.67    9.90
  -1  13 -10   20.01    4.30
   1  13  10   17.49    6.12
  -1  13 -10   22.57   17.95
  -1  13 -10   23.94    4.70
  -3 -13 -10   88.33   15.64
  -3 -13 -10   88.31    9.91
  -3 -13 -10   69.20   14.32
   3 -13  10   95.43    8.62
  -3  13 -10   80.70   16.54
  -3  13 -10   67.66   13.59
  -5 -13 -10    4.01    8.38
  -8 -14  10   10.93   10.04
   8 -14 -10   19.46    9.43
   8  14 -10   11.40    7.11
   6 -14 -10   12.26    7.22
  -6 -14  10   16.14   16.14
   6  14 -10   16.22    6.77
  -6  14  10   26.02   12.99
  -4 -14  10   51.71    7.68
  -4 -14  10   44.02    7.47
  -4 -14  10   41.43   15.10
  -4 -14  10   37.87    5.67
   4 -14 -10   53.64    7.63
   4  14 -10   47.16    7.02
  -4  14  10   47.33    6.92
  -4  14  10   59.03   12.65
  -4  14  10   54.00    7.29
  -2 -14  10    8.02   10.39
  -2 -14  10   21.31    5.95
   2 -14 -10   15.40    9.98
  -2 -14  10   19.54    5.60
   2 -14 -10   21.65    6.08
   2 -14 -10   12.28    6.01
   2  14 -10   11.35    5.75
  -2  14  10   12.43    9.11
  -2  14  10    9.21    6.07
  -2  14  10   19.87    5.69
   0 -14 -10   65.61    6.94
   0 -14 -10   56.37    6.85
   0 -14 -10   48.22   12.15
   0 -14 -10   57.21   12.51
   0 -14  10   63.29    6.89
   0 -14  10   56.97    6.67
   0  14  10   55.00    7.71
   0  14 -10   69.94    6.06
   0  14 -10   60.03    6.29
   0  14  10   45.35    6.51
   0  14 -10   48.69   23.59
   0  14 -10   56.09   11.79
  -2 -14 -10    1.95   10.07
   2 -14  10    3.71    5.23
  -2 -14 -10    5.34   11.55
  -2 -14 -10    6.31    6.44
  -2  14 -10    3.39   15.67
   2  14  10    6.34    5.92
  -2  14 -10    7.01   10.07
  -4 -14 -10    4.27   13.80
  -4 -14 -10   24.58   14.53
  -4 -14 -10    9.87    7.96
  -4  14 -10   -3.10   10.63
  -4  14 -10    2.35   14.31
  -6 -14 -10   36.41   11.95
   7 -15 -10    2.40    8.29
  -7 -15  10   14.83    9.38
   7  15 -10   17.58    7.18
   5 -15 -10   18.76    6.96
  -5 -15  10   13.90    5.25
  -5 -15  10   -1.56   13.98
  -5 -15  10   13.99    7.76
   5  15 -10   11.74    6.14
  -5  15  10   22.48    6.49
  -5  15  10   12.79    6.18
  -5  15  10   21.23   15.35
   3 -15 -10  175.76   11.79
   3 -15 -10  175.30   12.12
  -3 -15  10  189.61   12.89
  -3 -15  10  180.30   26.79
  -3 -15  10  182.11   12.61
  -3  15  10  169.10   11.93
  -3  15  10  167.10   11.83
   3  15 -10  175.35   11.96
  -3  15  10  182.48   21.85
   1 -15 -10   99.60    8.24
   1 -15 -10   83.87    8.10
  -1 -15  10   80.48    7.99
  -1 -15  10   79.08    7.55
   1 -15 -10   73.56   14.35
  -1  15  10   97.11    9.05
  -1  15  10   65.14    7.23
   1  15 -10   71.83    7.74
  -1 -15 -10  156.20   10.16
  -1 -15 -10  160.40   20.89
   1 -15  10  165.70   10.98
  -1 -15 -10  152.61   11.01
  -1 -15 -10  176.50   22.92
  -1  15 -10  108.41   22.79
  -1  15 -10  170.35   20.83
  -1  15 -10  178.18   10.55
  -1  15 -10  172.55   10.29
   1  15  10  179.90   12.12
  -3 -15 -10   22.10   13.72
  -3 -15 -10   34.90    8.24
  -3 -15 -10   31.16   14.30
   3 -15  10   36.29    7.14
  -3  15 -10   13.22   16.92
   3  15  10   43.22    7.15
  -3  15 -10   38.37   13.28
  -5 -15 -10   22.35   10.75
  -5 -15 -10   25.35   17.41
  -5  15 -10    2.00   17.40
  -5  15 -10   13.76   13.27
  -7 -15 -10   51.32   14.38
   6 -16 -10    4.17    7.18
  -6  16  10   11.80    6.42
   6  16 -10   17.15    6.93
  -4 -16  10   22.97    6.94
  -4 -16  10   15.38    6.78
   4 -16 -10   13.59    6.93
  -4 -16  10   11.61   14.98
  -4  16  10   15.18    6.62
  -4  16  10   21.01    6.76
   4  16 -10   19.35    6.89
  -2 -16  10    1.19    6.17
   2 -16 -10   -3.83    6.60
   2 -16 -10    5.85    6.58
  -2 -16  10   -2.28    5.96
  -2  16  10    6.81    6.70
  -2  16  10    8.10    6.41
   2  16 -10   12.14    6.59
   0 -16  10   -3.05    5.75
   0 -16 -10    1.73    6.40
   0 -16 -10   -4.52   10.73
   0 -16 -10   -2.44    5.78
   0 -16  10   -3.40    5.80
   0  16  10   -4.73    6.99
   0  16  10    7.05    7.40
   0  16 -10    5.67   23.33
   0  16 -10   -2.80    4.89
   0  16 -10    2.47    5.41
  -2 -16 -10   14.32   12.00
   2 -16  10    6.60    5.91
  -2 -16 -10    3.51   12.50
  -2 -16 -10   -5.35    6.66
  -2  16 -10  -15.43   17.23
  -2  16 -10    5.43    4.53
   2  16  10    4.38    7.14
  -4 -16 -10   33.14   16.57
  -4 -16 -10   34.55    9.26
  -4 -16 -10   40.59   17.45
   4 -16  10   38.56    8.10
  -4  16 -10   31.21   14.97
  -4  16 -10   12.90   16.76
  -6 -16 -10   78.05   15.05
  -6  16 -10   43.51   21.44
  -7 -17  10    6.18   10.90
   7 -17 -10   -1.33    9.22
   7  17 -10   -0.29    6.98
  -5 -17  10   60.76    9.67
   5 -17 -10   64.08    8.87
  -5  17  10   68.99    8.42
   5  17 -10   68.32    9.12
   3 -17 -10   96.78    9.74
  -3 -17  10  108.86    9.91
  -3 -17  10   88.02   10.14
  -3  17  10   91.86    9.28
  -3  17  10  104.63    9.72
   3  17 -10   99.30    9.73
  -1 -17  10   27.58    7.03
   1 -17 -10   48.60    7.89
  -1 -17  10   29.27    7.21
   1 -17 -10   47.69    7.87
  -1  17  10   43.62    7.94
  -1  17  10   48.35    8.59
   1  17 -10   42.64    7.15
  -1 -17 -10   16.42    6.95
   1 -17  10   10.65    6.55
  -1 -17 -10   18.33   13.90
   1  17  10   34.64    8.10
  -1  17 -10   20.34    5.62
  -1  17 -10   15.72    5.97
  -1  17 -10  -21.25   21.63
  -3 -17 -10   22.95    8.30
  -3 -17 -10   26.66   15.96
   3 -17  10   31.32    7.49
   3  17  10   31.75    7.80
  -3  17 -10   -1.72   17.96
  -5 -17 -10   36.37   11.70
   5 -17  10   32.25    9.03
  -5 -17 -10   30.97   19.96
  -5  17 -10   15.01   18.77
   6 -18 -10    1.48    7.55
  -6 -18  10    4.28    9.50
   6  18 -10   -0.19    7.20
  -4 -18  10   31.15    8.07
   4 -18 -10   30.28    8.36
  -4 -18  10   26.40    7.83
  -4  18  10   19.67    7.28
   4  18 -10   20.68    7.46
  -4  18  10   31.06    7.96
  -2 -18  10   15.60    7.34
   2 -18 -10   18.12    8.33
   2 -18 -10   11.69    7.19
  -2 -18  10   21.93    7.37
  -2  18  10   15.47    7.73
  -2  18  10   16.98    6.78
   2  18 -10   11.00    6.67
   0 -18  10    4.78    6.41
   0 -18 -10   21.24    7.05
   0 -18 -10   29.19    7.00
   0 -18 -10    5.83   11.88
   0  18 -10    4.03    6.03
   0  18  10   13.93    8.14
   2 -18  10   14.05    6.81
  -2 -18 -10    8.67    7.28
  -2 -18 -10   19.12   15.48
  -2  18 -10   18.30    6.06
  -2  18 -10   12.84    5.44
  -2  18 -10  -29.71   20.33
   2  18  10   11.42    7.97
   4 -18  10   40.49    8.43
  -4 -18 -10   39.53   10.45
  -4 -18 -10   28.59   17.06
   4  18  10   34.84    9.91
  -4  18 -10   17.95   20.17
  -6 -18 -10   25.53   12.70
  -6  18 -10  -23.07   20.13
  -5 -19  10   15.16    8.58
   5 -19 -10   22.22    8.66
   5  19 -10    8.10    7.64
  -5  19  10   13.34    7.69
  -3 -19  10  139.89   12.99
  -3 -19  10  157.79   13.69
   3 -19 -10  124.55   11.66
   3  19 -10  131.93   11.65
  -3  19  10  152.84   12.82
  -3  19  10  161.47   13.18
   1 -19 -10   49.23    8.53
  -1 -19  10   44.31    8.63
  -1 -19  10   48.59    8.17
   1 -19 -10   56.80    9.17
   1  19 -10   51.05    8.16
  -1  19  10   56.45    9.49
   1 -19  10   44.94    7.77
  -1 -19 -10   58.09    8.88
  -1 -19 -10   57.06   17.46
  -1 -19 -10   77.81    8.65
  -1  19 -10   52.23    7.26
   1  19  10   32.25   10.05
  -3 -19 -10   31.37    9.93
  -3 -19 -10   27.93   18.53
   3 -19  10   21.36    7.96
   3  19  10   30.71    8.78
   5 -19  10   46.66   10.34
  -5 -19 -10   33.98   19.69
  -5 -19 -10   38.75   12.16
  -5  19 -10   -3.57   20.76
  -6 -20  10   60.58   12.09
   6  20 -10   47.00    9.59
  -6  20  10   52.14    8.60
  -4 -20  10   17.44    8.25
   4 -20 -10   12.06    9.12
  -4  20  10   -8.84    7.61
   4  20 -10    9.21    7.72
  -4  20  10    2.57    7.79
  -2 -20  10  125.47   12.34
  -2 -20  10  130.06   12.13
   2 -20 -10  148.90   13.15
   2 -20 -10  129.64   11.71
  -2  20  10  130.69   11.32
  -2  20  10  140.16   12.99
   2  20 -10  116.06   11.07
   0 -20 -10   20.54    7.70
   0 -20 -10    7.16    8.37
   0 -20  10   14.23    7.36
   0  20 -10    9.60    6.54
   0  20  10   12.48    9.34
  -2 -20 -10   -8.93   15.12
   2 -20  10    4.30    7.65
   2  20  10   16.24    8.64
  -2  20 -10    4.08    6.17
  -4 -20 -10   35.73   21.83
  -4 -20 -10   40.06    9.97
   4 -20  10   23.79    9.08
  -4  20 -10  -19.61   22.16
   4  20  10   33.04    9.94
  -5 -21  10   32.24    9.78
  -5  21  10   17.08    8.24
   5  21 -10   28.05    8.63
  -3 -21  10   54.41   10.52
  -3 -21  10   56.99   10.54
   3 -21 -10   49.78    9.28
   3  21 -10   52.09    9.32
  -3  21  10   40.09    9.58
  -3  21  10   54.77   10.06
   1 -21 -10   22.54    9.24
  -1 -21  10   19.47    8.25
   1 -21 -10   28.15    8.08
   1  21 -10   11.36    7.18
  -1  21  10   13.94    8.88
   1 -21  10    7.41    7.49
  -1 -21 -10    9.86    8.53
  -1  21 -10   -1.13    6.04
   1  21  10    6.23   10.77
  -3 -21 -10   30.80   20.20
   3 -21  10   36.12    8.86
   3  21  10   56.12   11.10
  -5 -21 -10   13.93   20.68
   5 -21  10    4.88   10.66
  -5  21 -10  -42.93   21.43
   5  21  10    6.86    9.76
   4 -22 -10   68.66   11.57
  -4 -22  10   80.28   12.91
   4  22 -10   71.17   10.77
  -4  22  10   59.29   10.34
  -4  22  10   71.90   10.49
   2 -22 -10    3.10    7.76
  -2 -22  10    7.91    6.99
  -2 -22  10   10.27    9.34
  -2 -22  10    6.10    8.92
   2  22 -10    2.87    7.27
  -2  22  10    0.65    8.91
   0 -22 -10    3.87    9.55
   0 -22 -10    2.79    8.35
   0 -22  10   13.14    7.57
   0  22  10   -0.43   10.45
   0  22 -10    6.15    6.63
  -2 -22 -10   10.84    9.63
   2 -22  10   -1.41    7.46
  -2  22 -10   13.36    7.12
   2  22  10   17.00    9.40
  -4 -22 -10   -3.10    8.90
   4 -22  10    0.80    8.52
   4  22  10   10.44   11.00
  -5 -23  10   18.79   10.84
   5 -23 -10   17.28    9.76
   5  23 -10   20.52    9.43
  -5  23  10   10.13    8.88
  -3 -23  10    0.13    8.05
  -3 -23  10   23.75    9.80
  -3 -23  10   12.53    7.83
   3 -23 -10   13.77    9.07
   3  23 -10   15.08    8.66
  -3  23  10    1.48    8.70
  -3  23  10   10.95    9.29
   1 -23 -10    8.64    9.93
   1 -23 -10   23.44   10.46
  -1 -23  10   11.29    8.94
  -1 -23  10    1.16    7.92
  -1  23  10   11.61   10.87
   1  23 -10   14.72    7.55
   1 -23  10   12.21    8.13
  -1 -23 -10   28.31   10.64
  -1  23 -10   13.26    7.18
   1  23  10   22.16   10.84
  -3 -23 -10   20.52   10.10
   3 -23  10   41.95    9.59
   3  23  10   12.46   11.08
  -4 -24  10   17.96   10.55
   4 -24 -10   20.52    9.93
  -4  24  10   11.96    9.96
   4  24 -10   -3.96    8.60
  -2 -24  10   26.96    8.55
  -2 -24  10   33.41   10.05
   2  24 -10   24.27    8.76
  -2  24  10   27.33   10.85
   0 -24  10   33.44    9.98
   0 -24 -10   10.84   10.33
   0 -24  10   21.04    8.43
   0 -24 -10   33.80   11.08
   0  24 -10   17.43    7.41
   0  24  10   28.61   11.69
   2 -24  10   25.57    9.15
  -2  24 -10    5.17    7.33
   2  24  10   11.17   12.91
  -3 -25  10   28.13   10.81
   3  25 -10   11.09    9.42
  -3  25  10   19.00   10.85
  -1 -25  10   10.49    9.34
  -1 -25  10   -2.87    7.12
   1 -25 -10   12.78   11.19
  -1  25  10   19.31   11.49
   1  25 -10    3.53    7.76
   1 -25  10   22.79   10.16
  -1 -25 -10   25.13   10.74
   1  25  10   24.40   12.44
  -1  25 -10    9.62    7.93
   3 -25  10   16.59    9.24
   3  25  10   34.17   14.27
  -2 -26  10   46.69    9.98
   2 -26 -10   46.83   10.85
  -2  26  10   51.63   12.46
   2  26 -10   55.01    9.71
   0 -26  10    2.49    9.05
   0 -26 -10   27.59   11.72
   0 -26  10   23.37   10.54
   0  26 -10    3.86    7.81
   0  26  10   11.52   11.53
   2 -26  10    8.38    8.84
   2  26  10   45.13   13.92
  -1 -27  10   10.48    7.97
  -8   0  11    2.56    8.68
   8   0 -11    6.33    6.94
  -8   0  11  -17.20   15.06
   6   0 -11    1.18    5.95
  -6   0  11  -20.45   14.28
  -4   0  11    8.96    3.43
   4   0 -11    9.13    4.52
  -4   0  11   -4.54   12.59
  -4   0  11    5.24    3.94
  -4   0  11    6.62    4.14
   4   0 -11    3.69    4.43
   2   0 -11    1.80    3.88
  -2   0  11   -2.13    3.63
   2   0 -11    0.31    3.81
  -2   0  11    2.79    3.98
  -2   0  11    3.25    9.32
   0   0  11   -2.48    3.39
   0   0 -11    2.65    2.91
  -4   0 -11   11.99    6.22
  -6   0 -11    5.33    7.75
  -8   0 -11   -8.85   10.15
  -9  -1  11   -4.56    9.69
  -9  -1  11  -12.65   15.26
   9  -1 -11   11.23    7.91
   9   1 -11    6.85    7.20
  -9   1  11   13.14    9.77
  -9   1  11  -14.65   15.34
  -7  -1  11   92.51   10.74
   7  -1 -11   86.51    9.17
  -7   1  11   45.49   17.13
  -7   1  11   86.04   10.10
   7   1 -11   88.28    8.68
  -5  -1  11   50.03   16.13
   5  -1 -11   50.97    6.47
  -5  -1  11   46.17    5.60
  -5  -1  11   42.75   32.74
   5   1 -11   44.17    6.15
  -5   1  11   49.00   14.76
  -5   1  11   44.78    4.74
  -5   1  11   15.69   43.65
  -5   1  11   51.07    5.48
  -3  -1  11   90.55    6.84
   3  -1 -11   96.47    7.18
   3  -1 -11   97.49    7.12
  -3  -1  11   91.66    6.99
  -3  -1  11   92.07    6.29
  -3  -1  11   75.73   12.91
  -3   1  11  102.26    6.95
   3   1 -11   88.70    7.07
   3   1 -11   96.17    7.30
  -3   1  11  106.38    7.05
  -3   1  11  112.71   16.11
  -3   1  11   99.96    6.37
   1  -1 -11  428.22   25.89
   1   1 -11  341.43   23.72
  -3  -1 -11  233.14   13.08
  -5  -1 -11  117.02   11.99
  -5   1 -11  123.76   11.56
  -7  -1 -11   19.35    9.91
  -7   1 -11   18.77    9.82
  -8  -2  11  -31.44   17.43
  -8  -2  11    4.32    8.58
   8  -2 -11    8.39    7.26
   8   2 -11    7.30    6.48
  -8   2  11   19.49    8.78
  -8   2  11  -17.36   15.25
   6  -2 -11  109.80    8.88
  -6  -2  11   45.97   35.43
  -6  -2  11   59.37   19.40
  -6   2  11   76.93   16.49
  -6   2  11  117.09   10.12
   6   2 -11  106.74    9.09
  -4  -2  11   27.88   13.50
   4  -2 -11   45.78    5.54
   4  -2 -11   46.28    5.80
  -4  -2  11   48.36    5.19
  -4  -2  11   48.47    5.17
  -4  -2  11   44.58    4.37
  -4   2  11   49.60    5.40
  -4   2  11   44.80   12.35
   4   2 -11   51.03    5.73
  -4   2  11   55.63    5.26
  -4   2  11   47.25    4.48
   4   2 -11   41.03    5.47
  -2  -2  11  162.51   20.88
   0  -2 -11  350.99   24.33
   0  -2 -11  394.19   16.14
   0  -2  11  406.96   16.56
   0  -2 -11  398.80   16.29
   0   2 -11  399.62   16.30
   0   2 -11  386.49   16.13
   0   2  11  379.25   16.45
  -4  -2 -11   36.63    7.31
  -6  -2 -11   24.56    9.47
  -6   2 -11   16.56    8.43
  -8  -2 -11   31.52   12.27
  -8   2 -11   33.11   11.25
   9  -3 -11    4.83    8.12
  -9  -3  11   15.52   10.76
   9   3 -11    0.98    6.70
  -9   3  11    6.10   15.30
  -9   3  11   11.10    8.92
  -7  -3  11   68.01   21.58
  -7  -3  11  110.33   12.00
   7  -3 -11  114.94    9.88
   7   3 -11  110.47    9.57
  -7   3  11  131.75   12.02
  -7   3  11   78.43   17.62
  -5  -3  11    3.66    4.65
  -5  -3  11    1.94    3.71
  -5  -3  11   -9.74   13.31
   5  -3 -11    2.65    5.13
  -5   3  11    3.72    3.52
  -5   3  11    1.18   11.93
  -5   3  11    1.62    4.48
   5   3 -11    2.41    4.74
  -3  -3  11   11.63    3.92
  -3  -3  11   12.70    4.23
  -3  -3  11   -4.14    9.28
   3  -3 -11   13.41    4.26
   3  -3 -11    7.84    4.26
  -3  -3  11   12.24    3.38
  -3   3  11    8.92    3.20
  -3   3  11   13.18    4.04
  -3   3  11   15.43    8.11
   3   3 -11   10.71    4.30
  -3   3  11   10.24    4.30
   3   3 -11   19.38    4.50
   1  -3 -11  430.33   26.38
   1  -3 -11  399.40   17.69
   1  -3 -11  411.88   17.69
   1  -3 -11  417.79   17.57
  -1  -3  11  421.21   17.83
  -1  -3  11  419.25   17.76
  -1   3  11  412.15   17.84
   1   3 -11  411.79   17.56
  -1   3  11  412.76   17.72
   1   3 -11  447.32   23.74
   1   3 -11  430.72   17.75
  -1   3 -11  249.92   17.50
  -3  -3 -11   94.44    8.86
  -5  -3 -11   13.25    7.83
  -7  -3 -11   41.51   10.31
   8  -4 -11    5.73    7.62
  -8  -4  11   18.08    9.05
   8   4 -11   14.08    6.40
  -8   4  11   -4.13   14.67
  -4  -4  11   39.13   21.11
   2  -4 -11  231.96   11.15
  -2  -4  11  216.47   11.10
   2  -4 -11  220.88   17.04
   2  -4 -11  210.69   11.02
  -2  -4  11  279.69   20.52
  -2  -4  11  222.08   10.95
  -2   4  11  208.74   10.97
   2   4 -11  225.76   11.08
  -2   4  11  223.70   11.19
  -2   4  11  245.04   19.76
   0  -4 -11  334.05   14.24
   0  -4 -11  334.54   23.40
   0  -4 -11  328.48   14.24
   0  -4  11  331.96   14.61
   0   4  11  330.64   14.56
   0   4 -11  321.25   14.10
   0   4 -11  333.72   14.33
   0   4 -11  341.29   20.56
  -2  -4 -11  108.09    8.62
  -4  -4 -11  161.98   12.15
  -6  -4 -11   60.33    9.94
  -8  -4 -11   -1.29    9.92
   9  -5 -11   46.21    9.73
  -9  -5  11   54.25   13.23
  -9   5  11    5.20   16.65
   9   5 -11   36.53    7.82
   7  -5 -11    7.24    6.56
  -7  -5  11  -23.92   15.17
  -7  -5  11    2.82    7.71
   7   5 -11    4.56    6.05
  -7   5  11    4.86   13.32
   3  -5 -11  136.36    8.41
  -3  -5  11  134.31    8.41
   3  -5 -11  130.87    8.51
  -3  -5  11  121.57   21.20
  -3  -5  11  128.47   16.02
  -3  -5  11  138.15    7.75
  -3  -5  11  137.99    8.36
  -3   5  11  135.59    7.54
  -3   5  11  122.46   16.01
   3   5 -11  127.47    8.40
  -3   5  11  139.04    8.44
  -3   5  11  137.20    8.28
   1  -5 -11  313.76   13.82
   1  -5 -11  305.10   13.64
  -1  -5  11  302.98   13.94
   1  -5 -11  323.69   20.00
   1  -5 -11  307.11   13.80
  -1  -5  11  308.62   13.81
   1  -5 -11  309.26   23.15
  -1   5  11  297.50   13.97
   1   5 -11  302.07   20.29
   1   5 -11  307.13   13.86
   1   5 -11  303.67   13.61
  -1   5  11  313.84   13.91
  -1  -5 -11  170.37   15.76
  -1   5 -11  194.43   15.94
  -3  -5 -11   51.13    7.04
  -5  -5 -11   61.20    8.56
  -7  -5 -11   19.28    9.18
  -8  -6  11  -12.81   19.51
  -8  -6  11   34.36    9.68
   8  -6 -11   45.61    8.31
   8   6 -11   37.55    7.09
  -8   6  11   12.64   16.61
  -4  -6  11  193.87   19.99
   4  -6 -11  183.37   10.85
  -4  -6  11  193.32    9.97
   4  -6 -11  196.97   10.92
  -4  -6  11  187.83   10.74
  -4  -6  11  149.67   22.05
  -4  -6  11  184.51   10.55
  -4   6  11  187.67   10.45
  -4   6  11  203.31   21.64
  -4   6  11  194.70   10.52
   4   6 -11  191.25   10.84
  -4   6  11  210.68    9.91
  -2  -6  11   61.38    5.52
  -2  -6  11   52.89    5.29
   2  -6 -11   48.91    9.17
   2  -6 -11   63.98    5.57
  -2  -6  11   48.29    9.01
   2  -6 -11   56.79    5.53
  -2   6  11   62.24    5.82
  -2   6  11   84.90   12.11
   2   6 -11   44.92   18.27
   2   6 -11   64.38    5.77
  -2   6  11   58.50    5.38
   0  -6 -11  118.28   13.74
   0  -6 -11   95.39    6.83
   0  -6  11  108.28    7.11
   0  -6 -11  101.25    6.58
   0  -6 -11  103.53   17.83
   0   6  11  110.50    7.36
   0   6 -11  106.90    6.85
   0   6 -11  100.13    6.69
   0   6 -11  133.04   14.75
  -2  -6 -11  180.36   10.95
  -4  -6 -11    8.05    6.64
  -6  -6 -11   31.57    8.93
  -8  -6 -11   26.80   10.97
   9  -7 -11   12.99    9.18
  -9  -7  11   19.19   11.28
  -7  -7  11   62.17   10.17
  -7  -7  11   17.90   15.04
   7  -7 -11   48.09    8.04
   7   7 -11   49.10    7.26
  -7   7  11   28.93   15.48
  -1  -7  11   51.37    5.04
   1  -7 -11   47.11    4.97
   1  -7 -11   54.20    5.28
  -1  -7  11   57.12    5.35
   1  -7 -11   40.14    9.06
   1  -7 -11   45.93    4.70
   1   7 -11   45.90    9.55
  -1   7  11   44.91    5.48
  -1   7  11   41.58    4.85
   1   7 -11   51.71    5.17
   1   7 -11   44.85    4.48
   1   7 -11   18.12   13.33
  -1  -7 -11  525.85   27.10
  -1  -7 -11  500.39   22.06
  -1  -7 -11  502.86   26.36
   1  -7  11  531.19   21.41
  -1   7 -11  520.08   27.60
  -1   7 -11  479.94   30.83
  -3  -7 -11  119.77    9.76
  -5  -7 -11   14.17    7.69
  -7  -7 -11   23.82    9.69
  -8  -8  11   18.50    9.41
   8  -8 -11   14.53    8.03
  -8  -8  11   -7.29   18.03
  -8   8  11  -13.06   15.88
   8   8 -11   13.53    6.65
  -6  -8  11   52.16   15.22
   6  -8 -11   65.07    8.17
   6   8 -11   57.43    7.28
  -6   8  11   33.07   15.33
  -4  -8  11  133.43    9.20
   4  -8 -11  135.50    9.91
  -4  -8  11  117.28   19.54
   4  -8 -11  131.47    9.45
  -4  -8  11  128.93    9.64
  -4  -8  11  198.07   33.50
  -4  -8  11  126.73    8.38
   4   8 -11  126.71    8.96
  -4   8  11  130.17   19.88
  -4   8  11  132.63    9.12
  -4   8  11  127.97    8.00
  -4   8  11  125.57    8.89
  -2  -8  11   84.02   14.53
   2  -8 -11   83.15    7.47
  -2  -8  11   91.67    7.21
   2  -8 -11   87.17    7.21
  -2  -8  11   92.52    7.24
   2  -8 -11   86.76   14.01
  -2   8  11   86.58    7.35
   2   8 -11   85.64    7.25
  -2   8  11  116.48   12.43
  -2   8  11   94.93    7.56
   0  -8 -11    4.21    7.59
   0  -8 -11    8.56    4.00
   0  -8 -11   16.68    7.44
   0  -8 -11   -0.80    3.80
   0  -8  11    0.72    4.08
   0  -8  11   -0.11    3.72
   0   8 -11    9.96    3.99
   0   8  11    0.15    4.32
   0   8 -11    1.75   13.44
   0   8 -11    2.54    7.53
   0   8 -11   -1.22    3.28
  -2  -8 -11  219.25   12.37
  -2   8 -11  225.59   18.32
  -4  -8 -11   90.38   10.04
  -6  -8 -11   39.04    9.55
  -8  -8 -11   17.75   13.60
   7  -9 -11   39.18    8.33
  -7  -9  11   38.66   16.45
  -7  -9  11   46.91   10.23
  -7   9  11   40.11   15.10
   7   9 -11   45.28    7.26
   5  -9 -11   13.61    6.12
  -5  -9  11   -2.56   24.36
  -5  -9  11   18.58    6.18
  -5  -9  11   17.15    4.43
  -5  -9  11   18.38   11.92
  -5   9  11   24.02    5.63
  -5   9  11   17.82    5.48
   5   9 -11   21.68    5.49
  -5   9  11   23.34    4.66
  -5   9  11   29.06   11.58
  -3  -9  11   31.01   10.42
  -3  -9  11   -4.29   19.86
   3  -9 -11   43.13    6.05
  -3  -9  11   33.63    4.50
  -3  -9  11   49.03    5.73
   3  -9 -11   54.27    6.30
  -3  -9  11   49.21    5.67
  -3   9  11   43.68    4.62
   3   9 -11   41.89    5.85
  -3   9  11   38.43    5.49
  -3   9  11   31.88    8.98
  -3   9  11   49.66    5.97
   1  -9 -11   41.15    5.11
   1  -9 -11   38.64    4.61
   1  -9 -11   27.34   10.13
   1  -9 -11   29.69    9.11
  -1  -9  11   41.95    5.35
   1  -9 -11   39.37    5.15
  -1  -9  11   27.72    4.70
   1   9 -11   47.69    5.26
   1   9 -11   34.29    4.67
  -1   9  11   29.63    4.74
   1   9 -11   23.00   12.69
  -1   9  11   40.49    5.53
  -1  -9 -11   62.92   10.53
  -1  -9 -11   73.93   10.83
  -1  -9 -11   80.70    7.29
   1  -9  11   81.96    6.96
   1   9  11   88.16    7.24
  -1   9 -11   85.48    5.96
  -1   9 -11   77.08   13.80
  -3  -9 -11   20.11    6.73
  -5  -9 -11   33.88    8.92
  -7  -9 -11   39.79   10.59
  -8 -10  11   31.37   11.11
  -8 -10  11   32.18   18.96
   8 -10 -11   65.21   10.28
  -8  10  11   62.50   13.87
   8  10 -11   40.29    7.53
  -6 -10  11   47.22   14.54
   6 -10 -11   35.26    7.30
  -6  10  11   52.16   13.15
   6  10 -11   39.85    6.61
   2 -10 -11   29.01    5.48
  -2 -10  11   28.34    9.75
   2 -10 -11   32.65    5.31
  -2 -10  11   28.53    5.02
   2 -10 -11   26.76    9.47
  -2 -10  11   28.14    5.13
  -2  10  11   31.91    5.00
   2  10 -11   30.45    5.33
  -2  10  11   40.29    5.85
   2  10 -11   37.47   17.86
  -2  10  11   20.44    7.69
   0 -10 -11  184.75   10.03
   0 -10 -11  200.65   18.03
   0 -10  11  206.33   10.43
   0 -10 -11  185.53   10.19
   0 -10 -11  217.57   18.39
   0 -10  11  188.86   10.43
   0  10  11  197.79   10.85
   0  10 -11  195.66    9.93
   0  10 -11  191.92   17.66
   0  10 -11  168.88   22.64
   0  10 -11  200.36   10.38
  -2 -10 -11   33.98    6.41
  -2 -10 -11   31.86    9.24
   2 -10  11   42.13    5.85
  -2 -10 -11   36.85   10.43
  -2  10 -11   29.75   10.10
  -4 -10 -11   15.84    7.60
  -6 -10 -11   59.60   10.50
   7 -11 -11   29.99    8.63
  -7 -11  11   13.51    9.36
  -7 -11  11   28.19   15.88
  -7  11  11   46.47   13.40
   7  11 -11   30.05    6.97
  -5 -11  11   10.73   12.43
   5 -11 -11   15.70    6.36
  -5 -11  11   11.36    4.28
  -5 -11  11   12.45    6.27
  -5  11  11    1.95    4.21
   5  11 -11    5.79    5.77
  -5  11  11    8.69    5.51
  -5  11  11   -5.32    5.23
  -5  11  11   22.99   10.33
   3 -11 -11   59.52    6.87
  -3 -11  11   47.52   12.80
  -3 -11  11   56.66    6.70
   3 -11 -11   61.50    6.94
  -3 -11  11   55.66    6.63
  -3 -11  11   41.22    4.90
  -3  11  11   68.37    6.61
  -3  11  11   58.87    6.86
  -3  11  11   49.80   10.31
   3  11 -11   52.01    6.47
  -3  11  11   56.36    5.39
  -1 -11  11   27.02    5.36
   1 -11 -11   28.47    5.28
  -1 -11  11   27.09    5.00
   1 -11 -11   22.42    9.64
   1 -11 -11   30.14   10.90
   1 -11 -11   28.23    5.13
  -1  11  11   19.37    4.83
   1  11 -11   35.60    5.37
  -1  11  11   21.94    5.70
   1 -11  11   18.09    5.34
  -1 -11 -11   25.03    9.68
  -1 -11 -11   17.23   10.07
  -1 -11 -11   20.15    5.37
  -1  11 -11   17.98    4.07
   1  11  11   15.80    5.51
  -1  11 -11   17.46    9.19
  -1  11 -11   23.59   16.44
  -3 -11 -11  103.88   10.73
  -3  11 -11  117.14   18.92
  -3  11 -11   76.80   15.15
  -5 -11 -11   22.10    9.03
  -7 -11 -11   39.46   13.79
   8 -12 -11   29.41    9.51
  -8 -12  11   39.12   10.76
  -8 -12  11   25.69   17.16
   8  12 -11   32.93    7.64
  -6 -12  11   35.93   16.48
   6 -12 -11   36.69    7.64
  -6  12  11   46.02   13.00
   6  12 -11   16.71    6.37
  -4 -12  11  116.76   10.05
   4 -12 -11  125.24   10.16
  -4 -12  11  135.37   10.40
  -4 -12  11  114.42    8.55
  -4 -12  11  127.01   23.44
  -4  12  11  108.69   10.05
   4  12 -11  123.16    9.94
  -4  12  11  125.96   19.14
  -4  12  11  127.43    8.47
  -4  12  11  112.50    9.64
  -2 -12  11   13.35    5.50
  -2 -12  11   14.83    5.10
  -2 -12  11   14.57   10.59
   2 -12 -11   11.65    9.46
   2 -12 -11    7.80    5.61
   2 -12 -11   19.42    5.49
   2  12 -11    5.90    5.33
   2  12 -11  -26.79   17.84
  -2  12  11   12.88    8.09
  -2  12  11    6.31    5.03
  -2  12  11   12.81    5.72
   0 -12  11  306.26   14.85
   0 -12 -11  273.52   14.39
   0 -12 -11  313.08   23.43
   0 -12  11  309.67   14.81
   0 -12 -11  274.73   23.70
   0 -12 -11  280.45   14.22
   0  12 -11  303.35   14.01
   0  12 -11  305.44   22.86
   0  12 -11  298.82   14.50
   0  12  11  284.34   14.96
   0  12 -11  345.51   35.72
   0  12  11  310.32   14.76
  -2 -12 -11   62.31   12.48
  -2 -12 -11   68.92    7.65
  -2 -12 -11   63.03   12.06
   2 -12  11   75.11    7.31
   2  12  11   68.86    7.34
  -2  12 -11   64.60   12.69
  -4 -12 -11  124.01   12.36
  -4  12 -11  139.00   20.62
  -4  12 -11  126.16   23.23
  -6 -12 -11   16.46   10.49
  -7 -13  11   20.07    9.17
   7 -13 -11   36.67    9.49
  -7 -13  11   17.87   15.76
   7  13 -11   23.25    7.03
   5 -13 -11   63.41    8.05
  -5 -13  11   43.55   16.14
  -5 -13  11   54.14    6.17
  -5 -13  11   74.24    8.63
  -5 -13  11   52.89    8.36
  -5  13  11   68.42    7.43
  -5  13  11   61.38   13.27
  -5  13  11   62.34    7.29
   5  13 -11   49.64    7.34
   3 -13 -11   35.86    6.55
  -3 -13  11   22.57   12.89
   3 -13 -11   31.89    6.80
  -3 -13  11   30.52    6.43
  -3 -13  11   35.76    6.39
  -3 -13  11   29.81    4.77
  -3  13  11   35.50    6.77
  -3  13  11   34.94    6.51
  -3  13  11   22.28    5.24
  -3  13  11   30.89    9.87
   3  13 -11   33.60    6.39
  -1 -13  11   20.89    5.78
   1 -13 -11   17.54   10.34
  -1 -13  11   22.18    5.64
   1 -13 -11   29.40    5.90
   1 -13 -11   18.03    5.85
  -1  13  11   31.11    6.81
   1  13 -11   68.12   23.62
  -1  13  11   20.00    5.24
   1  13 -11   30.84    5.73
   1 -13  11   72.09    7.45
  -1 -13 -11   64.84   13.53
  -1 -13 -11  101.47   18.33
  -1 -13 -11   71.15    6.78
  -1  13 -11   64.04   12.74
  -1  13 -11   70.04    6.27
  -1  13 -11   89.67   21.35
   1  13  11   72.44    8.01
  -1  13 -11   77.10    6.21
   3 -13  11   17.05    5.85
  -3 -13 -11   15.77    7.61
  -3 -13 -11   20.79   12.57
  -3 -13 -11   24.26   12.19
  -3  13 -11   18.81   15.74
  -3  13 -11   16.99   11.45
  -5 -13 -11   14.67    8.61
   8 -14 -11   13.70    8.98
  -8 -14  11   18.32   11.54
   8  14 -11   23.15    7.54
   6 -14 -11    6.76    7.97
  -6 -14  11    1.80   14.49
   6  14 -11   12.39    6.54
  -6  14  11   20.24    6.45
  -4 -14  11   23.37   13.81
  -4 -14  11   44.47    7.58
   4 -14 -11   31.67    7.06
  -4 -14  11   37.71    7.30
   4  14 -11   38.53    6.89
  -4  14  11   33.73    6.73
  -4  14  11   27.46   10.68
  -4  14  11   30.05    6.82
   2 -14 -11    5.09    5.67
  -2 -14  11    7.83    5.43
   2 -14 -11    3.05    9.33
  -2 -14  11    1.30    9.92
  -2 -14  11    8.67    5.82
   2 -14 -11   15.25    6.04
   2  14 -11    7.71    5.97
  -2  14  11   13.19    6.37
  -2  14  11   10.68    6.04
  -2  14  11    1.32    9.18
   0 -14 -11   37.06   12.28
   0 -14  11   38.56    6.51
   0 -14  11   37.69    6.35
   0 -14 -11   42.49   12.02
   0 -14 -11   43.89    6.53
   0 -14 -11   44.31    6.54
   0  14 -11   41.87    5.31
   0  14  11   44.72    6.72
   0  14 -11   34.55    5.87
   0  14  11   36.98    7.08
   0  14 -11   39.61   11.42
   0  14 -11   68.67   24.53
  -2 -14 -11  274.21   24.56
   2 -14  11  291.55   14.67
  -2 -14 -11  285.43   27.00
  -2 -14 -11  270.76   15.58
  -2  14 -11  302.64   25.55
   2  14  11  274.73   15.45
  -2  14 -11  186.47   32.44
  -4 -14 -11   51.34    9.48
  -4 -14 -11   59.07   17.51
   4 -14  11   63.28    8.28
  -4 -14 -11   42.76   15.10
  -4  14 -11   47.22   17.04
  -4  14 -11   51.06   14.23
  -6 -14 -11   40.10   10.50
   7 -15 -11   13.43    8.92
  -7 -15  11    3.29    8.93
   7  15 -11   17.68    7.06
  -5 -15  11   63.49    8.69
   5 -15 -11   47.50    8.43
  -5 -15  11   33.37   18.84
  -5  15  11   40.67    7.21
  -5  15  11   48.56    7.52
   5  15 -11   57.41    8.07
  -3 -15  11  191.54   13.48
   3 -15 -11  194.83   12.62
  -3 -15  11  202.50   25.40
  -3 -15  11  175.45   13.06
   3 -15 -11  202.21   13.64
  -3  15  11  171.98   12.76
  -3  15  11  203.70   12.85
   3  15 -11  192.78   12.22
  -1 -15  11  161.35   11.12
   1 -15 -11  181.19   11.81
   1 -15 -11  160.56   11.39
  -1 -15  11  166.00   11.85
   1 -15 -11  167.35   22.14
   1  15 -11  231.74   38.71
   1  15 -11  161.94   11.33
  -1  15  11  158.66   11.37
  -1  15  11  171.25   12.35
   1 -15  11   35.77    6.43
  -1 -15 -11   29.66    6.32
  -1 -15 -11   30.37   12.33
  -1 -15 -11   23.00   12.13
  -1  15 -11   29.72    5.02
  -1  15 -11   26.02    5.56
   1  15  11   27.83    7.52
  -1  15 -11   -8.81   20.49
  -1  15 -11   22.35   12.39
   3 -15  11   70.83    8.05
  -3 -15 -11   72.08   17.17
  -3 -15 -11   60.00   15.75
  -3 -15 -11   64.02    9.47
   3  15  11   83.04    8.49
  -3  15 -11   51.45   18.67
  -3  15 -11   60.98   14.70
  -5 -15 -11   22.16    9.16
  -5  15 -11   -2.65   17.31
  -5  15 -11   22.80   13.63
   6 -16 -11   30.36    8.46
   6  16 -11   27.77    7.61
  -6  16  11   30.58    7.08
  -4 -16  11   57.36    8.52
   4 -16 -11   60.30    8.68
  -4 -16  11   65.00    8.74
  -4  16  11   53.61    8.25
  -4  16  11   67.13    8.24
   4  16 -11   52.88    8.04
   2 -16 -11   26.60    7.31
   2 -16 -11   45.45    8.24
  -2 -16  11   21.15    6.96
  -2 -16  11   34.73    7.41
  -2  16  11   35.16    7.89
   2  16 -11   28.68    6.84
  -2  16  11   37.43    7.52
   0 -16 -11  143.52   23.25
   0 -16 -11  130.11    9.78
   0 -16  11  123.51   10.07
   0 -16 -11  146.10   10.76
   0 -16  11  125.81   11.55
   0  16 -11   73.92   28.13
   0  16 -11  126.68   11.08
   0  16  11  138.16   11.60
   0  16 -11  129.86   10.06
   2 -16  11   23.50    6.69
  -2 -16 -11   25.93   12.48
  -2 -16 -11   18.33    7.18
  -2 -16 -11    9.40   13.68
  -2  16 -11   11.20    5.12
  -2  16 -11   -4.37   20.22
   2  16  11   11.76    7.61
  -4 -16 -11  203.22   30.15
  -4 -16 -11  136.83   25.22
  -4 -16 -11  145.49   14.01
  -4  16 -11  104.66   22.17
  -6 -16 -11   17.01    9.84
  -6  16 -11   -7.35   17.41
   7 -17 -11    3.87    9.56
  -7 -17  11   -1.79   10.63
   7  17 -11    1.03    6.88
  -5 -17  11   30.35    8.51
   5 -17 -11   17.64    8.78
  -5  17  11    6.36    7.24
   5  17 -11   19.99    7.20
   3 -17 -11  272.45   15.21
  -3 -17  11  253.25   15.89
  -3 -17  11  233.70   15.77
  -3  17  11  271.88   15.33
  -3  17  11  248.79   15.60
   3  17 -11  216.94   14.71
   1 -17 -11   18.67    7.50
  -1 -17  11   15.80    7.13
  -1 -17  11   18.27    6.55
   1 -17 -11   22.72    7.58
  -1  17  11   14.31    6.14
  -1  17  11   27.96    8.25
   1  17 -11   14.03    6.29
   1 -17  11    3.98    6.18
  -1 -17 -11   -9.34   12.50
  -1 -17 -11   10.86    6.71
  -1  17 -11    4.31    5.36
  -1  17 -11  -21.73   21.96
   1  17  11    2.39    8.04
  -1  17 -11    5.25    5.05
  -3 -17 -11   71.05   10.21
   3 -17  11   92.54   10.27
  -3 -17 -11   81.92   19.27
   3  17  11   68.56    8.98
  -3  17 -11   24.24   20.60
  -5 -17 -11   14.33   11.59
  -5 -17 -11   17.27   18.00
  -5  17 -11   -7.33   19.35
   6 -18 -11   10.41    8.22
   6  18 -11   14.64    7.68
  -6  18  11    9.10    7.17
  -4 -18  11    6.00    7.24
   4 -18 -11   20.06    7.69
  -4 -18  11   13.41    7.76
  -4  18  11   26.23    7.74
   4  18 -11   19.20    7.49
  -4  18  11    6.06    7.66
   2 -18 -11   24.34    7.58
  -2 -18  11    4.73    6.94
   2 -18 -11    0.95    7.52
  -2 -18  11    7.77    6.93
  -2  18  11    8.53    6.81
  -2  18  11    8.88    8.03
   2  18 -11   10.14    6.74
   0 -18  11    5.40    6.24
   0 -18 -11   -3.60    7.46
   0 -18 -11    0.01   12.15
   0 -18 -11    6.76    6.72
   0  18  11    5.57    8.13
   0  18 -11    4.50    5.72
  -2 -18 -11   88.08   19.79
   2 -18  11   91.01    9.90
  -2 -18 -11   75.02    9.78
  -2  18 -11   85.17    8.35
  -2  18 -11   93.13    7.83
   2  18  11   85.80   10.06
  -4 -18 -11   17.02   11.41
   4 -18  11   15.87    7.78
  -4 -18 -11    6.95   16.73
   4  18  11    9.68    8.93
  -4  18 -11  -12.79   19.29
  -6 -18 -11   35.79   14.50
  -6  18 -11   -6.29   21.06
   5 -19 -11    3.26    7.51
  -5 -19  11   28.91    9.43
  -5  19  11   15.59    7.68
   5  19 -11   23.64    8.16
   3 -19 -11   47.69    8.68
  -3 -19  11   44.27    8.74
  -3 -19  11   33.23    8.27
   3  19 -11   58.61    8.82
  -3  19  11   47.09    9.00
  -3  19  11   39.27    8.77
  -1 -19  11   56.59    8.58
   1 -19 -11   72.54    9.17
   1 -19 -11   59.69    9.63
  -1  19  11   61.69   10.23
   1  19 -11   56.90    8.01
  -1 -19 -11   26.85    8.61
  -1 -19 -11   27.39   15.41
   1 -19  11   24.09    7.45
   1  19  11   43.40   10.58
  -1  19 -11   28.92    6.37
  -3 -19 -11    0.12   16.27
   3 -19  11   11.48    8.10
  -3 -19 -11    7.28    8.23
   3  19  11   23.24    9.54
  -3  19 -11  -34.55   21.78
  -5 -19 -11    6.79   11.55
  -5 -19 -11    6.57   20.15
   5 -19  11   17.11    8.24
  -5  19 -11  -25.33   19.39
  -6 -20  11   16.39   10.23
  -6  20  11   11.31    7.83
   6  20 -11   17.89    8.03
  -4 -20  11   -0.20    9.05
   4 -20 -11   17.50    7.87
  -4 -20  11   14.60    8.14
  -4  20  11   15.09    8.41
  -4  20  11    5.60    7.74
   4  20 -11    7.45    7.40
  -2 -20  11   23.90    8.56
  -2 -20  11   20.68    8.75
   2 -20 -11   32.60    9.40
   2 -20 -11   44.04    8.71
  -2  20  11   23.43    8.98
  -2  20  11   27.92    9.41
   2  20 -11   13.35    7.50
   0 -20  11   34.00    8.08
   0 -20 -11   45.85    8.96
   0 -20 -11   39.30    9.26
   0  20 -11   36.20    6.97
   0  20  11   36.03   10.82
  -2 -20 -11   -0.08   16.07
   2 -20  11   12.41    7.91
  -2  20 -11    9.44    6.47
   2  20  11    6.43    9.22
   4 -20  11   35.69    9.12
  -4 -20 -11   28.63   19.81
  -4 -20 -11   28.27    9.47
  -4  20 -11  -13.53   22.22
   4  20  11   40.37   10.43
   5 -21 -11   40.16    9.52
  -5 -21  11   35.42   10.62
  -5  21  11   38.37    9.14
   5  21 -11   34.04    9.05
   3 -21 -11   71.55    9.78
  -3 -21  11   53.97   10.39
  -3 -21  11   47.29   10.09
  -3  21  11   45.75    9.47
  -3  21  11   47.61    9.75
   3  21 -11   44.09    9.30
   1 -21 -11    4.89    8.94
   1 -21 -11   16.73    8.66
  -1 -21  11   -1.60    7.42
  -1  21  11   10.71    9.63
   1  21 -11  -11.71    6.57
  -1 -21 -11    5.85    8.16
   1 -21  11    1.51    7.53
  -1  21 -11    0.90    6.07
   1  21  11   -3.58    9.69
  -3 -21 -11   42.81    9.78
  -3 -21 -11   58.54   20.36
   3 -21  11   75.39   10.59
   3  21  11   53.31   11.16
  -5 -21 -11    1.33   10.29
  -5 -21 -11    6.99   18.56
   5 -21  11    7.88    8.78
   5  21  11   10.59    9.95
  -4 -22  11   27.69   10.87
   4 -22 -11   50.69   10.18
   4  22 -11   30.43    8.92
  -4  22  11   34.74   10.15
  -4  22  11   36.03    9.65
   2 -22 -11    9.65    7.98
  -2 -22  11    4.63    7.80
  -2  22  11   -1.39    9.27
   2  22 -11    6.53    7.83
   0 -22 -11   13.51    7.60
   0 -22  11    1.46    8.92
   0 -22 -11   21.82    9.33
   0  22  11    9.64    9.69
   0  22 -11   14.06    6.92
   2 -22  11   17.35    8.31
   2  22  11    6.51    9.89
  -2  22 -11    9.51    7.09
  -4 -22 -11   45.07   23.09
  -4 -22 -11   20.99    9.65
   4 -22  11   30.06   10.03
   4  22  11   30.75   12.28
   5 -23 -11   35.27   10.66
   5  23 -11   11.64    9.38
  -3 -23  11   27.65   10.35
   3 -23 -11   29.99    9.09
  -3 -23  11   25.72   10.32
   3  23 -11   18.90    8.96
  -3  23  11   28.57   10.52
  -3  23  11   29.97    9.95
  -1 -23  11   12.89    8.83
   1 -23 -11   16.98   11.19
   1 -23 -11   30.76   10.89
   1  23 -11   19.90    7.79
  -1  23  11   17.29   10.76
   1 -23  11   27.02    9.25
  -1 -23 -11   49.11   11.32
   1  23  11   54.24   14.00
   3 -23  11   19.14    9.05
   3  23  11   27.58   10.66
  -4 -24  11   25.19   10.74
   4 -24 -11   33.99   10.07
   4  24 -11   24.77    9.76
  -4  24  11   27.26   10.67
  -2 -24  11   20.80   11.58
  -2 -24  11   20.38    7.91
   2 -24 -11   23.28    9.72
   2  24 -11    7.63    8.57
  -2  24  11   12.57   10.65
   0 -24  11   22.65   10.01
   0 -24 -11   24.44   11.33
   0  24  11   16.31   12.01
   0  24 -11   26.21    7.97
   2 -24  11    0.50    8.74
   2  24  11   -2.11   11.48
  -2  24 -11   -1.66    7.69
  -3 -25  11   25.02   11.12
   3 -25 -11   24.13   10.06
   3  25 -11    6.08    9.28
  -3  25  11   13.32   10.14
   1 -25 -11   28.18    9.22
   1 -25 -11   21.78   11.12
  -1 -25  11   18.04    7.84
   1  25 -11   14.50    8.07
  -1  25  11   -6.13   11.46
   1 -25  11    7.29    9.50
  -1  25 -11    3.82    7.50
   1  25  11    2.87   11.86
   2 -26 -11   86.94   14.37
  -2 -26  11   40.70    9.57
  -2 -26  11   61.37   12.45
   2  26 -11   56.42   10.44
  -2  26  11   53.17   12.67
   0 -26  11   30.92   10.84
   0 -26 -11   32.99   12.80
   0 -26  11   32.62    8.76
   0  26 -11   41.51    9.63
   0  26  11   23.34   13.19
   8   0 -12   61.27    8.59
  -8   0  12   30.25   17.07
  -8   0  12   76.25   11.29
   6   0 -12   23.03    6.31
  -6   0  12   -7.50   14.03
  -4   0  12  189.87   10.33
  -4   0  12  193.49    9.92
  -4   0  12  168.58   10.29
  -4   0  12  217.36   24.15
   4   0 -12  202.01   10.69
   4   0 -12  201.73   10.83
  -2   0  12  144.42    8.47
  -2   0  12  140.39    8.72
   2   0 -12  153.31    8.67
   2   0 -12  143.24    8.60
  -2   0  12  175.54   19.40
   0   0 -12  758.64   35.62
   0   0 -12  666.36   27.68
   0   0  12  662.51   27.99
  -4   0 -12  321.03   17.24
  -6   0 -12  132.87   13.59
  -8   0 -12    3.96   10.48
  -9  -1  12   39.68   10.77
   9  -1 -12   25.81    8.62
  -9  -1  12   17.42   16.55
  -9   1  12   36.71   10.73
  -9   1  12   19.25   16.89
  -7  -1  12   32.86   18.03
   7  -1 -12   63.49    8.32
  -7  -1  12   76.01   10.16
  -7   1  12   53.87   16.59
  -7   1  12   83.93    9.94
   7   1 -12   67.21    8.22
   5  -1 -12   76.02    7.38
  -5  -1  12   69.58    6.33
  -5  -1  12   19.39   32.52
  -5  -1  12   68.38    6.23
  -5  -1  12   77.03   17.46
   5   1 -12   63.15    6.98
  -5   1  12   58.05   15.65
  -5   1  12   78.31    6.31
  -5   1  12   70.14    6.16
  -3  -1  12  131.19    8.04
  -3  -1  12  107.37   19.51
  -3  -1  12  133.89    8.10
   3  -1 -12  127.26    8.13
   3  -1 -12  123.80    8.17
  -3  -1  12  129.97    7.53
  -3   1  12  148.53   17.27
  -3   1  12  136.13    8.20
  -3   1  12  125.02    7.99
   3   1 -12  130.82    8.28
   3   1 -12  118.95    8.12
  -3   1  12  129.49    7.50
   1  -1 -12 1516.65   60.63
  -1  -1  12 1498.41   60.71
  -1  -1  12 1471.08   60.58
   1  -1 -12 1734.37   67.44
   1  -1 -12 1513.61   60.56
   1  -1 -12 1509.12   60.59
  -1   1  12 1495.08   60.61
  -1   1  12 1501.22   60.73
   1   1 -12 1506.86   60.55
   1   1 -12 1555.89   60.69
   1   1 -12 1728.66   66.97
  -1   1 -12  204.39   23.53
  -1   1 -12  195.63   19.21
  -5  -1 -12  136.89   12.57
  -5   1 -12  146.30   12.50
  -7  -1 -12   52.13   11.48
  -7   1 -12   51.99   10.91
  -8  -2  12  -32.37   16.92
   8  -2 -12   11.57    7.60
  -8  -2  12   11.87    9.02
  -8   2  12   -7.22   15.44
   8   2 -12   11.84    6.50
  -8   2  12   10.08    8.23
   6  -2 -12  129.96   10.11
  -6  -2  12   86.74   20.56
   6   2 -12  124.25    9.70
  -6   2  12   99.45   17.67
  -4  -2  12  103.09    7.79
  -4  -2  12   89.69   17.46
  -4  -2  12   40.02   26.44
  -4  -2  12  110.64    6.91
   4  -2 -12  109.59    8.17
   4  -2 -12  100.77    8.04
  -4  -2  12  103.71    7.48
  -4   2  12  109.36    6.83
  -4   2  12  100.55    7.65
  -4   2  12  106.68    7.73
  -4   2  12   89.85   14.73
   4   2 -12  100.37    7.99
   4   2 -12  102.66    7.93
  -2  -2  12  785.22   32.27
  -2  -2  12  778.97   32.18
   2  -2 -12  790.94   32.29
   2  -2 -12  800.36   32.24
   2  -2 -12  816.95   42.55
  -2  -2  12  941.67   41.60
  -2   2  12  740.47   38.62
   2   2 -12  799.25   32.33
  -2   2  12  794.03   32.33
   2   2 -12  784.00   32.28
   2   2 -12  753.92   57.41
  -2   2  12  790.72   32.20
   0  -2 -12  249.30   21.88
   0   2 -12  336.61   21.67
  -4  -2 -12   58.34    8.35
  -6  -2 -12   45.87   10.16
  -8  -2 -12    2.42   10.80
  -9  -3  12  -30.96   17.62
   9  -3 -12   13.85    8.30
  -9  -3  12   13.25   11.21
  -9   3  12    7.79   15.27
   9   3 -12   17.65    7.25
  -7  -3  12   23.10   20.24
   7  -3 -12   83.38    9.23
  -7  -3  12   81.42   10.55
  -7   3  12   57.83   16.62
  -7   3  12  110.80   10.56
   7   3 -12   80.56    8.10
  -5  -3  12   53.47   29.16
  -5  -3  12   28.80   15.89
  -5  -3  12   38.96    5.55
   5  -3 -12   43.32    6.42
  -5  -3  12   44.99    5.03
  -5   3  12   37.59   13.40
  -5   3  12   39.48    4.71
   5   3 -12   42.76    5.97
  -5   3  12   49.53    5.61
  -3  -3  12   38.46    4.70
  -3  -3  12   -7.75   16.11
   3  -3 -12   35.24    5.03
   3  -3 -12   35.02    5.18
  -3  -3  12   36.58    4.98
  -3  -3  12   33.87    4.10
   3   3 -12   41.92    5.26
  -3   3  12   33.61    9.16
  -3   3  12   40.60    5.13
   3   3 -12   34.28    4.97
  -3   3  12   38.38    4.82
  -3   3  12   35.27    4.17
  -1  -3  12  177.31    9.20
   1  -3 -12  179.49    9.18
   1  -3 -12  177.63    8.91
   1  -3 -12  176.75    9.07
  -1  -3  12  168.27    9.30
  -1   3  12  173.47    9.28
   1   3 -12  169.85   16.13
  -1   3  12  168.17    9.33
   1   3 -12  176.98    8.92
   1   3 -12  180.33    9.20
  -1  -3 -12  876.27   55.83
  -1  -3 -12 1101.33   45.92
  -1   3 -12  983.63   47.03
  -1   3 -12 1149.06   46.11
  -3  -3 -12  105.35    9.38
  -5  -3 -12   31.23    8.52
  -7  -3 -12    7.48   10.66
  -8  -4  12   11.55    9.66
   8  -4 -12   19.77    8.09
   8   4 -12   16.61    6.70
  -8   4  12    6.26   15.00
   6  -4 -12   17.71    6.35
  -6  -4  12   -6.13   15.66
  -6  -4  12  -50.42   29.33
   6   4 -12   16.86    6.00
  -6   4  12   30.88   13.62
  -4  -4  12   48.23   13.19
   4  -4 -12   73.29    6.72
  -4  -4  12   74.94    6.32
  -4  -4  12   70.05    6.24
   4  -4 -12   65.89    6.58
  -4  -4  12   66.09    6.01
  -4   4  12   66.99    6.17
  -4   4  12   69.16    5.95
   4   4 -12   75.06    6.56
  -4   4  12   75.63    6.42
  -4   4  12   50.44   12.05
   4   4 -12   73.05    6.75
  -2  -4  12  187.50    9.81
   2  -4 -12  178.15    9.75
   2  -4 -12  186.96    9.90
  -2  -4  12  197.94    9.69
   2  -4 -12  188.89   16.33
  -2   4  12  187.37   10.03
  -2   4  12  146.27   15.79
  -2   4  12  187.46    9.77
   2   4 -12  191.96    9.79
   0  -4 -12  697.08   28.75
   0  -4 -12  699.06   36.31
   0  -4  12  731.28   29.12
   0  -4 -12  743.37   28.82
   0  -4 -12  689.80   28.74
   0   4 -12  746.82   34.63
   0   4  12  719.02   29.09
   0   4 -12  710.24   28.69
  -2  -4 -12   52.10    6.57
  -4  -4 -12   34.76    7.97
  -6  -4 -12  100.00   11.55
  -8  -4 -12    3.42   12.01
   9  -5 -12   27.76    9.66
  -9  -5  12   26.44   11.65
   9   5 -12   23.72    7.66
  -9   5  12   15.56   16.81
  -7  -5  12   -5.85   18.08
   7  -5 -12   34.94    7.85
  -7  -5  12   43.33    8.73
  -7   5  12   18.63   14.16
   7   5 -12   36.01    7.03
  -1  -5  12  174.80    9.46
   1  -5 -12  177.42   16.08
   1  -5 -12  164.91    9.33
   1  -5 -12  169.38    8.95
   1  -5 -12  157.93   19.78
   1  -5 -12  177.15    9.29
  -1  -5  12  179.65    9.29
  -1   5  12  165.70    9.56
   1   5 -12  186.31    9.42
   1   5 -12  170.40    8.99
   1   5 -12  175.63   16.84
   1   5 -12  202.71   28.26
  -1   5  12  174.66    9.38
   1  -5  12  176.59    9.24
  -1  -5 -12  178.10   14.46
  -1   5 -12  180.55   15.60
  -1   5 -12  168.53   19.84
  -3  -5 -12   68.11    8.02
  -5  -5 -12  150.85   13.69
  -7  -5 -12   13.52    9.41
   8  -6 -12   21.58    8.06
  -8  -6  12   15.93    9.39
  -8   6  12   -7.36   16.41
   8   6 -12    5.88    6.07
   6  -6 -12   76.05    8.20
  -6  -6  12   60.24   16.53
  -6   6  12   58.30   16.04
   6   6 -12   74.29    7.37
  -4  -6  12   33.14   19.47
   2  -6 -12  213.71   11.15
  -2  -6  12  221.09   11.17
   2  -6 -12  214.18   11.24
  -2  -6  12  222.73   11.21
   2  -6 -12  214.12   17.82
  -2  -6  12  239.11   18.78
  -2   6  12  225.09   17.07
  -2   6  12  212.87   11.02
   2   6 -12  215.28   11.24
  -2   6  12  228.07   11.37
   0  -6 -12  388.99   23.37
   0  -6  12  369.62   16.24
   0  -6 -12  376.01   15.91
   0  -6 -12  347.84   15.80
   0  -6 -12  374.56   22.52
   0  -6 -12  374.50   15.84
   0   6 -12  364.43   15.83
   0   6 -12  377.32   16.04
   0   6 -12  360.89   22.68
   0   6  12  354.09   16.32
   0   6 -12  395.76   27.27
  -2  -6 -12   75.06    7.44
  -4  -6 -12  108.92   11.09
  -6  -6 -12  103.54   13.12
  -8  -6 -12   18.32   13.04
  -7  -7  12   96.85   11.13
   7  -7 -12  115.00   10.24
  -7  -7  12   53.11   20.19
   7   7 -12  114.96    9.41
  -7   7  12   64.65   17.53
   3  -7 -12   59.82    6.23
   3  -7 -12   57.84    5.97
  -3  -7  12   52.73    4.83
  -3  -7  12   61.61    6.00
  -3  -7  12   62.57    5.83
  -3  -7  12   60.51   11.12
  -3   7  12   52.65    4.92
  -3   7  12   68.88    6.51
  -3   7  12   54.04    5.85
   3   7 -12   50.31    5.76
  -3   7  12   40.39   11.25
   1  -7 -12  513.81   21.17
   1  -7 -12  505.61   21.18
  -1  -7  12  541.34   21.47
   1  -7 -12  507.84   29.01
  -1  -7  12  502.14   21.32
   1  -7 -12  491.86   21.12
   1  -7 -12  516.73   27.78
   1   7 -12  518.54   21.28
   1   7 -12  481.60   20.90
  -1   7  12  503.92   21.46
   1   7 -12  400.84   30.31
   1   7 -12  519.47   28.20
  -1  -7 -12   98.96   12.92
   1  -7  12   79.88    6.48
  -1  -7 -12   71.72   13.34
  -1   7 -12   61.35   14.34
   1   7  12   73.70    6.55
  -1   7 -12   54.29   10.07
  -3  -7 -12   15.35    6.57
  -5  -7 -12   21.99    8.02
  -7  -7 -12   22.16    9.48
   8  -8 -12  103.08   10.83
  -8  -8  12  117.58   13.29
  -8   8  12   66.32   19.22
   8   8 -12   97.08    9.68
   6  -8 -12   45.82    7.30
  -6  -8  12   58.85   15.11
  -6   8  12   31.01   15.66
   6   8 -12   47.19    6.99
   2  -8 -12  248.28   12.29
  -2  -8  12  240.73   12.19
   2  -8 -12  254.75   19.49
  -2  -8  12  247.33   12.26
  -2  -8  12  243.77   19.86
   2  -8 -12  254.71   12.34
  -2   8  12  239.80   12.41
  -2   8  12  233.30   12.23
   2   8 -12  238.87   12.21
  -2   8  12  236.69   17.51
   0  -8 -12   34.39    4.68
   0  -8 -12   32.01    9.01
   0  -8  12   45.70    4.88
   0  -8 -12   69.21   12.68
   0  -8 -12   43.52    4.84
   0  -8  12   33.63    5.04
   0   8 -12   39.72    4.33
   0   8 -12   37.66    9.39
   0   8  12   33.47    5.31
   0   8 -12   21.02   14.92
   0   8 -12   33.70    4.86
  -2  -8 -12   16.21    5.88
  -2   8 -12   19.89    9.16
  -2   8 -12   54.37   13.74
  -4  -8 -12   67.52    9.38
  -6  -8 -12   45.86   10.50
   7  -9 -12   16.11    7.49
  -7  -9  12   24.18    8.73
  -7  -9  12    5.45   14.84
   7   9 -12   16.99    6.22
  -7   9  12   31.06   15.13
  -5  -9  12   32.50   13.02
   5  -9 -12   42.96    6.98
  -5  -9  12   43.67    5.22
  -5  -9  12   38.72    6.71
  -5   9  12   43.84    6.34
  -5   9  12   44.45    5.44
   5   9 -12   37.37    6.34
  -5   9  12   47.98   12.82
  -5   9  12   45.15    6.23
   3  -9 -12    5.37    5.24
  -3  -9  12    7.21    3.69
  -3  -9  12    8.15    4.63
  -3  -9  12    6.25    9.24
  -3  -9  12    7.29    4.82
   3  -9 -12   15.44    5.38
  -3   9  12    3.24    4.75
  -3   9  12    9.30    5.32
  -3   9  12    8.12    7.59
  -3   9  12    8.66    4.85
   3   9 -12    3.62    5.02
   1  -9 -12   71.40    6.47
   1  -9 -12   78.38   14.27
  -1  -9  12   79.78    7.19
  -1  -9  12   67.04    5.92
   1  -9 -12   79.64    7.01
   1  -9 -12   57.89   12.29
   1  -9 -12   82.69    6.87
   1   9 -12   73.25    5.73
   1   9 -12   68.39   12.00
  -1   9  12   55.28    5.98
   1   9 -12   76.01    6.98
  -1   9  12   88.15    7.08
   1  -9  12   37.10    5.42
  -1  -9 -12   28.95    9.29
  -1  -9 -12   30.82    5.55
  -1  -9 -12   23.31    9.62
  -1   9 -12   27.85    9.52
  -1   9 -12   36.87   18.15
   1   9  12   28.35    5.23
  -3  -9 -12    4.93    6.12
  -5  -9 -12   27.78    8.49
  -7  -9 -12    9.18   11.45
  -8 -10  12    1.57   17.60
   8 -10 -12   28.71    8.84
  -8 -10  12   20.43    9.92
  -8  10  12   34.41   13.21
   8  10 -12   15.45    6.83
   6 -10 -12  134.22   11.31
  -6 -10  12  117.04   20.46
   6  10 -12  106.39    9.65
  -6  10  12  119.04    8.29
  -4 -10  12   46.45    6.66
   4 -10 -12   55.52    7.23
  -4 -10  12   31.00   12.30
  -4 -10  12   45.17    6.61
  -4 -10  12   40.78    5.35
   4 -10 -12   54.42    7.27
   4  10 -12   42.86    6.58
  -4  10  12   48.56    5.53
  -4  10  12   48.86    6.73
  -4  10  12   52.82    6.61
  -2 -10  12   20.86    9.73
   2 -10 -12   22.51    5.57
  -2 -10  12   28.33    5.36
   2 -10 -12   21.20    5.39
   2 -10 -12   23.43    9.90
  -2 -10  12   25.96    5.03
   2  10 -12   24.01   19.68
   2  10 -12   29.85    5.69
  -2  10  12   21.05    5.19
  -2  10  12   19.83    7.29
  -2  10  12   43.33    6.11
   0 -10 -12    6.87    4.27
   0 -10 -12    2.23    9.40
   0 -10  12    6.25    4.87
   0 -10 -12    4.01    4.39
   0 -10 -12    4.18    8.39
   0 -10  12    7.94    4.36
   0  10 -12    0.75    4.18
   0  10  12    3.77    3.95
   0  10 -12   -1.88    8.49
   0  10 -12   12.41   18.45
   0  10  12    2.20    5.17
   0  10 -12    4.29    3.88
  -2 -10 -12  268.13   22.16
   2 -10  12  305.86   14.11
  -2 -10 -12  263.39   21.72
  -2 -10 -12  261.84   14.79
  -2  10 -12  316.50   28.75
  -2  10 -12  279.98   22.02
  -4 -10 -12   20.33    7.67
  -6 -10 -12   13.04   10.19
  -7 -11  12   64.01   18.84
  -7 -11  12   70.41   11.54
   7 -11 -12   72.38    9.65
   7  11 -12   62.23    8.18
  -5 -11  12   97.94    8.77
  -5 -11  12  118.42    9.97
  -5 -11  12   74.67   16.70
   5 -11 -12   92.22    9.23
  -5 -11  12   88.80    7.85
   5  11 -12   95.10    8.78
  -5  11  12  103.17    8.27
  -5  11  12  125.73   18.73
  -5  11  12   86.67    7.79
  -5  11  12  104.69    8.45
   3 -11 -12  168.53   10.60
   3 -11 -12  170.01   11.27
  -3 -11  12  167.97   10.92
  -3 -11  12  173.51   10.89
  -3 -11  12  173.20   22.69
  -3 -11  12  151.79    9.68
  -3  11  12  160.56   17.91
  -3  11  12  174.92   10.65
   3  11 -12  157.03   10.53
  -3  11  12  154.41   10.54
  -1 -11  12   17.68    5.42
   1 -11 -12   19.15   10.69
   1 -11 -12   24.56    5.54
   1 -11 -12   21.69    9.95
   1 -11 -12    7.82    5.29
  -1 -11  12   21.61    5.09
   1  11 -12   22.73    5.43
  -1  11  12   25.82    6.01
   1  11 -12   20.32    4.52
   1  11 -12   69.94   22.97
  -1  11  12   19.13    4.87
  -1 -11 -12  107.60    8.78
  -1 -11 -12   99.74   17.96
   1 -11  12  119.43    8.63
  -1 -11 -12  113.91   17.51
   1  11  12  108.52    9.17
  -1  11 -12  104.41    7.70
  -1  11 -12  113.92   17.23
  -3 -11 -12  145.28   20.07
  -3 -11 -12  120.29   11.87
  -3  11 -12  136.14   19.95
  -3  11 -12  139.81   23.83
  -5 -11 -12  171.59   14.55
  -7 -11 -12    7.82   11.71
   8 -12 -12   36.95    9.98
  -8 -12  12   20.38    9.93
   8  12 -12   32.27    7.86
  -6 -12  12   27.78   14.81
   6 -12 -12   22.89    7.76
  -6  12  12   13.87    5.49
   6  12 -12   17.12    6.58
  -6  12  12   44.90   12.38
   4 -12 -12   48.39    7.40
  -4 -12  12   44.79    6.82
  -4 -12  12   42.78   14.66
  -4 -12  12   35.55    5.34
  -4 -12  12   50.30    7.25
  -4  12  12   50.71    7.08
  -4  12  12   47.17   11.47
   4  12 -12   46.84    6.92
  -4  12  12   80.14    7.81
   2 -12 -12   68.11   12.78
  -2 -12  12   65.05    7.13
  -2 -12  12   57.50   12.53
   2 -12 -12   88.34    7.63
  -2 -12  12   76.96    7.40
   2 -12 -12   86.05    7.72
  -2  12  12   71.77    7.15
  -2  12  12   88.17   14.56
  -2  12  12   76.70    7.86
   2  12 -12   79.99    7.44
   0 -12 -12   28.69   10.18
   0 -12  12    3.90    4.95
   0 -12 -12    6.74   10.33
   0 -12  12    6.14    5.47
   0 -12 -12    3.35    4.79
   0 -12 -12    3.01    5.18
   0  12  12    0.66    5.87
   0  12 -12   32.66   22.31
   0  12 -12    9.05    9.35
   0  12 -12    0.01    4.09
   0  12 -12   -6.44    4.44
   0  12  12   -0.59    4.84
  -2 -12 -12   32.87   12.44
  -2 -12 -12   35.33   11.61
  -2 -12 -12   49.06    7.18
   2 -12  12   38.29    6.57
   2  12  12   36.59    6.72
  -2  12 -12   31.69   11.82
  -2  12 -12   11.49   16.16
  -4 -12 -12   96.49   11.04
  -4  12 -12   93.77   17.21
  -4  12 -12  114.82   21.30
  -6 -12 -12   26.67   10.00
  -7 -13  12   52.02   10.38
   7 -13 -12   45.12    9.73
   7  13 -12   30.25    7.44
  -5 -13  12   19.36   14.34
   5 -13 -12   16.58    6.77
  -5 -13  12   23.84    6.75
  -5 -13  12   21.98    7.35
   5  13 -12   16.84    6.26
  -5  13  12   12.45    5.98
  -5  13  12   18.58   11.15
  -5  13  12   19.24    6.49
  -3 -13  12   76.09   14.94
  -3 -13  12   97.33    8.59
   3 -13 -12  110.73    9.45
   3 -13 -12  119.93    9.81
  -3 -13  12   83.37    8.93
  -3  13  12  106.21    8.86
  -3  13  12  128.88   17.62
   3  13 -12   96.07    8.52
  -3  13  12  116.22    9.43
  -1 -13  12   73.14    7.32
  -1 -13  12   66.39    7.10
   1 -13 -12   67.05   16.69
   1 -13 -12   67.11   13.21
   1 -13 -12   75.89    7.53
   1 -13 -12   82.52    7.33
   1  13 -12   66.99    6.65
   1  13 -12   67.42    7.25
  -1  13  12   57.08    6.78
  -1  13  12   83.05    8.26
  -1 -13 -12   78.80   13.86
  -1 -13 -12   86.74    8.88
  -1 -13 -12   83.58    7.23
   1 -13  12   92.95    7.99
  -1 -13 -12   84.42   14.74
  -1  13 -12   90.96    7.43
  -1  13 -12   72.50   13.79
   1  13  12   79.29    8.50
  -1  13 -12   74.71   22.19
  -1  13 -12   95.56    7.71
  -3 -13 -12   73.00   15.13
  -3 -13 -12   77.37   14.57
  -3 -13 -12   70.84    9.77
  -3  13 -12   39.36   17.12
  -3  13 -12   69.32   14.41
  -5 -13 -12   47.05   10.64
   6 -14 -12   16.63    7.43
  -6  14  12   13.54    6.36
   6  14 -12   11.15    6.52
  -4 -14  12   83.66    8.67
   4 -14 -12   82.30    8.87
  -4 -14  12   77.88    8.73
  -4 -14  12   67.95   15.97
  -4  14  12   86.14    8.64
   4  14 -12   77.35    8.41
  -4  14  12   81.18    8.43
   2 -14 -12    5.99    6.64
   2 -14 -12   -1.58    6.17
  -2 -14  12   12.31    5.92
  -2 -14  12    7.82    5.72
   2 -14 -12    2.30   10.66
  -2 -14  12   -2.28   11.83
   2  14 -12   12.65    6.05
  -2  14  12   -0.56    6.33
  -2  14  12   -2.93    6.13
   0 -14 -12    3.44   10.97
   0 -14 -12   -0.57    5.60
   0 -14 -12   21.10   11.95
   0 -14 -12    2.80    5.79
   0 -14  12   10.33    5.80
   0 -14  12   11.19    5.91
   0  14 -12    3.94   11.73
   0  14  12    2.80    6.96
   0  14  12    9.07    5.74
   0  14 -12   -0.21    4.48
   0  14 -12    8.09    5.07
   0  14 -12    4.89   22.98
  -2 -14 -12  118.03   19.59
  -2 -14 -12   72.53   15.75
  -2 -14 -12   74.05    9.17
   2 -14  12   87.87    8.53
   2  14  12   87.04    9.06
  -2  14 -12   65.32   19.40
  -2  14 -12   63.26   14.62
  -4 -14 -12   31.76   15.67
  -4 -14 -12   10.97   13.76
  -4 -14 -12   21.21    8.53
  -4  14 -12   23.05   16.30
  -4  14 -12   20.82   13.18
  -6 -14 -12   24.32   11.32
   7 -15 -12    8.39    8.85
  -7 -15  12   16.39    9.44
   7  15 -12   13.39    7.65
   5 -15 -12  184.49   12.86
  -5 -15  12  192.71   14.56
  -5  15  12  155.46   11.42
  -5  15  12  154.38   11.93
   5  15 -12  142.99   12.27
  -3 -15  12   79.94    8.51
  -3 -15  12   89.02    8.77
   3 -15 -12   91.94    9.91
   3 -15 -12   86.72    9.39
  -3  15  12   92.04    8.86
  -3  15  12   92.82    9.28
   3  15 -12   84.68    8.85
   1 -15 -12   19.55   11.68
   1 -15 -12   24.46    6.92
   1 -15 -12   23.49    7.02
  -1 -15  12   16.19    6.43
  -1 -15  12   13.90    6.11
  -1  15  12   24.88    6.46
   1  15 -12  -45.55   26.07
  -1  15  12   25.53    7.61
   1  15 -12   32.32    6.49
  -1 -15 -12    9.39   11.73
  -1 -15 -12   13.97    6.07
  -1 -15 -12   23.95   13.45
   1 -15  12   10.44    6.10
   1  15  12   20.34    7.56
  -1  15 -12    3.82   21.61
  -1  15 -12   13.53    5.03
  -1  15 -12   13.92    5.16
  -3 -15 -12   10.39   12.28
  -3 -15 -12    6.36   13.92
  -3 -15 -12   13.59    7.81
   3 -15  12    2.90    5.90
  -3  15 -12    5.06   11.69
   3  15  12   15.19    7.41
  -3  15 -12   -6.68   17.44
  -5 -15 -12   19.21   10.45
  -5  15 -12   -3.65   17.23
  -5  15 -12   15.53   14.61
   6 -16 -12   15.40    9.22
  -6  16  12   15.57    6.93
   6  16 -12   12.17    7.18
   4 -16 -12   51.85    8.57
  -4 -16  12   49.94    8.34
  -4 -16  12   39.06    8.57
  -4  16  12   40.12    7.78
   4  16 -12   30.65    7.50
  -4  16  12   33.81    7.71
  -2 -16  12   10.47    6.34
   2 -16 -12   -5.24    7.06
   2 -16 -12   -5.08    6.61
  -2 -16  12   11.77    6.66
  -2  16  12   -5.74    6.50
  -2  16  12    4.00    7.24
   2  16 -12   11.46    6.62
   0 -16 -12   -1.77    5.91
   0 -16  12    7.18    5.82
   0 -16 -12    4.50   12.17
   0 -16 -12   12.69    7.04
   0  16 -12    0.38    5.54
   0  16  12    5.13    7.60
  -2 -16 -12   11.41   13.06
   2 -16  12   13.05    6.34
  -2 -16 -12    2.64   14.04
  -2 -16 -12    0.27    7.14
  -2  16 -12  -24.45   19.47
   2  16  12   17.51    8.09
  -4 -16 -12   14.66    8.61
   4 -16  12   25.80    7.64
  -4 -16 -12   26.16   15.79
  -4 -16 -12   21.49   16.27
  -4  16 -12   -3.72   17.55
  -6 -16 -12   -5.37   10.78
   7 -17 -12  -13.37    9.30
  -7 -17  12   -7.88   10.17
   7  17 -12   10.95    7.77
  -5 -17  12   95.27   10.83
   5 -17 -12   89.86   10.69
   5  17 -12  103.10   10.30
  -5  17  12  100.35    9.94
  -5  17  12   97.40   10.88
  -3 -17  12   53.60    8.33
  -3 -17  12   34.23    7.80
   3 -17 -12   57.78    8.58
  -3  17  12   58.20    8.10
  -3  17  12   47.59    8.55
   3  17 -12   44.99    8.44
   1 -17 -12   10.41    7.07
  -1 -17  12    7.94    6.28
   1 -17 -12   10.00    7.53
  -1 -17  12   15.53    6.52
   1  17 -12    7.11    6.07
  -1  17  12   10.20    8.43
  -1 -17 -12  100.26    9.60
  -1 -17 -12   88.35   18.71
   1 -17  12  100.23    9.63
  -1  17 -12  105.10    9.29
  -1  17 -12   65.01   27.46
  -1  17 -12  113.37    9.31
   1  17  12  118.90   11.16
  -3 -17 -12    5.25   15.00
   3 -17  12   11.59    6.77
  -3 -17 -12   21.39    8.46
  -3  17 -12  -21.73   18.95
   3  17  12   16.78    9.40
  -5 -17 -12   23.31   17.94
  -5 -17 -12   18.39    9.71
  -5  17 -12   -1.10   19.54
   6 -18 -12   -1.99    8.13
   6  18 -12   20.93    7.93
  -6  18  12    5.40    7.27
  -4 -18  12   38.26    8.52
  -4 -18  12   31.78    8.25
   4 -18 -12   20.96    7.80
   4  18 -12   23.94    7.72
  -4  18  12   37.64    8.36
  -4  18  12   30.08    8.37
   2 -18 -12   35.83    7.95
  -2 -18  12   17.08    7.85
  -2 -18  12    3.57    7.65
   2 -18 -12   36.96    8.52
  -2  18  12   14.85    8.40
  -2  18  12   21.89    7.16
   2  18 -12   14.29    7.22
   0 -18 -12   27.58    7.50
   0 -18 -12   33.79   15.75
   0 -18  12   26.63    7.49
   0 -18 -12   30.50    8.20
   0  18  12   28.04    8.87
   0  18 -12   31.88    6.53
  -2 -18 -12   36.48   15.91
  -2 -18 -12   37.08    8.78
   2 -18  12   34.46    8.13
   2  18  12   37.22    9.97
  -2  18 -12   37.84    6.57
  -4 -18 -12   14.76   18.34
   4 -18  12   14.28    8.71
  -4 -18 -12   11.13   11.09
  -4  18 -12   -7.66   20.56
  -6 -18 -12   22.42   13.95
  -5 -19  12   10.04    8.62
   5 -19 -12   14.79    8.60
  -5  19  12   19.84    8.06
   5  19 -12   17.55    7.86
   3 -19 -12   79.36   10.09
  -3 -19  12   89.32   10.46
  -3 -19  12   80.60   10.46
   3  19 -12   84.05    9.99
  -3  19  12   88.04   10.75
  -3  19  12  101.26   10.67
   1 -19 -12   29.78    9.19
  -1 -19  12   34.36    8.17
   1 -19 -12   46.11    8.40
   1  19 -12   27.82    7.30
  -1  19  12   39.58   10.07
   1 -19  12   54.59    9.10
  -1 -19 -12   52.12   16.99
  -1 -19 -12   68.94    9.09
  -1  19 -12   57.68    7.40
   1  19  12   54.46   10.33
  -3 -19 -12   55.59   19.52
  -3 -19 -12   72.47   10.66
   3 -19  12   82.26   10.42
   3  19  12   56.32   10.54
   5 -19  12   -3.10    8.55
  -5 -19 -12   -6.20   18.90
  -5 -19 -12    9.25   10.82
  -5  19 -12  -24.63   19.85
   6  20 -12   43.43    9.19
  -6  20  12   45.62    8.84
  -4 -20  12    9.76    8.79
  -4 -20  12   13.26    7.40
   4 -20 -12   10.93    8.27
   4  20 -12    8.70    8.04
  -4  20  12   -3.23    7.78
  -4  20  12    0.46    8.03
  -2 -20  12   -0.64    7.23
   2 -20 -12   -8.29    8.73
  -2 -20  12    2.89    7.80
   2 -20 -12   -1.48    8.42
  -2  20  12   15.78    8.84
   2  20 -12   -0.16    6.88
   0 -20 -12   20.07    8.77
   0 -20 -12   12.01    8.05
   0 -20  12    5.47    8.05
   0  20  12   13.05    9.38
   0  20 -12    9.53    6.76
   2 -20  12    5.19    7.20
  -2 -20 -12    0.18   15.23
  -2 -20 -12    1.97    7.98
  -2  20 -12    5.22    6.39
   2  20  12   11.33   10.45
  -4 -20 -12   -4.83   16.80
   4 -20  12    9.26    8.20
  -4 -20 -12    2.02    8.53
  -4  20 -12  -39.70   23.99
   4  20  12   16.73    9.56
  -5 -21  12   11.73   10.22
   5 -21 -12    6.35    8.96
   5  21 -12   16.69    8.54
  -5  21  12   14.84    8.35
   3 -21 -12   90.90   10.86
  -3 -21  12   86.37   11.02
  -3 -21  12   80.81   11.90
  -3  21  12   68.54   10.36
   3  21 -12   85.56   10.43
  -3  21  12   70.20   11.20
  -1 -21  12   -0.85    7.47
   1 -21 -12    0.66    8.87
   1 -21 -12    8.03    7.61
  -1  21  12   -8.80    9.02
   1  21 -12   -3.85    6.59
  -1 -21 -12   22.77    9.13
   1 -21  12   17.31    8.65
  -1  21 -12   21.80    7.39
   1  21  12   27.08   10.97
  -3 -21 -12   25.63   19.57
   3 -21  12    8.79    7.81
  -3 -21 -12    3.19   10.53
   3  21  12   -2.38   10.94
   4 -22 -12   12.11    8.97
  -4 -22  12   33.84   10.82
   4  22 -12   22.64    9.42
  -4  22  12    6.21    9.57
  -4  22  12   23.32    9.05
  -2 -22  12    1.59    8.46
   2 -22 -12   11.55    8.53
  -2  22  12    8.22   10.07
   2  22 -12   -2.04    7.76
   0 -22  12    2.98    8.20
   0 -22 -12   -3.18    9.19
   0 -22 -12   -6.96    8.84
   0  22 -12    4.69    6.59
   0  22  12   13.28   10.42
   2 -22  12    4.11    8.48
   2  22  12   14.31   10.53
  -2  22 -12   -0.32    6.62
   4 -22  12   -1.79    9.22
  -4 -22 -12  -11.17   11.56
   4  22  12   29.46   11.59
  -3 -23  12   19.98    9.78
  -3 -23  12    1.36    9.30
  -3 -23  12   12.81    7.71
   3 -23 -12   13.68    9.57
  -3  23  12    4.11    9.61
   3  23 -12   -3.65    7.84
   1 -23 -12   56.50   12.92
  -1 -23  12   54.52   11.61
   1  23 -12   47.91    8.66
  -1  23  12   39.04   12.26
   1 -23  12    7.68    8.88
  -1 -23 -12   12.04    9.93
   1  23  12   23.22   11.87
   3 -23  12    9.91    9.13
  -3 -23 -12   -1.25    9.27
   3  23  12   18.31   10.17
  -4 -24  12    9.40   10.78
   4 -24 -12   13.50   10.51
  -4  24  12    3.52    9.89
   4  24 -12   18.37    9.89
  -2 -24  12   13.97    9.74
   2 -24 -12   26.24    9.02
  -2 -24  12    2.56    7.41
  -2  24  12   11.91   10.49
   2  24 -12    5.30    8.16
   0 -24  12   -1.67    8.63
   0  24 -12    9.92    7.19
   0  24  12   15.28   11.72
   2 -24  12   17.60    9.48
   2  24  12   13.97   11.26
  -2  24 -12   19.82    8.43
   3 -25 -12   46.39   11.79
  -3  25  12   29.36   11.11
   3  25 -12   12.07    9.61
   1 -25 -12    3.95    8.28
  -1 -25  12    3.44    9.89
  -1 -25  12   -5.20    7.54
   1 -25 -12    2.44   11.20
  -1  25  12    4.09   11.95
   1  25 -12    5.01    7.87
   1 -25  12  -12.23    8.40
  -1 -25 -12  -16.97   10.33
   1  25  12   -1.47   13.06
  -1  25 -12    3.47    7.78
  -2 -26  12   34.53   11.09
  -2 -26  12   33.17    9.27
   2 -26 -12   21.69   10.36
   2  26 -12   23.47    9.19
  -2  26  12   19.66   11.63
   0 -26 -12   11.79   13.22
   0 -26  12   10.10    9.45
   0  26  12   20.93   13.26
   8   0 -13   18.50    7.29
  -8   0  13   17.03    8.28
  -8   0  13    7.24   15.60
   6   0 -13    1.45    5.80
  -6   0  13  -12.18   13.63
  -6   0 -13   -0.05    8.82
  -8   0 -13   -0.73   10.42
  -9  -1  13   37.41   16.95
   9  -1 -13   57.73    9.42
  -9  -1  13   72.11   12.63
  -9   1  13   38.12   17.11
  -9   1  13   70.85   12.79
   9   1 -13   43.51    8.57
  -7  -1  13   35.88    8.59
  -7  -1  13   -9.09   16.10
   7  -1 -13   42.12    7.67
  -7   1  13   23.15    7.98
  -7   1  13    4.84   14.91
   7   1 -13   24.42    6.90
  -5  -1  13  -15.17   14.46
  -5  -1  13    7.47    3.88
   5  -1 -13    7.32    5.38
  -5  -1  13    4.40    4.80
  -5   1  13   -4.28   12.58
   5   1 -13    3.57    5.27
  -5   1  13    1.20    3.69
  -5   1  13   13.18    4.82
   3  -1 -13   79.60    6.77
  -3  -1  13   72.79    5.90
  -3  -1  13   76.23    6.78
   3  -1 -13   88.70    6.52
  -3  -1  13   44.42   12.52
  -3  -1  13   69.70    6.11
  -3   1  13   58.88    5.76
   3   1 -13   83.66    6.96
  -3   1  13   59.06   11.31
  -3   1  13   74.70    6.66
  -3   1  13   76.11    6.42
   3   1 -13   82.00    7.21
   1  -1 -13  383.69   50.61
   1  -1 -13  358.19   24.94
   1   1 -13  275.56   22.97
  -1  -1 -13  730.84   34.45
  -1  -1 -13  728.02   39.32
  -1   1 -13  713.54   34.81
  -5  -1 -13  147.95   12.89
  -7  -1 -13   34.10   11.58
  -8  -2  13    7.74    9.13
  -8  -2  13  -30.25   16.36
   8  -2 -13   18.35    7.92
   8   2 -13   13.99    6.56
  -8   2  13   13.63    8.75
  -8   2  13   -0.27   15.47
   6  -2 -13   67.04    7.94
  -6  -2  13   60.09   19.11
   6   2 -13   55.97    7.31
  -6   2  13   59.80   16.75
  -4  -2  13    5.47    4.70
   4  -2 -13    4.20    5.09
  -4  -2  13  -15.40   13.94
  -4  -2  13    6.13    4.52
  -4  -2  13    4.40    3.40
   4  -2 -13    2.51    5.13
  -4  -2  13  -24.89   25.68
  -4   2  13  -22.53   37.44
  -4   2  13    2.25    4.62
  -4   2  13   -1.86   10.28
   4   2 -13   -0.40    5.04
   4   2 -13    7.38    4.80
  -4   2  13    9.60    3.63
  -4   2  13    5.47    4.83
  -2  -2  13   81.67    6.70
   2  -2 -13   68.08    5.91
  -2  -2  13   76.34    6.61
   2  -2 -13   69.90    5.98
  -2   2  13   72.03    6.13
   2   2 -13   77.35    6.25
   2   2 -13   -7.76   30.11
  -2   2  13   68.16   12.56
  -2   2  13   73.21    5.80
   2   2 -13   74.26    6.67
   0  -2 -13   33.58    4.52
   0  -2 -13   49.81   12.02
   0  -2  13   42.26    5.01
   0  -2 -13  114.22   35.95
   0  -2 -13   39.14    3.99
   0   2 -13   36.38    3.98
   0   2  13   40.03    4.86
   0   2 -13   51.57   11.38
  -4  -2 -13    9.72    6.77
  -6  -2 -13   32.98   10.48
  -8  -2 -13    2.27   11.92
   9  -3 -13   14.92    8.92
  -9  -3  13   14.92   10.63
  -9  -3  13  -11.42   17.74
  -9   3  13   18.73    9.40
  -9   3  13   17.31   14.50
   9   3 -13   16.91    7.63
  -7  -3  13   88.32   23.13
   7  -3 -13  127.50   11.71
  -7  -3  13  154.49   13.19
  -7   3  13  148.14   26.26
   7   3 -13  138.93   10.89
  -5  -3  13   88.36    7.32
  -5  -3  13   73.27   18.71
  -5  -3  13  112.67    8.68
   5  -3 -13   99.50    8.89
  -5   3  13   94.27    8.31
  -5   3  13   93.70    7.87
  -5   3  13  122.24   22.00
  -5   3  13   98.14    7.17
   5   3 -13   97.67    8.74
   3  -3 -13  247.80   11.90
  -3  -3  13  230.21   11.57
  -3  -3  13  222.13   11.32
  -3  -3  13  236.28   11.64
  -3  -3  13  185.56   25.39
   3  -3 -13  236.85   11.96
   3   3 -13  231.33   12.00
  -3   3  13  242.71   20.04
  -3   3  13  241.99   11.61
   3   3 -13  226.49   11.76
  -3   3  13  230.59   11.78
   1  -3 -13 1028.85   41.59
   1  -3 -13 1191.33   50.56
   1  -3 -13 1084.37   48.74
   1  -3 -13 1035.23   41.50
  -1  -3  13 1053.44   41.66
  -1  -3  13 1015.25   41.71
   1  -3 -13 1027.22   41.60
  -1   3  13 1003.08   41.73
   1   3 -13 1023.64   41.47
   1   3 -13 1034.76   47.45
   1   3 -13 1032.76   55.33
  -1   3  13 1030.74   41.66
   1   3 -13 1049.13   41.63
  -1  -3 -13  425.69   23.22
  -1   3 -13  394.98   23.07
  -1   3 -13  339.44   24.69
  -3  -3 -13  262.44   14.76
  -5  -3 -13  100.79   11.44
  -7  -3 -13   69.39   13.27
  -8  -4  13   25.77    9.65
   8  -4 -13   29.80    8.82
  -8   4  13   15.35   15.57
   8   4 -13   19.24    7.06
   6  -4 -13    5.81    6.19
   6   4 -13    5.33    5.59
  -6   4  13    9.05   13.39
   4  -4 -13  103.50    8.84
  -4  -4  13  120.10    8.51
  -4  -4  13  110.21    8.21
   4  -4 -13  109.04    8.77
  -4  -4  13   95.61   16.60
  -4  -4  13  106.43    7.15
   4   4 -13   97.62    8.94
   4   4 -13  106.58    8.32
  -4   4  13  106.68    7.35
  -4   4  13  102.41    8.25
  -4   4  13  125.48   20.00
  -4   4  13  103.53    8.24
  -2  -4  13   98.87    7.45
   2  -4 -13   97.93   14.32
   2  -4 -13  109.87    7.66
  -2  -4  13  104.22    7.39
   2  -4 -13  107.54    7.46
   2   4 -13  109.63    7.44
  -2   4  13  115.26    7.44
   2   4 -13   70.26   23.29
  -2   4  13  104.58    7.73
  -2   4  13   89.70   14.53
   0  -4 -13   50.34    4.50
   0  -4 -13   48.15    9.86
   0  -4 -13   62.22    4.88
   0  -4  13   54.68    5.26
   0   4 -13   36.58   14.25
   0   4 -13   45.06    9.32
   0   4 -13   43.44    4.31
   0   4 -13   44.00    4.64
   0   4  13   46.73    5.23
  -4  -4 -13   80.53    9.26
  -6  -4 -13   52.82   10.67
  -8  -4 -13   21.30   11.31
   9  -5 -13   66.81   10.64
  -9  -5  13   66.10   13.86
  -9   5  13   12.19   17.15
   9   5 -13   43.43    8.22
   7  -5 -13   42.84    8.23
   7   5 -13   51.22    7.44
  -7   5  13   40.91   15.20
  -5  -5  13  119.62   10.01
  -5  -5  13  114.83   18.56
   5  -5 -13  144.06   10.08
  -5  -5  13  143.15    8.76
  -5  -5  13  143.88    9.74
  -5   5  13  139.58    9.53
  -5   5  13  148.96    8.60
  -5   5  13  145.82   22.23
  -5   5  13  142.56    9.31
   5   5 -13  141.25   10.07
  -3  -5  13    4.00    3.48
  -3  -5  13   -8.76   10.70
  -3  -5  13    2.45    4.18
   3  -5 -13   -2.48    4.76
   3  -5 -13   -3.56    4.50
  -3  -5  13    1.70    4.51
  -3   5  13    7.90    4.62
  -3   5  13   -0.94    4.70
   3   5 -13    3.27    4.47
   1  -5 -13  171.81    9.38
   1  -5 -13  196.67   18.19
   1  -5 -13  190.59   16.63
   1  -5 -13  177.07    9.08
  -1  -5  13  173.24    9.44
  -1  -5  13  175.88    9.49
   1  -5 -13  160.49    9.28
   1   5 -13  175.59    9.07
   1   5 -13  166.38   16.68
  -1   5  13  173.39    9.69
  -1   5  13  168.97    9.39
   1   5 -13  167.98    9.40
   1   5 -13  121.92   19.85
  -1  -5 -13   76.53   13.57
  -1   5 -13   70.44   13.12
  -1   5 -13   61.63   13.65
  -3  -5 -13   87.98    8.84
  -5  -5 -13  147.67   13.55
  -7  -5 -13   21.17   10.24
  -8  -6  13   14.63    9.17
   8  -6 -13   21.34    8.38
  -8   6  13    4.42   16.86
   8   6 -13   15.39    6.35
   6  -6 -13   98.16    9.09
  -6  -6  13   73.92   18.77
  -6   6  13   86.45   17.37
  -6   6  13  102.14    7.64
   6   6 -13  100.32    8.96
  -2  -6  13  182.53    9.86
   2  -6 -13  171.30    9.91
   2  -6 -13  165.69    9.78
  -2  -6  13  179.52    9.92
  -2  -6  13  157.87   18.14
   2  -6 -13  187.88   17.33
   2   6 -13  166.50    9.80
  -2   6  13  175.86    9.77
  -2   6  13  184.00   15.64
  -2   6  13  174.54   10.10
   0  -6 -13    7.35    8.29
   0  -6 -13    6.51    9.39
   0  -6 -13    9.79    4.01
   0  -6  13    7.48    4.44
   0  -6 -13    7.72    3.43
   0   6 -13    2.85    8.27
   0   6  13   11.11    4.62
   0   6 -13   11.52    3.64
   0   6 -13    3.84    3.80
   0   6 -13   20.57   12.39
  -2  -6 -13    7.93    5.61
  -4  -6 -13   43.91    8.61
  -6  -6 -13   22.17   10.05
   7  -7 -13   96.06    9.98
  -7  -7  13   51.68   20.47
  -7   7  13   69.76   18.40
   7   7 -13   90.20    9.00
   5  -7 -13   31.88    6.54
  -5  -7  13   30.96    5.87
  -5  -7  13   17.44   12.43
  -5  -7  13   24.05    4.64
  -5  -7  13   24.22    5.90
   5   7 -13   32.35    6.26
  -5   7  13   33.74    4.91
  -5   7  13   27.69    5.90
  -5   7  13   22.86   13.73
  -5   7  13   32.67    6.01
  -3  -7  13   99.93   17.33
   3  -7 -13   66.55    6.58
  -3  -7  13   68.32    6.37
   3  -7 -13   69.30    6.83
  -3  -7  13   46.93    4.94
  -3  -7  13   61.69    6.08
  -3   7  13   55.65    6.57
  -3   7  13   65.53    6.41
  -3   7  13   47.46   10.95
   3   7 -13   67.29    6.37
  -1  -7  13   66.86    5.69
   1  -7 -13   74.52    5.81
   1  -7 -13   73.50   11.84
   1  -7 -13   61.83   10.80
   1  -7 -13   80.01    6.75
  -1  -7  13   68.29    6.17
   1  -7 -13   68.09    6.01
  -1   7  13   70.40    6.43
   1   7 -13   71.27    5.94
   1   7 -13   72.42    6.13
   1   7 -13   57.66   10.68
   1   7 -13   54.27   15.13
  -1   7  13   52.23    5.47
  -1  -7 -13  220.22   18.28
   1  -7  13  221.16   10.99
  -1  -7 -13  212.98   18.33
  -1   7 -13  181.92   25.30
  -1   7 -13  231.28   18.77
   1   7  13  215.76   11.30
  -3  -7 -13   45.27    7.53
  -5  -7 -13  166.69   15.04
  -7  -7 -13   14.12    9.90
   8  -8 -13   16.31    7.85
  -8  -8  13    2.61    8.59
  -8   8  13  -11.82   16.09
   8   8 -13    5.73    6.67
   6  -8 -13   56.63    7.88
  -6  -8  13   36.01   15.06
   6   8 -13   40.78    6.90
  -6   8  13   40.15   16.08
  -6   8  13   48.99    5.59
   2  -8 -13  212.49   11.25
  -2  -8  13  199.36   11.27
  -2  -8  13  198.49   19.44
   2  -8 -13  224.61   11.41
  -2  -8  13  212.31   11.23
   2  -8 -13  220.41   18.87
  -2   8  13  184.38   16.88
  -2   8  13  219.83   11.22
   2   8 -13  206.02   11.14
  -2   8  13  205.53   11.39
   0  -8 -13    3.59    8.19
   0  -8 -13    6.43    9.13
   0  -8  13   -1.80    4.39
   0  -8 -13   -0.57    4.06
   0  -8  13    0.27    4.24
   0   8  13    7.54    4.84
   0   8 -13    4.31    3.64
   0   8 -13   -1.74    3.96
   0   8 -13    6.83   18.14
   0   8 -13   -3.24    8.22
  -2  -8 -13   37.84   10.56
  -2  -8 -13   42.57    6.84
  -2   8 -13   40.73   10.43
  -4  -8 -13    4.04    7.42
  -6  -8 -13   53.04   11.93
  -7  -9  13    9.42   16.66
   7  -9 -13   24.21    7.80
   7   9 -13   23.37    6.56
  -7   9  13   18.45   15.07
  -5  -9  13   10.49    5.65
  -5  -9  13   10.44   12.10
  -5  -9  13   12.74    4.29
  -5  -9  13    6.97    6.14
   5  -9 -13    9.17    6.25
  -5   9  13   18.60   11.09
  -5   9  13   12.14    5.74
  -5   9  13   12.37    5.62
  -5   9  13    6.70    4.29
   5   9 -13    4.06    5.22
   3  -9 -13   18.49    5.67
  -3  -9  13   10.49   10.05
  -3  -9  13   12.64    5.31
   3  -9 -13   21.03    5.77
  -3  -9  13    9.08    3.81
  -3  -9  13    8.57    5.19
  -3   9  13   18.15    5.30
  -3   9  13   21.77    5.75
   3   9 -13   18.57    5.48
  -3   9  13   18.48    7.88
   1  -9 -13   23.90    9.44
   1  -9 -13   21.71    5.11
   1  -9 -13   35.04    5.37
  -1  -9  13   20.77    4.75
  -1  -9  13   32.85    5.48
   1  -9 -13    7.16   12.10
   1  -9 -13   21.27    4.49
  -1   9  13   24.94    4.88
   1   9 -13   22.88    5.06
  -1   9  13   34.79    5.98
   1   9 -13   -4.11   15.26
   1   9 -13   21.33    9.35
   1   9 -13   23.28    4.47
  -1  -9 -13    9.84    9.21
   1  -9  13   -0.95    4.80
  -1  -9 -13    1.93    8.71
  -1   9 -13    5.88    8.98
   1   9  13   -2.19    5.06
  -3  -9 -13   29.82    7.31
  -5  -9 -13   69.50   11.09
  -7  -9 -13   35.60   13.68
  -8 -10  13  -18.22   19.27
  -8 -10  13   16.31    9.99
   8 -10 -13   35.71    8.88
   8  10 -13   31.55    7.35
   6 -10 -13   44.40    7.79
  -6 -10  13   50.50   16.00
   6  10 -13   37.81    6.70
  -6  10  13   45.58    6.62
  -6  10  13   45.07    5.76
  -6  10  13   50.75   12.86
  -4 -10  13   71.60    7.51
   4 -10 -13   74.72    7.89
  -4 -10  13   74.94    7.56
  -4 -10  13   53.52   13.73
   4 -10 -13   69.95    8.15
  -4 -10  13   59.61    6.25
  -4  10  13   78.97    7.52
  -4  10  13   62.67    6.07
  -4  10  13   77.62    7.79
   4  10 -13   64.22    7.61
  -4  10  13  101.34   15.98
   2 -10 -13   34.12    5.95
   2 -10 -13   31.75    5.82
  -2 -10  13   30.73    5.81
  -2 -10  13   20.03    9.80
  -2 -10  13   37.10    5.51
   2 -10 -13   32.23   10.52
  -2  10  13   39.62    5.96
   2  10 -13   31.97    5.66
  -2  10  13   18.58    9.23
  -2  10  13   42.72    6.37
   0 -10  13  126.01    8.48
   0 -10 -13  102.38    8.23
   0 -10 -13  101.02    7.81
   0 -10 -13  115.46   16.78
   0 -10 -13  139.85   16.57
   0 -10  13  118.07    8.88
   0  10  13  116.64    9.10
   0  10 -13  120.52   16.98
   0  10 -13  116.18    7.92
   0  10 -13  120.04    8.28
  -2 -10 -13   76.77   13.12
   2 -10  13   98.00    8.51
  -2 -10 -13   92.95   17.07
  -2 -10 -13   91.82    9.27
  -2  10 -13   97.22   17.44
  -4 -10 -13   63.16    9.69
  -6 -10 -13   22.96   10.80
  -7 -11  13   38.12   17.73
   7 -11 -13   70.48    9.57
   7  11 -13   47.22    7.79
  -5 -11  13  129.60    9.20
  -5 -11  13  124.49    9.97
   5 -11 -13  126.28   10.86
  -5 -11  13  122.34   10.61
  -5 -11  13  150.88   24.19
   5  11 -13  111.03   10.17
  -5  11  13  120.98   10.00
  -5  11  13  115.01    9.59
   3 -11 -13  121.54   10.39
  -3 -11  13  112.05    9.69
  -3 -11  13  126.26   20.02
  -3 -11  13  125.23   10.01
   3 -11 -13  118.69    9.64
  -3 -11  13  104.35    8.28
  -3  11  13  125.04    9.72
   3  11 -13  107.13    9.41
  -3  11  13  117.64    9.58
  -3  11  13  126.68   17.06
  -1 -11  13  115.55    8.72
  -1 -11  13  110.12    8.51
   1 -11 -13  109.13   17.44
   1 -11 -13  117.67    8.79
   1 -11 -13   89.35   15.85
   1 -11 -13  108.30    8.41
   1  11 -13  118.12    8.08
  -1  11  13  108.85    8.94
   1  11 -13  107.43    8.59
  -1  11  13  104.29    8.65
   1 -11  13   35.39    6.09
  -1 -11 -13   27.07   10.80
  -1 -11 -13   29.68   11.11
  -1 -11 -13   29.49    6.13
  -1  11 -13   19.07   10.26
  -1  11 -13   43.22   20.34
   1  11  13   27.99    6.55
  -3 -11 -13    0.26    6.53
  -3 -11 -13   -6.28   11.00
  -3 -11 -13    6.72   10.21
  -3  11 -13   -9.00   13.90
  -3  11 -13   -0.73   10.85
  -5 -11 -13   39.35    9.86
  -7 -11 -13    2.90    9.54
  -8 -12  13   45.14   12.35
   8 -12 -13   57.26   10.73
   8  12 -13   53.23    8.71
   6 -12 -13  121.81   10.87
  -6 -12  13   80.44   18.39
  -6 -12  13   99.04    8.56
  -6  12  13  100.58    8.67
   6  12 -13   99.43    9.46
  -4 -12  13   89.72    8.68
  -4 -12  13   75.09   16.29
  -4 -12  13   91.05    9.09
   4 -12 -13   97.86    9.22
   4  12 -13   90.43    8.68
  -4  12  13  135.93   18.14
  -4  12  13  113.82   10.05
  -4  12  13  101.22    8.83
  -2 -12  13   66.76    7.39
  -2 -12  13   59.96    7.30
   2 -12 -13   89.03    7.84
  -2 -12  13   50.26   11.89
   2 -12 -13  100.10   18.24
   2 -12 -13   78.77    7.48
  -2  12  13   66.70    7.80
  -2  12  13   63.00    7.06
   2  12 -13   81.89    7.51
   0 -12 -13   31.65   10.32
   0 -12  13    7.14    5.64
   0 -12 -13    8.51    5.36
   0 -12 -13    3.89    5.25
   0 -12  13   19.15    5.30
   0 -12 -13    4.30   10.53
   0  12 -13    5.28    4.46
   0  12 -13    5.53    4.74
   0  12  13    4.55    6.35
   0  12  13    1.70    4.58
   0  12 -13    5.50    9.71
  -2 -12 -13  206.35   13.28
  -2 -12 -13  223.29   22.54
  -2 -12 -13  214.75   23.50
   2 -12  13  245.81   13.06
  -2  12 -13  162.11   29.48
  -2  12 -13  226.99   22.71
  -4 -12 -13   97.65   11.13
  -4  12 -13   63.95   17.03
  -6 -12 -13    9.85    9.34
   7 -13 -13   19.28    8.79
   7  13 -13   27.54    7.31
   5 -13 -13   40.27    7.82
  -5 -13  13   18.92   14.86
  -5 -13  13   34.21    7.62
  -5 -13  13   27.48    7.47
  -5  13  13   46.51    7.31
   5  13 -13   34.18    7.05
  -5  13  13   42.14    6.86
   3 -13 -13   82.32    8.69
  -3 -13  13   62.42   15.38
   3 -13 -13   87.53    9.18
  -3 -13  13   83.91    8.50
  -3 -13  13   69.90    8.09
  -3  13  13   98.70    8.64
  -3  13  13   84.10    8.76
   3  13 -13   79.47    8.28
   1 -13 -13   91.44   14.99
   1 -13 -13   94.13    8.21
  -1 -13  13   89.48    8.05
   1 -13 -13   92.89    8.69
  -1 -13  13   84.40    8.08
  -1  13  13   92.43    8.99
   1  13 -13   95.15    7.87
  -1  13  13   70.44    7.41
   1  13 -13   85.09    8.00
  -1 -13 -13   19.63   11.75
  -1 -13 -13   23.57    6.38
   1 -13  13   33.83    6.58
  -1 -13 -13   20.49   12.50
   1  13  13   39.23    7.74
  -1  13 -13   20.73   11.59
  -1  13 -13   24.42    5.00
  -1  13 -13   34.32   20.83
  -3 -13 -13   78.12    9.18
  -3 -13 -13   62.64   13.19
   3 -13  13   81.69    8.28
  -3 -13 -13   73.16   15.79
  -3  13 -13   24.43   17.71
  -3  13 -13   69.40   15.05
  -5 -13 -13   16.31    9.59
  -7 -13 -13   22.37   12.61
   6 -14 -13  124.22   12.42
  -6 -14  13   96.99   10.56
   6  14 -13   90.80    9.88
  -6  14  13  107.81    9.25
  -4 -14  13  223.45   14.38
   4 -14 -13  207.64   13.26
  -4 -14  13  204.92   13.50
  -4  14  13  208.71   13.38
  -4  14  13  204.24   12.94
   4  14 -13  190.85   13.08
   2 -14 -13  270.59   15.14
  -2 -14  13  273.80   15.51
   2 -14 -13  299.23   15.65
  -2 -14  13  269.74   15.16
  -2  14  13  274.28   15.57
  -2  14  13  283.01   15.66
   2  14 -13  254.63   14.48
   0 -14  13  131.15   10.34
   0 -14  13  104.46   11.30
   0 -14 -13  125.20   21.83
   0 -14 -13  125.82    9.53
   0 -14 -13  129.75   10.50
   0 -14 -13  158.72   21.82
   0  14  13  122.89   11.51
   0  14 -13  135.83    9.73
   0  14 -13  136.36    9.81
   2 -14  13  471.07   21.26
  -2 -14 -13  486.08   32.29
  -2 -14 -13  445.25   33.19
   2  14  13  405.09   21.55
  -2  14 -13  450.92   33.00
  -2  14 -13  380.50   39.29
  -4 -14 -13   18.19   14.01
  -4 -14 -13    6.07    8.51
  -4  14 -13  -14.94   15.96
  -4  14 -13   14.28   12.80
  -6 -14 -13   33.87   12.90
  -7 -15  13   43.64   10.88
   7 -15 -13   29.61   10.03
   7  15 -13   33.14    7.75
   5 -15 -13   50.10    8.45
  -5 -15  13   52.08    8.77
  -5  15  13   55.84    7.86
   5  15 -13   42.24    7.74
  -5  15  13   48.80    7.75
   3 -15 -13   43.48    7.60
  -3 -15  13   28.30    7.11
   3 -15 -13   32.74    7.63
  -3 -15  13   25.16    7.24
   3  15 -13   30.86    7.21
  -3  15  13   36.79    7.70
  -3  15  13   33.40    7.91
  -1 -15  13    6.17    6.09
   1 -15 -13   15.68    6.79
   1 -15 -13   10.55   11.63
  -1 -15  13   10.55    6.20
   1 -15 -13   10.06    6.88
  -1  15  13    3.75    7.47
   1  15 -13   11.71    6.10
  -1  15  13    0.56    6.08
   1 -15  13  222.01   13.24
  -1 -15 -13  227.55   25.85
  -1 -15 -13  221.77   28.34
  -1 -15 -13  195.82   13.19
   1  15  13  198.94   14.69
  -1  15 -13  228.73   12.27
  -3 -15 -13   23.74   12.70
  -3 -15 -13   -6.18    7.51
  -3 -15 -13   13.27   14.50
   3 -15  13   13.67    6.48
  -3  15 -13  -15.10   18.73
   3  15  13    9.34    7.86
  -3  15 -13    7.19   12.32
  -5 -15 -13   37.53   11.49
  -5  15 -13   36.36   15.30
  -5  15 -13   10.76   19.17
   6 -16 -13   35.45    8.71
   6  16 -13   29.32    7.99
  -6  16  13   33.09    7.70
   4 -16 -13  132.12   11.79
  -4 -16  13  115.91   11.13
  -4 -16  13  111.86   10.55
  -4  16  13  124.94   10.77
  -4  16  13  125.17   11.12
   4  16 -13  119.63   10.59
  -2 -16  13   16.06    6.87
  -2 -16  13   20.24    6.56
   2 -16 -13   16.41    7.66
   2 -16 -13   10.82    7.25
  -2  16  13    5.55    7.49
  -2  16  13   12.06    7.30
   2  16 -13   13.08    6.59
   0 -16 -13   16.06    6.61
   0 -16 -13   15.17    7.26
   0 -16  13   19.06    6.77
   0 -16 -13   13.44   13.09
   0  16 -13   22.79    5.93
   0  16  13   24.09    8.09
   0  16 -13  -11.99   28.11
   2 -16  13   82.91    8.80
  -2 -16 -13   86.81    9.99
  -2 -16 -13   76.71   17.65
   2  16  13   94.72   10.44
  -4 -16 -13   12.31    8.99
  -4 -16 -13   30.11   15.88
  -4 -16 -13   17.29   16.96
  -4  16 -13    8.97   19.25
  -6 -16 -13   -2.95   11.54
  -7 -17  13   12.36   10.19
   7 -17 -13    7.82   10.75
   7  17 -13   11.89    7.86
   5 -17 -13   28.78    9.95
  -5 -17  13   26.61    8.54
  -5  17  13   38.87    8.20
  -5  17  13   37.54    8.26
   5  17 -13   25.97    7.57
  -3 -17  13   22.82    7.37
   3 -17 -13   36.63    8.24
  -3 -17  13   32.10    7.97
   3  17 -13   26.82    7.43
  -3  17  13   28.94    8.26
  -3  17  13   23.25    7.68
   1 -17 -13  111.23   10.31
  -1 -17  13   97.91    9.36
   1 -17 -13   98.42   10.26
   1  17 -13  110.06    9.39
  -1  17  13  101.93   11.05
  -1 -17 -13   39.86   15.87
  -1 -17 -13   46.08    7.86
   1 -17  13   45.13    7.88
  -1  17 -13   37.53    6.27
   1  17  13   57.12   10.22
  -1  17 -13   43.88   26.50
  -1  17 -13   49.02    6.67
  -3 -17 -13   20.67   16.98
  -3 -17 -13    9.51    8.23
   3 -17  13   26.57    7.85
  -3  17 -13  -27.54   20.20
   3  17  13   22.02    8.27
   5 -17  13   10.65    8.85
  -5 -17 -13    1.68   11.43
  -5 -17 -13   -5.14   16.97
  -5  17 -13  -10.28   19.91
  -6 -18  13   28.31   10.16
   6 -18 -13   40.48    9.73
   6  18 -13   14.94    8.12
  -6  18  13   36.28    8.17
  -4 -18  13    4.49    7.21
  -4 -18  13   12.95    8.22
   4 -18 -13   -0.33    7.48
  -4  18  13    1.96    7.38
  -4  18  13   10.61    7.93
   4  18 -13    0.14    7.05
   2 -18 -13  106.34   10.97
  -2 -18  13   72.95    9.51
  -2 -18  13   80.26   10.39
   2 -18 -13  111.85   11.64
  -2  18  13   85.52   10.56
  -2  18  13   85.78   10.83
   2  18 -13   88.61    9.46
   0 -18 -13   55.66    8.14
   0 -18 -13   43.00    8.78
   0 -18  13   44.74    8.08
   0  18  13   52.17   10.36
   0  18 -13   48.59    7.13
  -2 -18 -13   22.92   15.49
  -2 -18 -13    7.27    7.73
   2 -18  13    9.37    7.34
   2  18  13   42.10    9.96
  -2  18 -13  -43.49   23.14
  -4 -18 -13    4.78   17.51
   4 -18  13   20.69    8.55
   4  18  13   20.88   10.41
  -4  18 -13  -28.57   21.93
  -5 -19  13   48.93   10.57
   5  19 -13   53.19    9.39
  -5  19  13   53.15    9.47
   3 -19 -13   22.27    8.34
  -3 -19  13   18.33    8.13
  -3 -19  13   13.26    8.07
  -3  19  13   17.68    8.59
  -3  19  13   21.57    8.23
   3  19 -13   13.99    7.68
   1 -19 -13   67.21   10.64
   1 -19 -13   60.64    9.02
  -1 -19  13   53.65    8.94
  -1  19  13   60.66   10.64
   1  19 -13   52.50    8.06
  -1 -19 -13   51.48    8.90
   1 -19  13   40.18    8.49
  -1 -19 -13   28.89   16.60
   1  19  13   39.91    9.86
  -1  19 -13   41.97    6.79
  -3 -19 -13    6.56   17.56
  -3 -19 -13    4.74    9.09
   3 -19  13   21.78    8.17
   3  19  13   39.07   10.76
  -3  19 -13  -36.95   24.17
   5 -19  13   10.39    8.06
  -5 -19 -13   18.11   21.49
  -5 -19 -13    0.82   11.94
  -5  19 -13  -20.23   22.48
   6 -20 -13    6.49    9.84
  -6 -20  13    9.89   10.22
   6  20 -13   11.09    8.33
  -6  20  13   12.01    8.25
  -4 -20  13   14.41    8.46
  -4 -20  13   23.49    9.38
   4 -20 -13    0.90    8.73
  -4  20  13   26.57    8.80
   4  20 -13   13.91    7.97
  -4  20  13   10.34    8.37
   2 -20 -13    5.43    9.37
  -2 -20  13   13.11    7.98
   2 -20 -13   15.31   10.58
  -2  20  13   15.15    9.18
   2  20 -13   20.73    7.64
   0 -20  13   40.76    8.63
   0 -20 -13   30.41    8.85
   0 -20 -13   28.38    8.60
   0  20 -13   21.04    6.70
   0  20  13   22.47   10.43
  -2 -20 -13   -5.08    7.83
  -2 -20 -13   -0.52   16.74
   2 -20  13  -15.47    6.95
   2  20  13   14.85    9.36
   4 -20  13    7.79    8.19
  -4 -20 -13  -10.76   16.52
  -5 -21  13   20.58   10.33
   5 -21 -13   23.38   10.31
   5  21 -13   26.82    9.01
  -5  21  13   41.51    9.57
  -3 -21  13   39.73    9.37
   3 -21 -13   56.37   10.27
  -3 -21  13   51.75   10.03
   3  21 -13   44.06    9.24
  -3  21  13   49.82   10.60
   1 -21 -13    8.93    9.57
  -1 -21  13   26.30    8.67
   1 -21 -13   11.09    8.93
  -1  21  13   12.96   10.44
   1  21 -13   10.21    7.21
   1 -21  13   31.86    8.58
  -1 -21 -13   23.15    9.21
   1  21  13   28.01   11.42
  -3 -21 -13   12.01   10.04
  -3 -21 -13   -6.87   17.88
   3 -21  13   10.19    8.53
   3  21  13   17.44   11.34
   4 -22 -13   18.91   11.19
  -4 -22  13   11.62    9.37
   4  22 -13    0.60    8.57
  -4  22  13   17.97    9.42
  -4  22  13    7.68    9.40
  -2 -22  13   -1.85    8.11
   2 -22 -13    2.90    8.08
  -2  22  13   -4.16    9.32
   2  22 -13   12.17    8.04
   0 -22  13   -4.30    7.33
   0 -22 -13   -3.23   10.56
   0  22  13    8.53   11.05
   0  22 -13    1.94    6.74
   2 -22  13    6.75    9.48
  -2  22 -13   15.74    7.38
   2  22  13   15.60   10.41
   4 -22  13    2.38    9.82
   4  22  13   -0.32   11.98
  -3 -23  13   36.48   10.53
  -3 -23  13   43.59   11.33
  -3 -23  13   33.00    7.95
   3 -23 -13   27.84    9.45
  -3  23  13   60.77   11.60
   3  23 -13   17.90    8.84
   1 -23 -13    0.94   11.12
   1 -23 -13   18.27   10.85
  -1 -23  13   14.29    8.97
   1  23 -13    3.17    7.14
  -1  23  13   -6.07   10.85
   1 -23  13   11.03    9.77
  -1 -23 -13    7.36    9.84
   1  23  13    8.43   13.29
   3 -23  13   11.00    8.85
  -3 -23 -13    3.50   10.25
   3  23  13   19.84   11.30
  -2 -24  13   -0.47    8.69
  -2  24  13    4.27    9.99
   2  24 -13   -0.20    8.50
   0 -24 -13   17.01   10.46
   0 -24  13    2.27    8.69
   0  24  13   -0.16   12.93
   0  24 -13    2.20    7.03
   2 -24  13    6.58    8.98
  -2  24 -13    9.51    8.27
  -3 -25  13   21.71   10.43
  -3 -25  13   16.04    8.95
   3  25 -13   21.28    9.25
  -3  25  13    3.93   10.89
   1 -25 -13    2.34    9.07
  -1 -25  13   12.93   10.08
   1 -25 -13   -9.12   10.88
   1  25 -13    2.66    7.15
  -1  25  13    6.02   12.65
   1 -25  13   -4.21    9.29
  -1  25 -13    9.32    8.56
   0 -26  13    6.11   10.68
   0  26  13   36.98   14.26
   8   0 -14   64.78    9.24
  -8   0  14   46.23   17.88
  -8   0  14   88.73   11.76
  -6   0  14   13.02    4.49
   6   0 -14   13.29    6.27
  -6   0  14    7.58   14.89
  -4   0  14  503.76   22.36
   4   0 -14  512.91   22.66
  -4   0  14  538.56   22.09
  -4   0  14  506.81   22.24
  -4   0  14  522.80   34.41
   4   0 -14  523.53   22.69
  -2   0  14  105.23    7.82
  -2   0  14  112.47    7.73
   2   0 -14  113.95    7.82
   2   0 -14  121.40    8.06
  -2   0  14  107.46   15.96
   0   0 -14  230.39   10.14
   0   0 -14  181.97   19.54
   0   0  14  224.34   10.81
  -9  -1  14   20.41   10.74
   9  -1 -14   26.17    8.26
  -9  -1  14   24.56   16.29
  -9   1  14   38.96   10.76
   9   1 -14   24.88    7.88
  -9   1  14   31.82   16.63
   7  -1 -14   49.20    8.06
  -7  -1  14   24.77   16.49
  -7  -1  14   61.15   10.02
   7   1 -14   57.25    7.98
  -7   1  14   66.75    9.61
  -7   1  14   32.62   16.32
  -5  -1  14   52.63    6.22
   5  -1 -14   55.59    7.16
  -5  -1  14   51.52    5.48
  -5  -1  14   15.90   15.60
  -5  -1  14   54.52    6.37
  -5   1  14   57.03    6.24
  -5   1  14   51.12   15.06
  -5   1  14   46.75    5.98
   5   1 -14   48.13    6.86
  -5   1  14   52.71    5.36
  -3  -1  14  193.19   24.04
  -3  -1  14  253.38   11.74
  -3  -1  14  223.74   11.73
   3  -1 -14  237.81   11.97
   3  -1 -14  235.46   12.15
   3   1 -14  231.77   12.08
  -3   1  14  229.91   11.64
  -3   1  14  240.01   11.87
  -3   1  14  214.98   22.04
   3   1 -14  235.02   11.91
   1  -1 -14  647.09   26.83
   1  -1 -14  646.57   34.90
  -1  -1  14  645.47   27.03
   1  -1 -14  656.21   26.70
  -1  -1  14  652.09   26.87
   1  -1 -14  674.48   26.88
   1   1 -14  641.62   34.37
   1   1 -14  669.79   26.89
   1   1 -14  649.01   26.66
  -1   1  14  666.29   26.92
  -1   1  14  660.16   27.09
  -1  -1 -14  319.50   30.16
  -1  -1 -14  356.88   22.05
  -1   1 -14  315.24   25.90
  -1   1 -14  334.36   22.25
  -7  -1 -14   18.21   11.07
   8  -2 -14   14.53    7.82
  -8  -2  14   10.51    8.99
  -8  -2  14  -13.18   16.75
   8   2 -14    5.23    6.66
  -8   2  14   -2.34   15.44
  -8   2  14   18.07    9.05
  -6  -2  14   82.26    7.42
   6  -2 -14  108.16    9.42
  -6  -2  14   95.26    7.88
  -6  -2  14   71.46   20.48
   6   2 -14  101.54    8.75
  -6   2  14  101.95    7.72
  -6   2  14   87.84    7.27
  -6   2  14  100.08   18.62
  -4  -2  14   29.35    5.42
  -4  -2  14   34.68    5.26
   4  -2 -14   41.66    6.15
  -4  -2  14   26.39   14.67
   4  -2 -14   36.86    6.10
  -4  -2  14   27.20    4.19
  -4   2  14  -45.64   40.05
  -4   2  14   34.84    5.72
   4   2 -14   34.52    6.02
  -4   2  14   36.49    5.55
  -4   2  14   25.14    4.30
  -4   2  14   24.44   11.49
   4   2 -14   33.08    5.76
  -2  -2  14  208.12   10.68
  -2  -2  14  185.48   20.73
   2  -2 -14  203.08   10.75
   2  -2 -14  207.49   10.59
  -2  -2  14  203.44   10.55
  -2   2  14  193.06   20.38
  -2   2  14  197.38   10.78
   2   2 -14  198.71   10.71
  -2   2  14  212.36   10.67
   0  -2 -14   49.04   30.36
   0  -2 -14   77.43   11.89
   0  -2 -14   93.08    5.89
   0  -2  14   91.82    6.80
   0   2 -14   52.45   17.79
   0   2  14   92.80    6.86
   0   2 -14   91.16    5.98
   0   2 -14   66.31   11.73
  -6  -2 -14   13.10    9.58
  -8  -2 -14   31.03   12.62
  -9  -3  14    1.18   17.56
   9  -3 -14   22.49    8.86
  -9  -3  14   20.12   11.41
  -9   3  14   28.77   16.14
   9   3 -14   27.26    8.17
   7  -3 -14   31.42    7.87
  -7   3  14   23.62   15.02
   7   3 -14   33.81    7.07
  -7   3  14   36.94    8.47
  -5  -3  14   66.23    6.79
   5  -3 -14   63.84    7.62
  -5  -3  14   67.93    5.94
  -5  -3  14   -8.31   33.09
  -5  -3  14   43.19   18.55
  -5  -3  14   68.07    6.84
  -5   3  14   81.93    7.03
  -5   3  14   66.41    5.80
  -5   3  14   43.25   13.44
   5   3 -14   75.47    7.31
  -5   3  14   69.42    6.65
  -3  -3  14   85.60    7.28
  -3  -3  14   85.04    7.30
  -3  -3  14   46.21   15.38
   3  -3 -14   86.47    7.73
   3  -3 -14   79.34    6.81
   3   3 -14  100.98    7.44
  -3   3  14   82.79    7.25
  -3   3  14   87.51    7.03
   3   3 -14   95.32    7.68
   1  -3 -14  421.31   17.69
   1  -3 -14  416.41   17.96
   1  -3 -14  414.72   17.87
  -1  -3  14  420.92   18.09
   1  -3 -14  408.98   25.75
  -1  -3  14  414.15   17.91
   1   3 -14  413.36   17.88
  -1   3  14  391.68   18.10
   1   3 -14  428.77   24.64
   1   3 -14  403.26   17.58
   1   3 -14  381.57   36.18
  -1   3  14  436.24   18.03
  -1  -3 -14  127.75   15.33
  -1   3 -14  105.17   15.51
  -1   3 -14  118.26   18.76
  -5  -3 -14  120.03   12.47
  -7  -3 -14   14.26    9.99
  -8  -4  14   35.09   10.23
   8  -4 -14   21.97    8.36
  -8   4  14   20.67   15.66
   8   4 -14   14.77    7.12
   6  -4 -14    1.48    6.22
  -6  -4  14   -1.77    5.63
  -6   4  14    5.59   13.40
  -6   4  14   -3.77    4.89
  -6   4  14    1.33    4.01
   6   4 -14    1.26    5.52
  -4  -4  14   16.53    3.79
  -4  -4  14   20.17    5.15
   4  -4 -14   12.44    5.55
  -4  -4  14    0.95   13.90
   4  -4 -14   12.33    5.66
  -4  -4  14   19.12    5.32
  -4   4  14  -29.87   43.47
   4   4 -14   12.42    5.90
  -4   4  14   11.28    5.13
  -4   4  14    7.55    3.91
  -4   4  14   19.04   11.06
  -4   4  14   18.12    5.49
   4   4 -14   13.72    5.31
   2  -4 -14   36.30    9.47
  -2  -4  14   49.86    5.31
   2  -4 -14   67.11    5.80
  -2  -4  14   47.29    5.79
   2  -4 -14   54.02    5.88
  -2   4  14   51.88    5.53
  -2   4  14   57.56    5.97
   2   4 -14   50.22    5.58
  -4  -4 -14   15.05    7.30
  -6  -4 -14   54.60   10.87
   7  -5 -14   98.01   10.12
   7   5 -14   88.17    9.02
  -7   5  14   69.09   16.95
  -5  -5  14    4.82    3.96
  -5  -5  14   -5.86   14.55
  -5  -5  14   17.84    5.40
  -5  -5  14    3.12    5.34
   5  -5 -14    1.23    5.89
  -5   5  14   11.97   12.21
  -5   5  14    2.24    3.97
   5   5 -14    1.24    5.34
  -5   5  14    7.29    5.41
  -5   5  14   12.09    5.44
  -3  -5  14   30.59   13.22
   3  -5 -14   61.17    6.26
  -3  -5  14   50.26    5.80
   3  -5 -14   57.01    6.27
  -3  -5  14   50.29    5.63
  -3   5  14   52.40    6.26
  -3   5  14   35.00   11.13
  -3   5  14   53.60    5.99
   3   5 -14   57.79    6.06
  -1  -5  14   71.33    5.86
   1  -5 -14   70.58    6.44
   1  -5 -14   56.34   11.56
   1  -5 -14   80.50   14.24
   1  -5 -14   70.57    5.93
   1  -5 -14   76.77    6.27
  -1  -5  14   78.67    6.79
  -1   5  14   76.87    6.42
   1   5 -14   73.68    6.04
  -1   5  14   62.99    5.68
   1   5 -14   77.02    6.58
   1   5 -14   32.61   18.94
   1   5 -14   52.19   10.40
   1  -5  14  263.42   12.56
  -1  -5 -14  193.56   24.22
  -1  -5 -14  286.27   21.15
  -1   5 -14  277.15   19.42
  -3  -5 -14  107.28   10.27
  -5  -5 -14   21.67    8.94
  -7  -5 -14   22.31   12.21
   8  -6 -14   27.78    8.98
  -8  -6  14   20.31   10.07
   8   6 -14   41.78    8.03
  -8   6  14   10.57   17.24
   6  -6 -14   11.38    6.17
  -6  -6  14   11.03    4.57
  -6  -6  14  -12.34   15.96
  -6   6  14   24.34   14.56
   6   6 -14   11.28    6.18
  -6   6  14   18.71    4.58
  -6   6  14   22.33    5.75
   2  -6 -14   69.67    6.45
  -2  -6  14   62.96    5.96
   2  -6 -14   57.77   11.00
   2  -6 -14   81.26    6.52
  -2  -6  14   36.26   12.69
  -2  -6  14   72.90    6.30
  -2   6  14   80.51    6.84
   2   6 -14   64.13    6.34
  -2   6  14   60.84    6.02
   0  -6 -14   12.98    3.64
   0  -6 -14   12.63    8.58
   0  -6  14    9.37    4.72
   0  -6 -14    7.71    4.31
   0  -6 -14    7.01    9.99
   0   6  14    3.80    4.69
   0   6 -14    7.62    8.82
   0   6 -14  -13.40   12.85
   0   6 -14   11.49    3.56
  -2   6 -14   -4.01    9.32
  -4  -6 -14  119.62   12.01
  -6  -6 -14    4.73   10.04
   7  -7 -14   51.65    8.15
  -7  -7  14   -3.83   19.75
  -7   7  14   24.35   17.02
   7   7 -14   30.15    7.23
   5  -7 -14   15.85    6.24
  -5  -7  14   16.03    5.61
  -5  -7  14    9.43    5.70
  -5  -7  14   -1.92   12.90
  -5  -7  14   14.10    4.21
  -5   7  14   21.54    5.83
  -5   7  14   14.59    5.80
   5   7 -14   14.24    5.98
  -5   7  14   15.87    4.50
  -5   7  14    4.47   13.11
  -3  -7  14  115.20    8.89
  -3  -7  14  113.13    8.71
   3  -7 -14  119.18    8.76
  -3  -7  14  121.35   19.68
   3  -7 -14  121.40    9.33
  -3   7  14  113.60    9.04
  -3   7  14  121.19    8.89
   3   7 -14  112.73    8.73
  -3   7  14  103.73   17.79
   1  -7 -14  218.27   19.62
   1  -7 -14  209.44   11.15
  -1  -7  14  199.95   11.24
   1  -7 -14  213.19   11.10
   1  -7 -14  209.40   11.04
   1  -7 -14  241.62   21.16
  -1  -7  14  223.62   11.29
   1   7 -14  219.32   10.82
   1   7 -14  199.82   18.87
   1   7 -14  235.90   30.04
   1   7 -14  217.06   11.16
  -1   7  14  217.26   11.43
  -1   7  14  200.70   11.51
  -1  -7 -14   91.62   15.10
   1  -7  14   94.96    7.36
  -1   7 -14   79.15   17.74
  -1   7 -14   96.65   15.86
  -3  -7 -14   64.46    8.58
  -5  -7 -14  184.70   15.18
  -7  -7 -14   57.01   14.96
   8  -8 -14   15.28    8.05
  -8  -8  14  -36.89   21.76
  -8  -8  14   33.55   10.23
   8   8 -14   33.22    7.62
  -6  -8  14   20.41    6.68
  -6  -8  14   15.84   15.25
   6  -8 -14   19.31    6.76
  -6  -8  14    8.49    4.33
  -6   8  14   17.92    4.71
   6   8 -14   13.23    6.12
  -6   8  14    8.21    5.72
  -6   8  14   -3.33   14.58
  -4  -8  14  112.19    7.79
   4  -8 -14   99.16    8.86
  -4  -8  14   95.12    8.73
  -4  -8  14   94.27    7.98
  -4  -8  14   69.00   14.50
   4  -8 -14  109.73    9.19
  -4   8  14   98.58    7.39
  -4   8  14  101.08    8.09
   4   8 -14   85.93    7.96
  -4   8  14  132.29   19.98
  -4   8  14   93.39    8.25
   2  -8 -14   15.59    9.23
   2  -8 -14   22.64    5.54
  -2  -8  14   10.18    9.17
   2  -8 -14   25.55    5.51
  -2  -8  14   16.26    5.33
  -2  -8  14   25.48    5.12
  -2   8  14   23.00    5.73
   2   8 -14   17.56    5.14
  -2   8  14   20.99    5.06
   0  -8  14    1.25    4.72
   0  -8 -14  -14.94   11.31
   0  -8 -14    0.33    4.35
   0  -8 -14   -5.62    8.73
   0  -8  14    2.28    6.12
   0   8 -14   -3.62    3.67
   0   8 -14    2.59   16.39
   0   8 -14    0.85    9.03
   0   8  14   10.36    5.18
   0   8 -14    3.12    4.11
  -2  -8 -14  207.04   19.47
  -2  -8 -14  211.94   13.12
  -2  -8 -14  201.12   19.57
  -2   8 -14  280.70   28.27
  -2   8 -14  211.20   20.17
  -4  -8 -14    8.97    7.89
  -6  -8 -14   55.48   12.71
  -7  -9  14    3.43   17.81
   7  -9 -14   42.45    8.49
   7   9 -14   33.81    6.90
  -7   9  14   25.10   20.19
   5  -9 -14  108.23    9.74
  -5  -9  14   94.09    8.75
  -5  -9  14   96.79    9.01
  -5  -9  14   94.35   17.07
  -5  -9  14   89.41    7.96
  -5   9  14  115.95    8.74
   5   9 -14   90.81    8.42
  -5   9  14  114.18    8.60
  -5   9  14  111.80   20.49
  -5   9  14   91.86    9.60
  -3  -9  14   17.35   10.23
  -3  -9  14   20.60    5.66
   3  -9 -14   26.47    6.12
   3  -9 -14   30.30    6.38
  -3  -9  14   23.35    5.65
  -3   9  14   25.55    8.18
  -3   9  14   32.52    6.33
   3   9 -14   29.89    5.96
  -3   9  14   24.37    5.89
   1  -9 -14    2.56   12.24
  -1  -9  14    3.83    5.01
   1  -9 -14   -0.36    4.90
   1  -9 -14    3.10    4.90
   1  -9 -14   -1.72    8.52
   1  -9 -14    3.80    4.14
  -1  -9  14    7.31    4.74
  -1   9  14   -1.58    5.25
   1   9 -14  -17.67   15.91
  -1   9  14   -0.86    4.59
   1   9 -14    5.95    4.10
   1   9 -14    2.69    9.02
   1   9 -14    1.39    4.74
   1  -9  14  102.40    8.39
  -1  -9 -14   90.92   16.83
  -1  -9 -14  112.36   17.17
   1   9  14  110.11    8.83
  -1   9 -14   97.18   16.74
  -3  -9 -14  190.30   13.23
  -5  -9 -14   17.39    8.70
  -7  -9 -14   54.96   15.97
  -8 -10  14   -7.59    9.62
   8 -10 -14    1.75    7.84
   8  10 -14    0.98    6.52
  -6 -10  14   75.18    8.36
  -6 -10  14   48.91   16.37
   6 -10 -14   60.40    9.10
  -6 -10  14   67.58    6.52
   6  10 -14   61.13    7.76
  -6  10  14   78.94   15.15
  -6  10  14   64.08    7.40
   4 -10 -14  189.81   12.40
  -4 -10  14  158.82   11.82
  -4 -10  14  156.06   10.92
  -4 -10  14  172.88   24.23
   4 -10 -14  168.31   11.63
  -4 -10  14  172.14   11.31
  -4  10  14  166.79   11.23
  -4  10  14  183.61   19.10
   4  10 -14  148.81   11.28
  -4  10  14  164.96   11.20
   2 -10 -14  253.76   13.54
  -2 -10  14  262.90   23.78
   2 -10 -14  256.34   13.31
   2 -10 -14  274.87   22.57
  -2 -10  14  239.52   13.37
  -2 -10  14  251.52   13.56
  -2  10  14  248.35   13.73
  -2  10  14  263.69   13.69
   2  10 -14  239.99   13.29
   0 -10  14   59.24    6.26
   0 -10 -14   71.51    6.36
   0 -10 -14   62.92   12.33
   0 -10 -14   56.11   12.71
   0 -10 -14   76.11    6.57
   0 -10  14   76.22    7.21
   0  10 -14   60.69   12.08
   0  10 -14   63.47    6.15
   0  10  14   69.25    7.41
   0  10 -14   78.37    6.84
  -2 -10 -14  209.33   13.12
  -2 -10 -14  223.49   21.94
   2 -10  14  221.37   12.22
  -2 -10 -14  212.10   20.92
  -2  10 -14  212.19   21.56
  -2  10 -14  180.29   29.39
  -4 -10 -14   27.55    8.73
  -6 -10 -14   10.75   11.61
   7 -11 -14   36.72    8.39
   7  11 -14   14.41    6.93
  -5 -11  14   43.79   14.47
  -5 -11  14   37.34    6.93
   5 -11 -14   29.96    7.53
  -5 -11  14   41.31    7.25
  -5  11  14   54.17    7.13
  -5  11  14   32.51    6.79
   5  11 -14   44.30    7.38
  -5  11  14   50.17   13.12
  -3 -11  14  114.49    9.61
  -3 -11  14  114.72    9.76
   3 -11 -14  113.75    9.86
   3 -11 -14  116.88    9.35
  -3 -11  14  111.98   20.63
  -3  11  14  104.51    8.81
  -3  11  14  101.90   15.99
  -3  11  14  115.02    9.13
   3  11 -14  102.48    8.80
  -1 -11  14   29.87    5.48
   1 -11 -14    7.56   13.69
   1 -11 -14   28.87    6.02
   1 -11 -14   30.40    6.10
   1 -11 -14   24.27   10.82
  -1 -11  14   37.64    6.22
  -1  11  14   11.71    5.34
   1  11 -14   11.36   17.08
   1  11 -14   33.87    5.84
  -1  11  14   31.58    6.75
   1  11 -14   25.38   11.55
   1  11 -14   33.57    5.06
   1 -11  14  441.28   19.63
  -1 -11 -14  432.48   29.40
  -1 -11 -14  436.71   29.23
  -1  11 -14  424.38   28.56
   1  11  14  399.37   19.87
  -1  11 -14  387.89   39.99
  -3 -11 -14   11.67   11.93
  -3 -11 -14    5.57    7.73
  -3  11 -14    3.70   15.26
  -3  11 -14   12.15   11.36
  -5 -11 -14   82.66   15.63
  -5 -11 -14   88.80   11.74
  -7 -11 -14   20.64   10.59
   8 -12 -14   44.47    9.51
  -8 -12  14   12.93   11.18
   8  12 -14   22.09    7.89
   6 -12 -14   14.31    8.29
  -6 -12  14   21.46    7.62
  -6  12  14   16.95    6.53
   6  12 -14   10.35    6.45
  -4 -12  14  143.40   11.60
  -4 -12  14  156.33   24.69
  -4 -12  14  142.36   11.05
   4 -12 -14  141.71   11.05
  -4  12  14  134.16   11.03
   4  12 -14  111.30   10.51
  -4  12  14  132.29   10.56
  -2 -12  14   45.41    6.84
  -2 -12  14   45.62    6.72
   2 -12 -14   38.70   12.12
   2 -12 -14   48.77    7.10
  -2 -12  14   26.10   13.03
   2 -12 -14   43.18    7.31
  -2  12  14   37.66    6.26
   2  12 -14   41.60    6.62
  -2  12  14   48.35    7.50
   0 -12  14  383.76   18.65
   0 -12 -14  388.92   27.98
   0 -12  14  421.65   19.03
   0 -12 -14  429.17   29.21
   0 -12 -14  384.96   18.51
   0 -12 -14  395.87   18.67
   0  12 -14  403.12   28.11
   0  12 -14  424.54   18.63
   0  12 -14  433.69   18.47
   0  12  14  382.53   19.50
   0  12 -14  407.35   40.01
  -2 -12 -14   78.67    8.83
  -2 -12 -14   87.40   15.17
  -2 -12 -14   79.57   15.20
   2 -12  14   97.11    8.49
  -2  12 -14   62.08   19.25
   2  12  14   88.06    8.75
  -2  12 -14   66.29   13.82
  -4 -12 -14   97.47   12.08
  -4 -12 -14  109.14   19.17
  -6 -12 -14   35.20   12.36
   7 -13 -14   76.87   11.53
   7  13 -14   70.91    8.92
  -5 -13  14    2.80    7.47
   5 -13 -14    8.36    7.82
  -5 -13  14    3.42    6.54
  -5  13  14    4.32    6.23
  -5  13  14    6.92    6.88
   5  13 -14    7.01    6.24
  -3 -13  14   25.22    6.52
  -3 -13  14   30.28    6.93
   3 -13 -14   23.86    7.36
   3 -13 -14   25.58    7.02
   3  13 -14   18.64    6.39
  -3  13  14   21.43    6.82
  -3  13  14   28.79    7.29
   1 -13 -14   31.09   12.47
  -1 -13  14   27.58    6.74
  -1 -13  14   24.52    6.39
   1 -13 -14   30.92    6.81
   1 -13 -14   33.91    6.72
   1  13 -14   63.62   20.23
  -1  13  14   36.99    7.49
   1  13 -14   29.99    6.38
   1  13 -14   19.10    5.68
  -1  13  14   19.39    6.02
  -1 -13 -14   36.76   13.26
  -1 -13 -14   35.30    6.95
   1 -13  14   30.99    6.71
  -1 -13 -14   23.29   13.57
  -1  13 -14   29.20   12.16
  -1  13 -14    6.47   21.84
  -1  13 -14   28.36    5.12
   1  13  14   25.01    7.74
  -3 -13 -14   29.65    8.65
  -3 -13 -14   29.48   13.67
  -3 -13 -14   42.31   12.17
   3 -13  14   31.22    7.25
  -3  13 -14   20.85   12.98
  -3  13 -14   18.43   18.27
  -5 -13 -14    7.87   10.09
  -6 -14  14   31.56    8.38
   6 -14 -14   25.34    8.15
  -6  14  14   23.34    7.15
   6  14 -14   18.11    7.09
  -4 -14  14    9.85    6.62
  -4 -14  14    8.51    6.76
   4 -14 -14    7.45    7.23
   4  14 -14   10.97    6.53
  -4  14  14   12.34    6.62
  -4  14  14    3.70    6.64
  -2 -14  14   71.94    8.65
   2 -14 -14   79.96    9.26
   2 -14 -14   96.11    9.44
  -2 -14  14   79.22    8.17
  -2  14  14   57.12    7.97
  -2  14  14   77.73    9.35
   2  14 -14   88.86    8.50
   0 -14 -14  140.31   11.08
   0 -14 -14  132.97   22.93
   0 -14 -14  137.98   10.14
   0 -14  14  155.43   10.97
   0  14 -14   86.48   26.30
   0  14 -14  132.94    9.94
   0  14 -14  147.73    9.74
   0  14  14  144.35   12.30
   2 -14  14   20.67    6.85
  -2 -14 -14   27.44    7.93
  -2 -14 -14   40.85   13.32
  -2 -14 -14   27.52   14.11
  -2  14 -14   -5.15   20.19
  -2  14 -14   32.34   13.25
  -4 -14 -14   36.32   13.81
  -4 -14 -14   25.80   15.51
  -4 -14 -14   19.05    9.08
  -4  14 -14   27.90   14.44
  -4  14 -14    3.01   19.06
  -6 -14 -14   17.35   11.59
   7 -15 -14   58.71   11.54
   7  15 -14   37.98    8.12
  -5 -15  14  165.89   13.91
   5 -15 -14  153.66   12.71
  -5 -15  14  151.48   12.72
  -5  15  14  146.82   11.16
  -5  15  14  139.14   11.52
   5  15 -14  136.42   12.09
   3 -15 -14   88.63   10.34
   3 -15 -14   71.19    9.52
  -3 -15  14   74.52    8.86
  -3 -15  14   73.90    8.72
   3  15 -14   74.28    8.62
  -3  15  14   80.81    8.92
  -3  15  14   85.39    9.45
  -1 -15  14  192.29   13.51
  -1 -15  14  198.21   13.50
   1 -15 -14  226.45   14.56
   1 -15 -14  202.99   13.12
   1 -15 -14  212.60   25.95
   1  15 -14  206.10   12.83
  -1  15  14  234.35   14.76
   1 -15  14   14.93    6.78
  -1 -15 -14   20.13   13.86
   1  15  14   29.90    8.24
  -1  15 -14   27.55    5.60
  -1  15 -14  -12.09   23.16
  -3 -15 -14   34.60   15.92
  -3 -15 -14   45.27   14.42
   3 -15  14   33.95    7.67
  -3 -15 -14   38.53    9.14
  -3  15 -14   -2.62   19.72
  -3  15 -14   31.50   16.39
   3  15  14   25.12    8.66
  -5 -15 -14    6.43   10.33
  -5  15 -14   -7.43   18.01
  -5  15 -14   -5.54   13.22
  -6 -16  14   74.13   10.29
   6 -16 -14   64.18   10.29
  -6  16  14   68.19    8.61
   6  16 -14   47.94    9.04
  -4 -16  14   47.89    8.49
  -4 -16  14   47.12    9.03
   4 -16 -14   32.89    8.56
   4  16 -14   41.83    7.67
  -4  16  14   28.79    8.05
  -4  16  14   37.87    7.93
  -2 -16  14    4.86    6.63
  -2 -16  14    9.33    6.33
   2 -16 -14   -4.49    6.88
   2 -16 -14   13.22    7.58
  -2  16  14    8.14    7.11
  -2  16  14    9.46    7.76
   2  16 -14   11.22    6.52
   0 -16  14   49.72    7.91
   0 -16 -14   62.96    8.39
   0 -16 -14   48.60    7.59
   0 -16 -14   40.30   14.74
   0  16  14   54.63    9.73
  -2 -16 -14   41.04    9.03
   2 -16  14   42.34    7.60
  -2 -16 -14   31.97   15.90
   2  16  14   50.52    9.60
  -2  16 -14   -2.20   21.65
   4 -16  14   30.36    8.38
  -4 -16 -14   19.04   15.90
  -4 -16 -14   15.55    8.98
  -4 -16 -14   28.00   15.35
  -4  16 -14  -11.21   19.58
  -6 -16 -14   17.36   12.82
   7 -17 -14   16.90    9.58
   7  17 -14    6.45    7.56
  -5 -17  14   36.84    9.13
   5 -17 -14   43.18    9.08
  -5  17  14   35.49    8.17
   5  17 -14   33.40    8.32
  -5  17  14   29.73    8.30
  -3 -17  14   67.81    9.60
   3 -17 -14   75.39    9.77
  -3 -17  14   66.12    9.63
  -3  17  14   86.33   10.48
   3  17 -14   81.79    9.30
  -3  17  14   96.69   10.53
  -1 -17  14   46.97    8.06
   1 -17 -14   52.46    8.56
   1 -17 -14   54.57    8.90
  -1  17  14   52.91    9.48
   1  17 -14   44.49    7.45
  -1 -17 -14   17.39   13.90
   1 -17  14   12.09    6.58
  -1 -17 -14   26.58    7.54
  -1  17 -14   18.92    5.67
  -1  17 -14   20.35    5.84
  -1  17 -14  -35.60   23.08
   1  17  14   24.56    8.76
   3 -17  14   19.10    7.41
  -3 -17 -14   13.92   15.84
  -3 -17 -14    8.45    8.36
  -3  17 -14  -27.16   20.42
   3  17  14   16.06   10.50
  -5 -17 -14    6.30   18.04
  -5 -17 -14   11.91   10.98
  -5  17 -14  -37.76   20.02
  -6 -18  14   28.85    8.87
   6 -18 -14   33.58    9.81
  -6  18  14   23.59    8.15
   6  18 -14   27.98    8.40
  -4 -18  14   30.99    8.92
  -4 -18  14   42.16    8.87
   4 -18 -14   36.34   10.72
  -4  18  14   33.60    8.72
  -4  18  14   39.16    8.81
   4  18 -14   33.13    8.28
   2 -18 -14   41.40    8.66
  -2 -18  14   27.12    8.20
   2 -18 -14   45.47    9.38
  -2 -18  14   34.99    8.58
  -2  18  14   42.20    9.70
   2  18 -14   40.09    7.80
   0 -18 -14   13.52    7.00
   0 -18  14   15.05    7.27
   0 -18 -14   10.90    8.38
   0  18 -14   18.67    6.47
   0  18  14   -0.42    9.21
  -2 -18 -14   59.22   18.40
   2 -18  14   64.58    8.91
  -2 -18 -14   58.44    9.96
   2  18  14   74.25   11.52
  -4 -18 -14   18.98   17.80
   4 -18  14   14.39    8.13
  -4 -18 -14   14.63    9.20
  -4  18 -14  -22.18   23.97
  -5 -19  14   -1.56    8.41
   5 -19 -14    9.37    8.57
   5  19 -14   16.83    8.07
  -5  19  14    3.25    8.23
   3 -19 -14    8.78    7.87
  -3 -19  14    6.94    8.26
  -3 -19  14    8.19    7.73
  -3  19  14    7.68    8.76
  -3  19  14    8.79    8.39
   3  19 -14    9.35    7.64
   1 -19 -14   41.33    9.95
   1 -19 -14   56.15    9.13
  -1 -19  14   39.94    8.62
  -1  19  14   38.09   10.11
   1  19 -14   32.03    7.47
  -1 -19 -14   -8.93   17.28
   1 -19  14   -2.82    6.69
  -1 -19 -14   -1.44    7.40
   1  19  14   -1.61    9.16
  -3 -19 -14   25.76   18.05
  -3 -19 -14   12.28   11.12
   3 -19  14   28.29    8.70
  -3  19 -14  -31.63   23.89
   3  19  14   35.90   11.17
  -5 -19 -14    4.43   19.84
  -4 -20  14   30.84    9.06
  -4 -20  14   30.89    9.50
   4 -20 -14   23.43    9.22
  -4  20  14   38.70    9.08
   4  20 -14   14.67    8.53
  -4  20  14   28.10    9.44
  -2 -20  14    0.26    7.65
   2 -20 -14    5.66    9.15
   2 -20 -14    6.84    7.96
   2  20 -14    8.35    7.13
  -2  20  14   -7.22    9.29
   0 -20 -14   16.62    8.24
   0 -20  14   11.77    7.72
   0 -20 -14   11.86    8.38
   0  20 -14   13.12    6.56
   0  20  14    3.69   10.32
  -2 -20 -14   41.58   19.97
   2 -20  14   55.58    9.28
   2  20  14   26.49   11.88
  -4 -20 -14    5.10   18.26
   4 -20  14   16.14    9.57
  -5 -21  14   -9.31    9.51
   5 -21 -14   -4.16    9.62
   5  21 -14    7.23    8.74
  -5  21  14    2.07    8.95
  -3 -21  14   41.70    9.57
   3 -21 -14   88.28   12.54
  -3 -21  14   49.56   10.29
   3  21 -14   53.15    9.52
  -3  21  14   76.42   11.64
  -1 -21  14   29.22    8.66
   1 -21 -14   29.84   10.54
   1 -21 -14   24.25    9.98
   1  21 -14   23.10    7.95
  -1  21  14   31.73   11.32
  -1 -21 -14   33.40    9.04
   1 -21  14   40.11    9.14
   1  21  14   51.89   11.55
   3 -21  14    4.15    8.26
  -3 -21 -14    0.91    8.88
  -3 -21 -14    3.07   17.14
   3  21  14   -1.10   11.97
  -4 -22  14   14.70   10.00
   4 -22 -14    3.57    9.31
  -4  22  14    3.33    9.50
   4  22 -14    7.96    8.39
  -4  22  14   11.39    9.40
  -2 -22  14    1.66    8.42
   2  22 -14   -1.96    7.52
  -2  22  14   -5.54   10.55
   0 -22 -14   -1.02    9.40
   0 -22  14   -4.61    7.38
   0  22  14   -4.08   11.19
   0  22 -14    7.92    6.85
   2 -22  14    5.14    9.51
   2  22  14   -2.89   10.87
  -2  22 -14    8.01    7.15
   3 -23 -14   16.26   10.02
  -3 -23  14    5.25    8.89
   3  23 -14   -0.60    8.10
  -3  23  14   22.19   10.73
   1 -23 -14   21.18   10.58
   1 -23 -14   10.92   11.49
  -1 -23  14    4.99    8.82
  -1  23  14    8.09   11.91
   1  23 -14    3.33    7.27
  -1 -23 -14    4.33    9.53
   1 -23  14    2.92    8.56
   1  23  14   11.56   11.60
  -3 -23 -14  -11.24   10.40
   3 -23  14   12.99    8.78
  -2 -24  14   31.10   10.07
   2  24 -14   11.83    8.27
  -2  24  14   15.32   11.35
   0 -24  14   -3.20    8.95
   0  24  14   -0.26   11.71
   2 -24  14   -3.30    9.09
   2  24  14   15.11   13.60
  -2  24 -14    0.97    7.88
   1 -25 -14   11.43   11.19
  -1 -25  14   -1.50   10.15
   1  25 -14    9.28    7.56
  -1  25  14  -13.14   11.68
   1 -25  14    7.27    9.30
   1  25  14    2.93   13.29
  -1  25 -14   -7.86    8.20
  -8   0  15    4.83   16.05
  -8   0  15   16.47    8.90
   8   0 -15   13.94    7.29
  -6   0  15    0.42    4.13
  -6   0  15  -10.89   14.02
   6   0 -15    0.45    6.08
  -6   0  15   -0.45    5.41
   4   0 -15    1.63    5.36
  -4   0  15    9.30    5.30
  -4   0  15    7.50   12.04
   4   0 -15    3.50    5.70
  -4   0  15    3.38    3.75
  -4   0  15   12.80    4.96
   0   0 -15   -1.88    3.27
   0   0 -15  -15.52   25.18
   0   0  15   -2.68    4.37
  -9  -1  15   80.09   12.57
   9  -1 -15   59.92   10.33
   9   1 -15   46.63    8.74
  -9   1  15   61.89   12.18
  -7  -1  15   -7.89   14.76
   7  -1 -15   23.46    7.20
  -7   1  15    9.38   15.41
   7   1 -15   21.92    7.16
  -7   1  15   17.82    7.87
  -5  -1  15    8.37   14.86
  -5  -1  15   17.73    4.61
   5  -1 -15   18.69    6.26
  -5  -1  15   19.30    5.64
  -5  -1  15   18.30    5.68
  -5   1  15   25.08    4.62
  -5   1  15   21.20   14.07
   5   1 -15   30.74    6.37
  -5   1  15   19.73    5.65
  -5   1  15   27.72    5.71
   3  -1 -15  214.88   11.56
  -3  -1  15  189.15   22.96
  -3  -1  15  207.94   11.18
   3  -1 -15  212.53   11.39
  -3  -1  15  219.68   11.26
  -3   1  15  204.97   20.92
  -3   1  15  202.10   11.31
   3   1 -15  208.31   11.30
   3   1 -15  206.51   11.46
  -3   1  15  201.47   11.15
  -1  -1  15  336.36   14.40
  -1  -1  15  305.33   14.44
   1  -1 -15  308.09   14.24
   1  -1 -15  330.09   14.03
   1  -1 -15  288.94   24.79
   1  -1 -15  316.07   14.18
  -1   1  15  326.79   14.29
   1   1 -15  326.94   14.23
   1   1 -15  237.76   34.55
   1   1 -15  283.37   23.48
   1   1 -15  322.39   14.00
  -1   1  15  304.88   14.51
  -1  -1 -15  119.48   16.84
  -1   1 -15   86.35   13.50
  -8  -2  15   21.13   10.05
   8  -2 -15   28.19    8.32
  -8  -2  15   10.57   17.10
   8   2 -15   32.73    7.60
  -8   2  15   26.31    9.12
  -8   2  15   22.20   16.47
  -6  -2  15   23.26    4.72
   6  -2 -15   31.35    7.08
  -6  -2  15   37.34    6.29
  -6  -2  15    4.95   17.53
  -6   2  15   36.67    6.05
  -6   2  15   23.28   14.82
   6   2 -15   24.38    6.37
  -6   2  15   34.49    4.96
  -4  -2  15   16.68   15.40
   4  -2 -15   20.92    5.84
  -4  -2  15   23.52    5.43
  -4  -2  15   21.65    5.19
   4  -2 -15   26.17    6.03
  -4  -2  15   24.49    4.20
  -4   2  15   28.01    4.50
  -4   2  15   36.47    5.89
   4   2 -15   15.37    5.94
   4   2 -15   27.97    5.61
  -4   2  15   12.16   11.15
  -4   2  15   33.36    5.59
  -2  -2  15  189.41   10.49
   2  -2 -15  201.53   10.72
   2  -2 -15  201.16   10.71
  -2  -2  15  186.51   10.75
  -2   2  15  200.95   10.91
  -2   2  15  196.96   10.55
   2   2 -15  202.43   10.72
   0  -2 -15   -5.53    9.59
   0  -2 -15   -0.62    3.36
   0  -2  15    0.09    4.45
   0  -2 -15   16.00   32.63
   0   2 -15   -0.50    3.43
   0   2 -15   -9.22   20.14
   0   2  15    2.71    4.49
  -6  -2 -15    4.96    9.85
   9  -3 -15    2.72    8.38
  -7  -3  15    2.23   19.17
   7  -3 -15   59.64    8.60
   7   3 -15   38.67    7.40
  -7   3  15   41.17   16.34
  -5  -3  15   15.82   17.05
  -5  -3  15   40.97    6.37
  -5  -3  15   43.50    6.38
   5  -3 -15   40.73    7.24
  -5  -3  15   39.61    5.08
  -5   3  15   37.86    5.15
   5   3 -15   37.25    6.39
  -5   3  15   44.40    6.32
  -5   3  15   46.63    6.27
  -5   3  15   30.37   12.47
   3  -3 -15   84.84   17.12
  -3  -3  15   94.31    7.67
   3  -3 -15   89.20    7.31
  -3  -3  15   54.34   14.40
  -3  -3  15   94.73    7.61
   3  -3 -15   91.54    7.28
  -3   3  15   59.22   11.79
  -3   3  15   98.03    8.01
   3   3 -15   99.00    8.43
   3   3 -15   89.02    7.99
  -3   3  15   99.81    7.79
   1  -3 -15  106.32    7.65
   1  -3 -15  116.88    7.18
   1  -3 -15   96.90   17.62
  -1  -3  15  115.08    7.71
   1  -3 -15   99.68    7.40
  -1  -3  15  118.87    7.97
  -1   3  15  101.64    7.69
   1   3 -15  111.73   15.53
   1   3 -15  106.27   25.07
   1   3 -15  110.04    7.12
  -1   3  15  106.13    8.05
   1   3 -15  100.96    7.52
  -5  -3 -15   23.38    8.21
  -7  -3 -15   78.38   14.67
   8  -4 -15   19.86    8.75
  -8  -4  15   10.45    9.29
  -8   4  15   24.34   16.82
   8   4 -15   24.48    7.39
  -6  -4  15  -15.03   18.79
   6  -4 -15   28.25    7.31
  -6  -4  15   22.42    6.29
  -6  -4  15   26.18    5.07
  -6   4  15   16.17    5.78
   6   4 -15   24.18    6.40
  -6   4  15   17.42    4.59
  -6   4  15   22.01   13.77
  -4  -4  15  135.38   28.28
   4  -4 -15  165.42   10.48
  -4  -4  15  168.35   10.47
   4  -4 -15  145.79   10.77
  -4  -4  15  172.77   30.49
  -4  -4  15  152.16    9.95
  -4  -4  15  166.72    9.19
  -4   4  15  162.84    9.23
   4   4 -15  141.43   10.98
  -4   4  15  182.26   22.14
  -4   4  15  141.53   10.12
   4   4 -15  153.73   10.47
  -4   4  15  156.53   10.11
   2  -4 -15  270.24   22.48
   0  -4 -15   70.05    6.03
   0  -4 -15   67.68    5.61
   0  -4  15   72.95    6.09
   0  -4 -15   56.37   11.40
   0   4  15   64.86    6.11
   0   4 -15   68.40    5.97
   0   4 -15   54.64   10.52
   0   4 -15   59.69    5.01
  -4  -4 -15   71.31    9.85
  -6  -4 -15   70.71   11.88
   7  -5 -15   76.68    9.78
   7   5 -15   66.44    8.54
  -7   5  15   78.62   17.30
  -5  -5  15   18.73   18.19
  -5  -5  15   33.61    6.27
  -5  -5  15   49.07    6.48
  -5  -5  15   34.22    4.96
   5  -5 -15   39.86    7.31
  -5   5  15   41.85   13.69
  -5   5  15   45.36    6.47
   5   5 -15   35.59    6.46
  -5   5  15   41.18    5.16
  -5   5  15   45.47    6.32
  -3  -5  15   66.20    6.52
   3  -5 -15   37.34   15.53
   3  -5 -15   65.64    6.76
   3  -5 -15   58.31    6.75
  -3  -5  15   25.36   14.80
  -3  -5  15   56.93    6.13
  -3   5  15   30.17   11.65
  -3   5  15   63.95    6.31
   3   5 -15   70.75    6.54
  -3   5  15   62.03    6.67
   1  -5 -15  253.66   12.36
   1  -5 -15  247.99   12.46
   1  -5 -15  267.87   12.32
  -1  -5  15  266.30   12.76
  -1  -5  15  260.43   12.65
   1  -5 -15  260.19   20.32
   1  -5 -15  262.56   22.54
   1   5 -15  244.14   20.41
   1   5 -15  258.55   12.18
  -1   5  15  252.93   12.91
   1   5 -15  251.97   12.50
  -1   5  15  261.79   12.65
  -1  -5 -15  163.75   19.77
  -1  -5 -15  107.47   21.70
   1  -5  15  165.85    9.36
  -1   5 -15  161.94   17.19
  -1   5 -15  165.81   25.59
  -5  -5 -15   57.87   10.78
  -7  -5 -15    2.63   11.43
   8  -6 -15   10.22    8.67
  -8  -6  15    3.88    9.42
   8   6 -15    4.65    6.80
  -6  -6  15   23.90    6.69
  -6  -6  15   29.11    4.99
   6  -6 -15   23.59    7.27
  -6   6  15   26.56    5.02
  -6   6  15   16.84    5.89
   6   6 -15   21.16    6.44
  -6   6  15   12.20   14.63
  -4  -6  15    2.26    5.28
  -4  -6  15  -17.58   13.72
  -4  -6  15   -0.09    5.24
   4  -6 -15    5.17    5.85
  -4  -6  15    0.98    3.71
   4  -6 -15    4.04    6.21
  -4   6  15  -14.35   11.42
   4   6 -15    6.48    5.38
  -4   6  15    0.53    5.52
  -4   6  15   -1.26    3.86
  -4   6  15   -2.72    5.22
  -2  -6  15    0.63    4.47
  -2  -6  15   -1.79    4.71
   2  -6 -15    7.90    9.05
   2  -6 -15   -0.16    4.95
   2  -6 -15    2.69    4.93
  -2   6  15   13.15    5.01
  -2   6  15    2.54    5.23
   2   6 -15    5.46    4.89
   2   6 -15   -6.20   28.02
   0  -6  15   43.87    5.68
   0  -6 -15   45.97   10.33
   0  -6 -15   40.04    4.52
   0  -6 -15   45.00    5.20
   0   6 -15   43.65    5.04
   0   6 -15   33.92   10.71
   0   6 -15   50.56    4.68
   0   6  15   42.74    5.80
   0   6 -15   35.51   17.91
  -2   6 -15   15.58   14.98
  -2   6 -15   13.72    9.92
  -4  -6 -15  206.12   14.14
  -6  -6 -15    0.70   10.24
   7  -7 -15    3.36    7.54
   7   7 -15    9.14    6.50
  -7   7  15  -16.99   17.33
  -5  -7  15   36.90    5.03
  -5  -7  15   18.60   15.22
   5  -7 -15   38.24    7.00
  -5  -7  15   38.96    6.53
  -5  -7  15   31.63    6.11
  -5   7  15    5.91   13.99
  -5   7  15   25.89    5.51
  -5   7  15   39.58    6.53
   5   7 -15   37.52    6.63
  -5   7  15   34.38    6.47
  -3  -7  15   15.03    5.19
   3  -7 -15   14.30    6.17
   3  -7 -15   23.84    5.95
  -3  -7  15    3.22   12.19
   3  -7 -15   13.27   13.65
  -3  -7  15   17.69    5.56
  -3   7  15   13.48    5.49
   3   7 -15   21.06    5.57
  -3   7  15   24.60    6.08
   1  -7 -15   75.20   12.70
  -1  -7  15   87.40    7.70
   1  -7 -15  102.10    7.48
  -1  -7  15   88.67    7.71
   1  -7 -15   83.04    7.26
   1  -7 -15   87.07    7.73
  -1   7  15   95.18    7.99
   1   7 -15  125.91   22.69
   1   7 -15   70.80   12.13
   1   7 -15   88.77    7.52
  -1   7  15   96.69    7.68
   1   7 -15   90.57    6.92
  -1  -7 -15   50.24   12.09
   1  -7  15   67.62    6.39
  -1  -7 -15   56.58   11.24
  -1   7 -15   45.47   11.26
   1   7  15   51.72    6.20
  -3  -7 -15   88.53    9.82
  -5  -7 -15  106.14   12.56
  -7  -7 -15   54.04   14.19
  -8  -8  15    6.85   10.06
   8  -8 -15   13.17    8.76
   8   8 -15   24.54    7.52
  -6  -8  15   -5.31    6.14
  -6  -8  15    1.36    4.40
   6  -8 -15    1.80    6.27
  -6   8  15   -0.60    5.71
  -6   8  15  -17.82   13.94
   6   8 -15    2.38    5.88
  -4  -8  15   77.67    7.60
  -4  -8  15   87.91    7.74
  -4  -8  15   56.50   13.84
   4  -8 -15   94.00    8.99
   4  -8 -15   83.81    8.30
  -4  -8  15   91.73    7.85
  -4   8  15  114.63   19.82
  -4   8  15   84.33    7.95
  -4   8  15   93.16    8.29
   4   8 -15   82.84    7.99
  -4   8  15   71.07    7.03
  -2  -8  15   42.42    5.77
   2  -8 -15   45.92    6.46
   2  -8 -15   34.21   10.92
  -2  -8  15   49.45    6.23
   2  -8 -15   43.18    6.34
  -2   8  15   43.54    5.94
   2   8 -15  -26.53   26.15
  -2   8  15   49.85    6.73
   2   8 -15   45.35    6.01
   0  -8 -15  430.24   30.49
   0  -8 -15  452.41   19.78
   0  -8 -15  488.62   28.93
   0  -8  15  462.37   20.31
   0   8 -15  460.89   19.93
   0   8 -15  479.10   28.74
   0   8 -15  478.29   19.63
   0   8 -15  409.13   36.05
   0   8  15  450.66   20.60
  -2  -8 -15    4.32    9.84
  -2  -8 -15   -2.28   10.18
  -2   8 -15   -1.82   10.21
  -2   8 -15   27.68   17.80
  -4  -8 -15   38.61    9.26
  -6  -8 -15   18.49   10.25
   7  -9 -15   70.01    9.35
   7   9 -15   55.09    8.02
  -5  -9  15    8.82    6.08
  -5  -9  15   -0.23    6.01
   5  -9 -15   -0.64    6.22
  -5  -9  15    1.51   12.30
  -5   9  15   -1.36    6.00
   5   9 -15    1.67    5.47
  -5   9  15    1.88   11.95
  -5   9  15   -1.25    5.67
   3  -9 -15    8.82    6.06
  -3  -9  15   10.11    5.34
  -3  -9  15   -6.85    5.46
   3  -9 -15   10.24    6.25
  -3  -9  15   -2.85   11.13
  -3   9  15    7.76    8.28
  -3   9  15    5.04    5.90
   3   9 -15    8.65    5.87
  -3   9  15   14.05    6.21
   1  -9 -15  111.64    7.92
   1  -9 -15   93.71   16.38
   1  -9 -15   96.83    8.10
   1  -9 -15  108.38   17.40
   1  -9 -15   94.91    8.65
  -1  -9  15  101.67    8.67
  -1  -9  15  100.41    8.63
   1   9 -15   91.46   21.36
   1   9 -15  110.94    8.45
   1   9 -15  112.75    7.98
  -1   9  15   99.15    9.04
   1   9 -15  117.74   17.20
   1  -9  15   70.76    7.04
  -1  -9 -15   66.07   11.96
  -1  -9 -15   68.33   12.68
  -1   9 -15   59.69   12.31
  -1   9 -15   52.69   19.25
   1   9  15   74.01    7.52
  -3  -9 -15   70.14    9.02
  -3   9 -15   50.25   16.68
  -5  -9 -15   71.60   11.83
  -7  -9 -15   39.68   14.20
   8 -10 -15   -2.34    7.76
  -8 -10  15  -11.06    9.12
   8  10 -15   -2.89    6.47
  -6 -10  15   17.39    7.03
   6 -10 -15   27.32    7.63
   6  10 -15   18.96    6.90
  -6  10  15   25.33    6.57
  -4 -10  15   23.12    6.05
   4 -10 -15   38.83    8.06
   4 -10 -15   19.84    6.77
  -4 -10  15   17.24   12.41
  -4 -10  15   24.09    6.34
  -4  10  15   24.67    6.63
  -4  10  15   27.87    6.89
   4  10 -15   17.11    6.43
  -2 -10  15   93.18    8.14
   2 -10 -15   71.50   13.34
  -2 -10  15  102.74    8.78
   2 -10 -15  108.32    9.45
   2 -10 -15   98.19    8.74
  -2  10  15  113.19    8.91
   2  10 -15   87.31    7.83
  -2  10  15   90.21    7.95
   0 -10 -15   21.98   10.82
   0 -10 -15   17.93   12.06
   0 -10 -15   29.15    5.47
   0 -10  15   27.35    5.98
   0 -10  15   22.53    5.41
   0  10  15   21.44    6.28
   0  10 -15   22.45    5.13
   0  10 -15   18.68   10.54
   0  10 -15    5.98   23.51
   0  10 -15   14.82    4.69
  -2 -10 -15   19.08   11.16
  -2 -10 -15    7.68   11.00
  -2 -10 -15    4.15    6.91
   2 -10  15    8.97    6.20
  -2  10 -15   16.92   18.31
  -2  10 -15   -5.51   10.81
  -4 -10 -15   95.02   11.74
  -6 -10 -15   13.37   12.26
  -6 -10 -15   -1.03   11.88
   7 -11 -15   31.46    8.34
   7  11 -15   14.61    7.02
  -5 -11  15   24.58    6.55
   5 -11 -15   24.59    7.22
  -5 -11  15   28.66    7.41
   5  11 -15   25.51    6.78
  -5  11  15   15.86    6.55
  -5  11  15   21.24    6.62
  -3 -11  15  118.52   10.51
   3 -11 -15  122.34   10.11
  -3 -11  15  111.67    9.84
   3 -11 -15  146.06   11.10
  -3 -11  15  120.01   21.37
  -3  11  15  137.37   10.58
   3  11 -15  125.58   10.18
  -3  11  15  117.35   10.43
   1 -11 -15  426.57   29.36
  -1 -11  15  421.82   19.65
   1 -11 -15  359.57   31.80
  -1 -11  15  427.37   19.73
   1 -11 -15  404.94   19.39
   1 -11 -15  437.80   19.73
  -1  11  15  407.86   20.22
   1  11 -15  452.89   19.26
   1  11 -15  436.36   19.46
   1  11 -15  427.48   30.54
   1  11 -15  444.32   36.96
  -1 -11 -15   54.64   13.25
   1 -11  15   72.10    7.75
   1  11  15   68.81    8.22
  -1  11 -15   45.74   12.80
  -1  11 -15   88.64   21.51
  -3 -11 -15   82.66   15.01
  -3 -11 -15   79.66   10.42
  -3  11 -15   73.53   14.35
  -3  11 -15   47.26   18.25
  -5 -11 -15    9.90    9.86
  -5 -11 -15   18.02   12.09
  -7 -11 -15   16.55   14.13
   8 -12 -15    5.73    8.87
  -8 -12  15    0.66    9.86
   8  12 -15   18.71    7.65
  -6 -12  15   88.02    9.93
   6 -12 -15   94.40   10.34
   6  12 -15   61.17    8.81
  -6  12  15   99.70    8.77
  -4 -12  15  120.85   10.56
   4 -12 -15  121.29   10.65
  -4 -12  15  105.49    9.57
  -4  12  15  114.47    9.71
  -4  12  15  120.87    9.62
   4  12 -15   99.54    9.44
   2 -12 -15  226.37   12.98
   2 -12 -15  219.68   13.06
  -2 -12  15  188.01   12.71
  -2 -12  15  199.33   12.46
   2 -12 -15  214.06   23.37
  -2  12  15  205.56   13.21
   2  12 -15  192.27   12.31
  -2  12  15  193.32   13.07
   0 -12 -15   58.27   14.17
   0 -12 -15   73.13    7.15
   0 -12  15   79.01    7.81
   0 -12 -15   64.74   13.35
   0 -12 -15   84.16    7.46
   0  12  15   68.78    8.65
   0  12 -15   54.99   12.87
   0  12 -15   70.13   26.29
   0  12 -15   71.42    6.80
   0  12 -15   73.44    6.51
  -2 -12 -15  110.36   19.16
   2 -12  15   93.77    8.98
  -2 -12 -15   81.52   15.33
  -2 -12 -15   87.64   10.03
   2  12  15   85.21    9.32
  -2  12 -15   75.20   14.95
  -2  12 -15   59.92   21.23
  -4 -12 -15   16.86    9.04
  -4  12 -15  -17.36   16.47
  -6 -12 -15   28.16   12.28
   7 -13 -15   22.97    8.68
   7  13 -15   11.56    7.06
   5 -13 -15    9.79    7.33
  -5 -13  15   -5.70    6.82
  -5 -13  15   15.39    6.92
  -5  13  15    4.48    6.83
  -5  13  15   10.26    6.66
   5  13 -15   -4.16    6.12
   3 -13 -15   82.96    9.13
   3 -13 -15   88.66    9.61
  -3 -13  15   73.07    8.51
  -3 -13  15   65.57    8.36
  -3  13  15   76.31    8.87
   3  13 -15   69.96    8.13
  -3  13  15   88.81    8.79
  -1 -13  15   38.22    7.22
   1 -13 -15   34.36    7.37
  -1 -13  15   21.59    6.50
   1 -13 -15   34.49    6.99
   1 -13 -15   39.96   13.21
   1  13 -15   31.45    6.52
  -1  13  15   19.37    6.45
   1  13 -15   35.27    6.88
  -1  13  15   31.36    7.92
   1  13 -15  -12.67   19.13
  -1 -13 -15  154.70   22.98
   1 -13  15  169.84   11.78
  -1 -13 -15  200.20   22.09
  -1  13 -15  138.30   21.34
   1  13  15  161.35   12.39
  -1  13 -15   93.42   24.61
  -3 -13 -15   29.72   13.74
  -3 -13 -15   19.03   14.08
  -3 -13 -15   12.32    8.18
   3 -13  15   11.81    6.94
  -3  13 -15   -7.21   18.15
  -3  13 -15    8.67   12.67
  -5 -13 -15    8.98   10.41
   6 -14 -15  101.41   10.92
  -6 -14  15   84.71   10.20
   6  14 -15   74.16    9.56
  -6  14  15  113.91    9.62
   4 -14 -15   53.41    8.76
  -4 -14  15   42.81    7.80
  -4 -14  15   54.48    8.41
  -4  14  15   56.07    8.46
   4  14 -15   52.84    8.07
  -4  14  15   42.93    8.23
   2 -14 -15  489.90   21.91
  -2 -14  15  409.27   20.88
   2 -14 -15  441.15   21.23
  -2 -14  15  453.82   21.60
  -2  14  15  422.57   21.19
   2  14 -15  426.10   20.84
  -2  14  15  443.00   21.56
   0 -14 -15   30.25    7.47
   0 -14 -15   19.81    6.44
   0 -14 -15   28.69   14.11
   0 -14  15   16.51    6.76
   0  14  15   34.12    8.42
   0  14 -15   22.43    5.65
   0  14 -15   27.03    5.83
  -2 -14 -15  266.56   17.17
  -2 -14 -15  300.61   29.46
   2 -14  15  307.98   16.54
  -2 -14 -15  303.28   27.50
  -2  14 -15  276.23   28.00
   2  14  15  296.54   18.66
  -4 -14 -15   61.33   10.77
  -4 -14 -15   54.45   14.90
  -4  14 -15   55.14   15.79
  -6 -14 -15   25.51   13.58
   7 -15 -15    8.70    8.58
   7  15 -15   27.57    7.77
   5 -15 -15   23.66    8.29
  -5 -15  15   15.88    7.43
  -5 -15  15   23.33    8.01
   5  15 -15   16.91    7.34
  -5  15  15   27.76    7.67
  -5  15  15   24.22    7.60
   3 -15 -15    0.15    8.01
   3 -15 -15   21.62    7.70
  -3 -15  15   -5.68    6.54
  -3 -15  15   20.00    7.03
  -3  15  15   19.89    7.66
   3  15 -15    6.61    6.71
  -3  15  15    5.95    7.21
   1 -15 -15   19.09    7.26
   1 -15 -15   16.06    7.76
   1 -15 -15    6.33   12.51
  -1 -15  15   22.43    7.12
  -1  15  15   15.28    8.14
   1  15 -15   27.89    6.66
   1 -15  15  156.09   12.06
  -1 -15 -15  170.51   25.30
  -1  15 -15  167.50   10.29
   1  15  15  149.32   13.30
  -3 -15 -15   11.68   14.19
  -3 -15 -15   36.01   15.10
   3 -15  15   15.47    7.15
  -3 -15 -15   15.08    8.83
   3  15  15   24.27    9.17
  -3  15 -15  -24.62   19.73
  -5 -15 -15   11.37    9.60
   6 -16 -15   12.39    8.67
  -6 -16  15   31.01    8.57
  -6  16  15   16.92    7.42
   6  16 -15   12.61    7.49
   4 -16 -15  160.92   13.00
  -4 -16  15  172.87   13.48
  -4 -16  15  151.77   12.37
  -4  16  15  138.01   12.51
  -4  16  15  166.33   13.03
   4  16 -15  146.39   12.20
  -2 -16  15   76.83    8.92
   2 -16 -15   97.52   10.68
   2 -16 -15   87.92   10.07
  -2 -16  15   81.56    9.67
  -2  16  15   76.56   10.68
   2  16 -15   82.42    9.08
   0 -16 -15  413.94   19.75
   0 -16  15  409.79   19.96
   0 -16 -15  390.86   33.28
   0 -16 -15  387.22   19.08
   0  16 -15  270.07   46.94
   0  16  15  400.38   21.37
   0  16 -15  401.75   19.11
  -2 -16 -15   27.84    8.51
   2 -16  15   44.54    7.82
  -2 -16 -15   38.05   16.25
   2  16  15   45.60   10.38
  -4 -16 -15   12.32   16.77
   4 -16  15    1.83    7.21
  -4 -16 -15   17.29   16.35
  -4 -16 -15   -1.30    8.68
  -4  16 -15  -31.69   20.89
  -5 -17  15   33.03    9.19
   5 -17 -15   47.60   10.09
  -5  17  15   48.95    8.61
  -5  17  15   41.64    8.43
   5  17 -15   26.84    7.83
  -3 -17  15   13.38    7.03
   3 -17 -15   21.77    8.32
  -3 -17  15    3.18    7.40
  -3  17  15   14.01    8.23
   3  17 -15   -2.32    6.76
  -3  17  15    3.08    7.99
  -1 -17  15   16.34    7.22
   1 -17 -15   17.16    8.22
   1 -17 -15   31.13    7.88
  -1  17  15   26.08    9.22
   1  17 -15   15.49    6.59
   1 -17  15   42.28    7.97
  -1 -17 -15   38.46    8.20
  -1 -17 -15   33.61   15.97
   1  17  15   40.80   10.63
  -1  17 -15   27.59    6.88
  -3 -17 -15   27.09   17.37
   3 -17  15   46.83    8.20
  -3 -17 -15   31.46    9.87
   3  17  15   38.79   10.16
  -5 -17 -15    0.36   10.39
  -5  17 -15  -48.00   26.24
  -6 -18  15   45.46   10.60
   6 -18 -15   40.85   10.10
  -6  18  15   46.08    8.76
   6  18 -15   41.02    8.93
  -4 -18  15    0.76    8.12
   4 -18 -15   18.64    8.87
  -4 -18  15    2.38    7.42
   4  18 -15   16.38    7.88
  -4  18  15   15.80    8.48
  -4  18  15    4.18    8.27
  -2 -18  15   18.98    7.51
   2 -18 -15   25.59    8.34
   2 -18 -15   25.06    9.28
  -2  18  15   29.16    9.63
   2  18 -15   18.55    7.24
   0 -18 -15   21.22    7.42
   0 -18  15   30.46    7.55
   0 -18 -15   25.46    8.48
   0  18  15   40.19   10.70
   0  18 -15   27.44    6.69
  -2 -18 -15   -7.66   15.50
  -2 -18 -15    0.07    8.03
   2 -18  15    7.07    6.99
   2  18  15    9.56    9.09
  -2  18 -15  -46.44   24.78
   4 -18  15   76.69   11.23
  -4 -18 -15   72.61   22.42
  -4 -18 -15   69.70   11.51
   5 -19 -15   30.62   10.06
  -5 -19  15   40.68   10.75
   5  19 -15   39.45    9.19
  -5  19  15   45.77    9.43
  -3 -19  15   68.81   10.62
  -3 -19  15   64.71   10.42
   3 -19 -15   72.78   10.26
   3  19 -15   63.97    8.93
  -3  19  15   91.12   11.61
   1 -19 -15   -5.52    7.12
   1 -19 -15    4.32    8.75
  -1 -19  15    2.57    7.29
   1  19 -15   -4.29    6.21
  -1  19  15  -12.20    9.01
  -1 -19 -15   43.92    9.11
   1 -19  15   23.70    7.72
   1  19  15   36.99   10.99
   3 -19  15    3.47    8.03
  -3 -19 -15    2.89    9.93
  -3 -19 -15    2.40   16.71
  -3  19 -15  -27.26   24.88
   3  19  15    6.77   10.24
  -5 -19 -15    6.64   10.16
   4 -20 -15   23.70    9.53
  -4 -20  15   32.47    8.81
  -4 -20  15   34.07    9.67
   4  20 -15   29.55    8.81
  -4  20  15   36.83    9.41
  -4  20  15   37.59    9.52
   2 -20 -15   -1.96    7.86
  -2 -20  15    1.77    7.87
   2 -20 -15   -9.16    9.08
  -2  20  15   -5.97    9.45
   2  20 -15   -0.88    7.31
   0 -20  15    0.38    7.42
   0 -20 -15   -3.29    9.16
   0  20 -15    2.86    6.27
   0  20  15    0.83   10.29
   2 -20  15    3.40    8.11
   2  20  15   -7.63   11.62
   4 -20  15    4.47    8.96
  -4 -20 -15    2.97    8.91
  -4 -20 -15   -3.03   18.73
   5 -21 -15   -2.75   10.50
  -5 -21  15   14.80    9.84
   5  21 -15    7.75    9.08
  -5  21  15    7.52    9.06
   3 -21 -15   -0.35    8.30
  -3 -21  15    6.44    9.49
   3  21 -15    8.80    7.81
  -3  21  15    7.42    9.56
   1 -21 -15   56.02    9.21
  -1 -21  15   41.04    9.54
   1 -21 -15   44.15   10.65
   1  21 -15   36.59    7.95
  -1  21  15   47.20   12.02
  -1 -21 -15   30.48    9.53
   1 -21  15    7.59    8.92
   1  21  15   16.55   12.60
  -3 -21 -15   65.07   12.66
   3 -21  15   59.79   10.72
   3  21  15   68.62   14.30
  -4 -22  15   16.78    9.65
   4 -22 -15   27.59    9.65
  -4  22  15   46.33   12.71
   4  22 -15   32.43    9.52
  -4  22  15   52.94   11.00
  -2 -22  15   16.40    8.84
   2 -22 -15    7.82   11.31
   2  22 -15   25.86    8.21
  -2  22  15    8.38   10.26
   0 -22  15    0.53    8.29
   0 -22 -15  -13.06    9.31
   0  22  15    6.99   11.86
   0  22 -15    3.02    6.87
   2 -22  15    3.31    8.51
   2  22  15    0.69   11.18
   3 -23 -15    1.87    9.08
  -3 -23  15    4.74    8.92
   3  23 -15    7.74    8.46
  -3  23  15   23.00   11.16
  -1 -23  15    9.60   10.05
   1 -23 -15   -4.90    8.07
   1 -23 -15   -6.68    9.94
   1  23 -15    2.80    7.18
  -1  23  15    9.72   11.73
   1 -23  15   -5.38    7.88
  -1 -23 -15    3.66    9.20
   2 -24 -15    0.37    8.29
  -2 -24  15   -1.66    9.42
  -2  24  15    1.05   10.71
   2  24 -15   -3.32    7.83
   0 -24  15    2.47    8.99
   0 -24 -15    6.81   10.19
   0  24  15   14.64   13.35
   2 -24  15   14.77    9.58
   2  24  15    8.98   12.64
   1 -25 -15    4.88   11.26
  -1 -25  15    6.16    9.41
  -1  25  15   -2.77   11.71
   1  25 -15    8.65    7.52
  -8   0  16  122.18   13.53
   8   0 -16  110.16   10.98
   6   0 -16    4.51    6.18
  -6   0  16    8.12   14.11
  -6   0  16    2.47    5.62
  -6   0  16    5.86    4.43
  -4   0  16  291.36   28.21
   4   0 -16  297.73   14.81
  -4   0  16  283.53   14.54
  -4   0  16  293.15   14.37
   4   0 -16  277.40   14.82
   0   0 -16   -1.32    3.27
   0   0 -16  -18.30   11.44
   0   0  16    3.87    4.79
   7  -1 -16   21.51    7.51
  -7  -1  16   19.96   16.10
  -7   1  16   20.06   15.86
   7   1 -16   22.85    7.05
   5  -1 -16  128.70   10.20
  -5  -1  16  107.19    9.52
  -5  -1  16  128.87    8.48
  -5  -1  16   99.46   18.13
  -5  -1  16  111.95    9.12
  -5   1  16  111.48    9.16
  -5   1  16  116.20    9.64
   5   1 -16  106.94    9.63
  -5   1  16  133.25    8.42
  -5   1  16  137.25   24.74
   1  -1 -16  124.24    8.32
   1  -1 -16  121.04    7.72
  -1  -1  16  120.35    8.44
   1  -1 -16  119.76    7.96
  -1  -1  16  127.29    8.17
  -1   1  16  115.16    8.50
  -1   1  16  120.25    8.14
   1   1 -16  109.56    7.62
   1   1 -16  126.07    7.94
   8  -2 -16   15.82    8.23
  -8  -2  16   10.19    9.83
   8   2 -16   13.47    7.24
  -8   2  16   28.52    9.63
  -6  -2  16   86.93    7.74
   6  -2 -16   99.48    9.27
  -6  -2  16   96.30    8.35
  -6  -2  16   61.81   19.01
  -6  -2  16   86.61    7.78
  -6   2  16   76.48   17.18
  -6   2  16   89.01    7.64
   6   2 -16   83.49    8.46
  -6   2  16   89.71    8.08
  -6   2  16   89.83    7.65
  -4  -2  16   14.01   15.73
   4  -2 -16   40.36    6.82
  -4  -2  16   43.54    6.03
  -4  -2  16   54.30    6.44
   4  -2 -16   49.34    6.82
  -4  -2  16   42.53    4.86
   4   2 -16   42.54    6.86
  -4   2  16   43.27    6.59
  -4   2  16   59.43    6.35
  -4   2  16   38.09    5.14
   4   2 -16   50.58    6.71
  -4   2  16   52.83   13.39
   2  -2 -16  141.47   10.52
  -2  -2  16  131.50    9.09
   2  -2 -16  137.04    8.86
  -2  -2  16  140.04    9.01
   2  -2 -16  134.87    8.94
  -2   2  16  127.20    9.21
   2   2 -16  131.33    8.88
  -2   2  16  131.05    8.91
   0  -2 -16  305.24   13.52
   0  -2  16  291.57   14.23
   0  -2 -16  307.85   24.33
   0   2  16  278.87   14.23
   0   2 -16  319.13   23.69
   0   2 -16  316.24   13.52
  -7  -3  16    8.64   18.59
   7  -3 -16   22.74    8.11
   7   3 -16   32.37    7.37
  -7   3  16   28.84   15.67
  -5  -3  16   29.81    6.01
  -5  -3  16  -12.95   15.64
   5  -3 -16   19.56    6.82
  -5  -3  16    8.93    4.24
  -5  -3  16   18.79    5.73
  -5   3  16   20.57    6.00
  -5   3  16   16.82   12.41
  -5   3  16    7.06    5.65
   5   3 -16   11.36    5.91
  -5   3  16   12.80    4.54
  -3  -3  16  199.66   27.42
   3  -3 -16  216.25   19.81
  -3  -3  16  220.56   12.15
   3  -3 -16  228.15   12.31
   3  -3 -16  237.13   12.50
  -3  -3  16  249.38   12.26
  -3   3  16  211.98   22.05
  -3   3  16  235.92   12.03
  -3   3  16  223.06   12.29
   3   3 -16  229.64   12.34
  -1  -3  16   22.01    5.31
   1  -3 -16   31.45    4.99
   1  -3 -16    2.80   12.09
   1  -3 -16   23.00    4.23
  -1  -3  16   34.97    5.07
   1  -3 -16   30.60    5.18
   1   3 -16   21.32    9.77
   1   3 -16   34.56    4.59
  -1   3  16   25.62    5.53
  -1   3  16   24.23    4.91
   1   3 -16   25.35    5.07
  -1   3 -16  321.15   29.41
   8  -4 -16   12.15    8.17
  -8  -4  16   27.65    9.60
   8   4 -16    5.94    6.84
  -6  -4  16    7.84    5.92
  -6  -4  16   13.15    4.70
   6  -4 -16    4.58    6.83
  -6   4  16   18.23    5.87
  -6   4  16   18.02   13.34
  -6   4  16    6.58    4.90
  -6   4  16    5.13    5.58
   6   4 -16    7.81    6.18
  -4  -4  16   24.02    5.83
  -4  -4  16   -4.66   15.59
   4  -4 -16   28.10    6.63
  -4  -4  16   23.67    5.67
   4  -4 -16   32.55    6.61
  -4  -4  16   24.89    4.24
  -4   4  16   25.61   12.62
   4   4 -16   20.72    5.94
  -4   4  16   23.39    5.85
  -4   4  16   20.55    4.31
  -4   4  16   32.37    6.18
   2   4 -16  -20.71   33.05
   0  -4  16    7.11    4.86
   0  -4 -16   32.84   16.02
   0  -4 -16    5.60    3.89
   0  -4 -16   -8.89   11.54
   0   4 -16   -4.20    8.99
   0   4 -16    8.06    3.61
   0   4  16    3.82    4.97
  -6  -4 -16   26.10    9.94
   7  -5 -16   21.38    7.87
  -7  -5  16  -33.67   20.33
   7   5 -16   18.73    6.79
  -7   5  16   36.86   21.41
   5  -5 -16   70.44    8.14
  -5  -5  16   49.67    6.75
  -5  -5  16   48.97    5.50
  -5  -5  16   57.94    6.92
  -5  -5  16    8.83   17.97
  -5   5  16   58.71    6.94
  -5   5  16   48.33   14.59
  -5   5  16   66.03    7.37
   5   5 -16   62.17    7.28
  -3  -5  16   86.66    6.96
  -3  -5  16   76.69    7.21
   3  -5 -16   63.51   12.46
   3  -5 -16   74.65    7.45
   3  -5 -16   79.21    7.56
   3   5 -16   74.61    7.12
  -3   5  16   68.28    6.98
  -3   5  16   69.72    7.41
   1  -5 -16  148.87   22.43
  -1  -5  16  156.14    9.92
   1  -5 -16  232.69   28.15
   1  -5 -16  153.49    9.46
  -1  -5  16  168.38    9.81
   1  -5 -16  169.12    9.47
   1  -5 -16  159.00    9.89
   1  -5 -16  174.96   18.25
   1   5 -16  160.44   18.22
   1   5 -16  168.94    9.17
  -1   5  16  163.00   10.12
   1   5 -16  169.35    9.59
  -1   5  16  172.24    9.80
   1  -5  16   19.99    5.63
  -1  -5 -16   29.88   12.10
  -1   5 -16    7.29   16.17
  -1   5 -16   21.64    9.79
  -5  -5 -16    5.89    8.66
  -7  -5 -16   11.46   10.28
   8  -6 -16   -3.34    8.20
  -8  -6  16    5.60    9.52
   8   6 -16    1.86    7.02
   6  -6 -16    1.12    7.01
  -6  -6  16    3.80    5.86
   6   6 -16    2.11    6.06
  -6   6  16    0.79    5.74
  -6   6  16   -9.45    5.80
  -6   6  16  -19.31   14.08
  -4  -6  16   89.14    7.61
  -4  -6  16   49.37   16.65
  -4  -6  16   90.29    8.01
   4  -6 -16  115.04    9.88
  -4  -6  16   92.68    7.69
   4  -6 -16   98.21    8.74
  -4   6  16   55.93   14.45
  -4   6  16  106.80    8.52
   4   6 -16   94.16    8.20
  -4   6  16   95.05    7.95
  -4   6  16   94.20    8.31
  -2  -6  16    1.71    4.73
   2  -6 -16   -1.08    9.79
   2  -6 -16    6.22    5.53
  -2  -6  16   -0.30    5.15
   2  -6 -16    5.75    5.26
   2  -6 -16    1.65    5.39
  -2   6  16   12.42    5.71
  -2   6  16   -0.02    5.19
   2   6 -16    3.22    5.18
   0  -6 -16    3.56    9.53
   0  -6 -16   -0.66    3.74
   0  -6  16   -0.78    5.03
   0  -6 -16   32.04   11.75
   0  -6 -16   -1.88    4.67
   0   6 -16   -3.77    9.56
   0   6  16   -1.07    5.14
   0   6 -16    3.14    3.93
   0   6 -16   28.82   18.78
   0   6 -16   -0.54    4.22
  -2  -6 -16   28.42   12.14
  -2   6 -16   39.19   16.91
  -4  -6 -16  271.20   17.49
  -6  -6 -16   34.83   11.56
   7  -7 -16   15.04    7.87
   7   7 -16    2.70    6.51
  -5  -7  16   -1.44    6.01
   5  -7 -16    5.71    6.90
  -5  -7  16  -24.04   15.25
  -5  -7  16   11.13    5.56
  -5   7  16    1.09    5.92
  -5   7  16  -26.36   13.90
  -5   7  16    6.90    6.08
   5   7 -16   11.66    5.97
   3  -7 -16   30.83    6.69
   3  -7 -16   37.68    6.74
  -3  -7  16   28.48   15.68
  -3  -7  16   31.69    6.06
   3  -7 -16   30.90   11.04
  -3  -7  16   31.83    6.07
   3   7 -16   34.50    6.30
  -3   7  16   41.68    6.45
  -3   7  16   17.97   10.22
  -3   7  16   42.92    6.77
   1  -7 -16   58.82   13.44
   1  -7 -16   55.64    6.22
  -1  -7  16   63.69    6.16
   1  -7 -16   59.67    6.33
  -1  -7  16   65.73    6.63
   1  -7 -16   51.94   12.03
   1  -7 -16   65.75    5.95
  -1   7  16   64.05    7.08
   1   7 -16   56.41    5.60
  -1   7  16   50.00    5.94
   1   7 -16   35.12   11.40
   1   7 -16   52.02    6.01
   1  -7  16    8.19    5.34
  -1  -7 -16  -10.93   11.97
  -1  -7 -16   -1.11    9.90
   1   7  16    3.08    5.57
  -1   7 -16   -3.44   10.03
  -5  -7 -16   -0.59    9.07
  -7  -7 -16   43.73   12.00
   8  -8 -16    7.75    8.82
  -8  -8  16   16.63   10.30
   8   8 -16    8.25    7.15
  -6  -8  16    6.05    6.44
   6  -8 -16    8.62    6.91
   6   8 -16    9.68    6.28
  -6   8  16    5.50    7.78
  -6   8  16   13.87    6.21
   4  -8 -16   77.97    8.80
  -4  -8  16   45.59   15.48
  -4  -8  16   63.80    7.22
   4  -8 -16   77.17    8.14
  -4  -8  16   63.12    7.34
  -4   8  16   72.73    7.67
  -4   8  16   74.92    7.93
  -4   8  16   57.91   12.61
   4   8 -16   65.35    7.53
   2  -8 -16  221.17   11.76
   2  -8 -16  225.54   11.83
   2  -8 -16  188.69   12.40
   2  -8 -16  213.76   20.76
  -2  -8  16  180.67   11.68
  -2  -8  16  178.13   11.61
  -2   8  16  201.06   11.79
  -2   8  16  185.10   11.87
   2   8 -16  197.16   11.46
   0  -8 -16   18.24    5.06
   0  -8 -16    4.60   13.22
   0  -8 -16    9.72   10.42
   0  -8  16   15.51    5.54
   0   8  16   17.55    6.16
   0   8 -16    6.71    4.22
   0   8 -16   18.88    4.84
   0   8 -16    5.27   10.24
   0   8 -16   23.58   18.01
  -2  -8 -16   24.23   10.58
   2  -8  16   21.91    5.86
  -2  -8 -16   21.16   11.21
  -2   8 -16    8.17   11.03
  -4  -8 -16   29.76    8.67
  -6  -8 -16   79.44   14.70
   7  -9 -16   30.58    7.96
   7   9 -16   15.97    6.56
   5  -9 -16   28.85    7.15
  -5  -9  16   35.39    6.73
  -5  -9  16   22.23    6.32
  -5  -9  16   -3.71   15.40
   5   9 -16   28.35    6.36
  -5   9  16   40.07    6.98
  -5   9  16   33.16    6.72
  -3  -9  16   28.17    6.30
  -3  -9  16   23.97    5.95
   3  -9 -16   18.00    6.59
  -3  -9  16    1.96   11.94
   3  -9 -16   21.83   13.13
   3  -9 -16   21.42    6.65
  -3   9  16   28.89    6.95
  -3   9  16   35.25    9.00
  -3   9  16   25.14    6.56
   3   9 -16   28.27    6.24
   1  -9 -16   61.04    6.00
   1  -9 -16   69.37    6.86
   1  -9 -16   61.55   12.59
  -1  -9  16   60.45    6.59
  -1  -9  16   78.42    7.28
   1  -9 -16   73.15    7.05
  -1   9  16   68.98    7.73
   1   9 -16   64.83    6.69
   1   9 -16   84.48   21.91
   1   9 -16   64.32    6.18
   1   9 -16   46.48   11.90
  -1   9  16   51.00    6.64
  -1  -9 -16  196.42   20.52
   1  -9  16  174.71   10.84
  -1  -9 -16  160.18   21.66
   1   9  16  172.67   11.71
  -1   9 -16  171.61   20.66
  -3  -9 -16  229.18   15.22
  -3   9 -16  246.16   22.70
  -5  -9 -16   -4.12    9.40
  -7  -9 -16   13.43   10.82
  -8 -10  16    7.98    9.79
   8 -10 -16    7.24    8.44
   8  10 -16   13.40    7.03
  -6 -10  16   60.29    8.42
   6 -10 -16   59.76    9.02
   6  10 -16   51.03    8.00
  -6  10  16   63.04    7.77
   4 -10 -16   14.37    8.20
  -4 -10  16   14.13    6.30
   4 -10 -16   17.14    6.99
  -4 -10  16    5.66    5.81
   4  10 -16    6.69    6.12
  -4  10  16   16.16    6.62
  -4  10  16   15.22    6.64
   2 -10 -16  216.88   12.92
   2 -10 -16  214.81   21.80
  -2 -10  16  194.20   12.21
   2 -10 -16  218.35   12.28
  -2 -10  16  200.92   12.19
   2 -10 -16  209.83   12.88
   2  10 -16  189.10   12.10
  -2  10  16  208.88   12.44
  -2  10  16  206.94   12.70
   0 -10  16   81.57    7.68
   0 -10  16   61.32    8.08
   0 -10 -16   51.81   16.08
   0 -10 -16   66.48    6.84
   0 -10 -16   64.54   13.22
   0 -10 -16   66.58    6.57
   0  10 -16   63.84    6.54
   0  10 -16   60.47   13.24
   0  10  16   68.29    7.87
   0  10 -16   80.68    6.44
   0  10 -16   37.16   19.98
  -2 -10 -16  120.05   19.26
   2 -10  16  111.43    9.71
  -2  10 -16  113.49   19.93
  -2  10 -16  119.60   20.80
  -4 -10 -16   79.37   11.39
  -6 -10 -16   13.22   12.53
   7 -11 -16    2.96    7.77
   7  11 -16    4.06    6.77
  -5 -11  16    8.26    6.96
  -5 -11  16   20.87    6.53
   5 -11 -16    6.72    7.07
   5  11 -16   15.72    6.37
  -5  11  16   11.69    6.59
  -5  11  16    6.57    6.60
  -3 -11  16   -0.67    5.73
  -3 -11  16    7.99    6.07
   3 -11 -16    5.76    6.71
   3 -11 -16    9.23    7.16
   3  11 -16   -5.30    5.92
  -3  11  16    1.11    6.72
  -3  11  16   -1.23    5.93
   1 -11 -16   58.98   13.36
   1 -11 -16   65.78    7.42
   1 -11 -16   71.02    7.34
  -1 -11  16   73.20    7.85
  -1 -11  16   60.54    6.87
   1  11 -16   57.40    6.52
  -1  11  16   59.57    7.33
  -1  11  16   72.39    8.34
   1  11 -16   71.31    7.19
   1 -11  16  107.92    9.92
  -1 -11 -16  127.95   20.41
  -1  11 -16  112.04   19.91
   1  11  16  126.17   10.97
  -1  11 -16   81.28   21.56
  -3 -11 -16   44.44    9.76
  -3 -11 -16   45.63   13.89
  -3 -11 -16   52.18   13.94
  -3  11 -16   28.74   18.65
  -3  11 -16   43.07   13.49
  -5 -11 -16   36.45   13.05
  -5 -11 -16   26.30   11.56
  -6 -12  16   30.17    8.24
   6 -12 -16   17.02    7.84
  -6  12  16   17.42    7.01
   6  12 -16   19.00    6.99
   4 -12 -16   98.92   10.33
  -4 -12  16  106.98    9.48
  -4 -12  16  105.35    9.48
  -4  12  16  118.69    9.82
  -4  12  16  116.90   10.46
   4  12 -16   96.34    9.35
  -2 -12  16   76.54    8.10
   2 -12 -16   87.11    9.11
  -2 -12  16   72.25    7.78
   2 -12 -16   66.48   14.55
   2 -12 -16   91.32    8.94
  -2  12  16   83.59    8.85
  -2  12  16   92.96    9.43
   2  12 -16   84.97    8.28
   0 -12 -16  399.16   31.40
   0 -12 -16  398.35   19.15
   0 -12 -16  419.32   31.29
   0 -12  16  424.89   19.80
   0  12 -16  409.83   40.33
   0  12 -16  455.36   19.00
   0  12 -16  399.31   19.09
   0  12  16  389.74   20.14
   0  12 -16  377.27   43.29
  -2 -12 -16   27.97   12.58
   2 -12  16    8.63    6.67
  -2 -12 -16   10.90   12.62
  -2 -12 -16    7.57    7.13
  -2  12 -16   10.04   11.99
   2  12  16   11.99    7.76
  -2  12 -16    2.65   19.82
  -4 -12 -16   23.39    9.28
  -4 -12 -16   35.25   13.69
  -4  12 -16   23.37   13.43
  -4  12 -16  -15.18   17.29
  -6 -12 -16    2.54   11.60
  -6 -12 -16   30.05   13.39
   7 -13 -16   40.49   10.22
   7  13 -16   50.20    8.36
  -5 -13  16   18.95    7.23
   5 -13 -16   22.90    7.81
  -5 -13  16   13.47    7.80
  -5  13  16   24.41    7.40
  -5  13  16   26.45    7.47
   5  13 -16    8.98    6.80
  -3 -13  16   65.28    8.49
   3 -13 -16   83.43    8.84
  -3 -13  16   68.46    8.33
   3 -13 -16   79.55    9.11
  -3  13  16   76.32    8.85
  -3  13  16   74.10    8.40
   3  13 -16   73.24    8.29
   1 -13 -16  169.54   11.66
   1 -13 -16  167.60   23.27
   1 -13 -16  144.08   11.12
  -1 -13  16  149.66   11.30
  -1  13  16  146.13   12.73
   1  13 -16  146.86   10.94
  -1 -13 -16  287.39   27.63
  -1 -13 -16  324.55   25.72
   1 -13  16  314.21   16.05
   1  13  16  278.16   17.67
  -1  13 -16  273.29   32.67
  -1  13 -16  293.86   14.42
   3 -13  16   36.33    7.77
  -3 -13 -16   25.61   13.80
  -3 -13 -16   26.56   14.17
  -3 -13 -16   10.27    8.55
  -3  13 -16   25.21   19.54
  -3  13 -16   13.03   12.89
  -5 -13 -16   28.48   13.69
  -5 -13 -16   11.50   10.05
  -6 -14  16   47.17    9.00
   6 -14 -16   41.24    9.35
   6  14 -16   29.66    7.75
  -6  14  16   47.22    8.26
  -4 -14  16   13.90    7.01
  -4 -14  16   27.94    7.35
   4 -14 -16   38.16    8.42
  -4  14  16   23.72    7.82
  -4  14  16   24.41    7.59
   4  14 -16   11.58    7.00
  -2 -14  16   25.84    7.09
   2 -14 -16   31.45    7.74
  -2 -14  16   24.77    7.01
   2 -14 -16   29.65    7.67
  -2  14  16   26.67    7.88
   2  14 -16   26.30    7.01
  -2  14  16   27.62    6.68
   0 -14 -16   90.65   17.19
   0 -14 -16  101.85    8.91
   0 -14  16   91.13    9.06
   0 -14 -16  105.18    8.98
   0  14 -16   78.00    7.81
   0  14 -16  113.58    9.38
   0  14 -16   33.78   28.02
   0  14  16  108.70   10.85
  -2 -14 -16   24.61    7.74
  -2 -14 -16   37.69   13.80
  -2 -14 -16   20.24   14.50
   2 -14  16   22.60    7.36
  -2  14 -16   -6.03   22.35
   2  14  16   29.79    8.37
  -4 -14 -16    4.33   14.50
  -4 -14 -16    1.20    8.53
  -4 -14 -16   25.94   14.69
  -4  14 -16    1.27   13.91
  -4  14 -16   -8.85   19.46
  -6 -14 -16   18.11   14.34
   7 -15 -16   35.76    9.78
   7  15 -16   25.50    8.08
  -7  15  16   21.87    7.41
  -5 -15  16   24.64    8.54
   5 -15 -16   26.55    8.79
  -5 -15  16   18.97    7.44
   5  15 -16   16.71    7.43
  -5  15  16   34.66    8.15
  -5  15  16   37.46    8.08
  -3 -15  16    3.64    7.12
  -3 -15  16   10.97    7.31
   3 -15 -16   -0.76    7.27
   3 -15 -16   16.32    7.66
   3  15 -16    8.05    6.88
  -3  15  16   20.98    7.64
  -3  15  16    2.20    7.75
   1 -15 -16  166.85   12.91
   1 -15 -16  157.25   11.94
  -1 -15  16  151.00   11.92
   1 -15 -16  134.01   23.92
  -1  15  16  169.46   12.80
   1  15 -16  137.97   11.11
  -1 -15 -16   27.29   14.67
   1 -15  16   28.20    7.71
  -1  15 -16   -5.64   24.39
  -1  15 -16   20.80    5.53
   1  15  16   32.99   10.25
  -3 -15 -16   31.26   15.37
  -3 -15 -16   17.03   15.47
  -3 -15 -16   23.79   10.39
   3 -15  16   23.75    7.60
  -3  15 -16   -5.85   20.27
   3  15  16   31.03   10.17
  -5 -15 -16   -9.24   11.81
  -5  15 -16  -37.25   19.56
   6 -16 -16   91.40   12.14
  -6 -16  16   62.64    9.77
  -6  16  16   75.88    9.48
   6  16 -16   72.45    9.86
   4 -16 -16   31.49    8.50
  -4 -16  16   12.23    7.33
  -4 -16  16   29.20    8.31
  -4  16  16   25.40    8.16
   4  16 -16   12.31    7.34
  -4  16  16   24.95    8.15
   2 -16 -16   67.14    9.31
  -2 -16  16   52.09   10.21
  -2 -16  16   28.88    7.65
   2 -16 -16   50.50    8.80
  -2  16  16   41.51    9.36
   2  16 -16   39.52    7.87
   0 -16 -16   38.61    7.97
   0 -16 -16   26.92   14.69
   0 -16  16   37.41    7.81
   0 -16 -16   37.43    7.29
   0  16  16   41.28   10.29
   0  16 -16   33.43    6.43
  -2 -16 -16   33.23    8.77
  -2 -16 -16   32.82   16.17
   2 -16  16   29.62    7.58
   2  16  16   38.16    9.94
  -2  16 -16    3.81   23.24
  -4 -16 -16   20.13   10.21
  -4 -16 -16   23.17   18.16
  -4  16 -16  -11.03   21.79
   5 -17 -16    3.50    8.60
  -5 -17  16   14.10    8.82
   5  17 -16   16.23    7.72
  -5  17  16   32.91    8.50
  -5  17  16   20.93    8.24
   3 -17 -16   37.69    8.89
  -3 -17  16   15.14    7.28
  -3 -17  16   30.76    7.96
  -3  17  16    9.64    8.95
   3  17 -16   20.47    7.51
  -3  17  16   19.93    8.83
   1 -17 -16   47.76    9.03
  -1 -17  16   41.10    8.05
   1 -17 -16   40.42    8.01
  -1  17  16   28.13    9.53
   1  17 -16   47.46    7.37
  -1 -17 -16  111.55   19.73
   1 -17  16  131.05   11.49
   1  17  16  115.19   12.28
  -1  17 -16  106.65   10.18
  -3 -17 -16   13.88   17.14
   3 -17  16   10.46    7.28
  -3 -17 -16   15.03    9.45
  -3  17 -16  -14.71   21.97
   3  17  16   25.34    9.93
  -5 -17 -16   44.47   20.77
  -5  17 -16  -13.40   22.91
   6 -18 -16   24.03    9.78
  -6 -18  16   16.13    8.89
   6  18 -16   32.22    8.47
  -6  18  16   14.99    8.21
  -4 -18  16   17.11    8.71
   4 -18 -16    7.88    8.55
  -4 -18  16   13.36    7.64
  -4  18  16   18.82    8.57
  -4  18  16   17.28    8.57
   4  18 -16   19.18    7.96
  -2 -18  16   61.11    9.28
   2 -18 -16   63.35   11.15
   2 -18 -16   63.89   10.87
   2  18 -16   64.74    8.68
  -2  18  16   63.97   11.48
   0 -18 -16   -5.58    7.48
   0 -18  16    5.06    7.17
   0 -18 -16    0.04    8.29
   0  18 -16    5.99    6.06
   0  18  16    9.38   10.92
  -2 -18 -16    4.51    8.73
   2 -18  16    5.75    6.90
  -2 -18 -16    6.37   16.43
   2  18  16   -2.65   10.16
   4 -18  16   19.66    9.26
  -4 -18 -16   25.36   19.52
  -4  18 -16  -24.44   22.82
  -5 -19  16   17.94    8.78
   5 -19 -16    8.60    9.65
   5  19 -16    6.00    8.10
  -5  19  16   11.61    8.43
  -3 -19  16   11.80    8.06
  -3 -19  16   15.03    9.03
  -3  19  16   25.40    9.90
   3  19 -16   15.93    7.77
   1 -19 -16   39.20    9.75
   1 -19 -16   37.96    9.60
  -1 -19  16   15.83    7.77
  -1  19  16   30.27   10.60
   1  19 -16   30.96    7.48
   1 -19  16   62.67    9.24
   1  19  16   59.34   13.47
   3 -19  16   43.93    9.30
  -3 -19 -16   37.08   11.28
  -3 -19 -16   38.71   19.24
   3  19  16   48.46   12.73
  -4 -20  16   13.66    8.82
  -4 -20  16    8.35    8.21
   4 -20 -16    8.15    9.27
   4  20 -16    5.14    8.12
  -4  20  16   11.88    8.96
  -4  20  16   11.58    8.76
   2 -20 -16   52.13    9.61
  -2 -20  16   41.92    9.05
   2 -20 -16   54.64   11.29
   2  20 -16   33.38    7.95
  -2  20  16   43.21   11.32
   0 -20 -16   14.36    9.94
   0 -20  16   14.49    7.88
   0  20 -16    2.25    6.43
   0  20  16   20.39   10.96
   2 -20  16   82.79   11.71
   2  20  16   58.96   11.64
   4 -20  16   19.82    9.62
  -4 -20 -16    5.82   18.39
   5  21 -16   30.29    9.39
   3 -21 -16    5.82    9.36
  -3 -21  16    5.45    8.85
   3  21 -16    7.07    8.21
  -3  21  16   12.71   10.82
   1 -21 -16   24.21    9.77
   1 -21 -16   31.10   10.70
  -1 -21  16   27.97    8.61
  -1  21  16    6.29   10.61
   1  21 -16   17.14    7.38
  -1 -21 -16   18.93    9.96
   1 -21  16    9.47    8.03
   1  21  16    7.01   13.02
  -3 -21 -16   25.67   11.44
   3 -21  16   29.17    9.25
   3  21  16   35.43   14.37
   4 -22 -16   15.40   12.07
  -4 -22  16   10.97   10.29
  -4  22  16   15.82    9.91
   4  22 -16    2.16    8.54
   2 -22 -16    6.76   10.98
  -2 -22  16    8.44    8.58
   2  22 -16    7.60    7.57
  -2  22  16  -14.08   10.58
   0 -22  16    0.51    8.52
   0 -22 -16   -5.70   10.49
   0  22  16    5.26   13.45
   2 -22  16    5.15    8.31
   2  22  16    3.38   10.74
   3 -23 -16   13.96   10.13
  -3 -23  16    5.25    9.00
  -3  23  16    9.64   11.22
   3  23 -16    8.58    8.31
  -1 -23  16    5.85    8.90
   1 -23 -16   -0.05   10.64
  -1  23  16   -7.50   11.92
   1  23 -16    4.85    6.85
  -1 -23 -16   26.01   11.08
   1 -23  16   23.45   10.19
   1  23  16   19.55   13.40
  -2 -24  16   12.32    9.88
   2  24 -16   -1.19    7.75
  -2  24  16   -0.63   12.79
   0 -24 -16   18.49   11.71
   0 -24  16    1.88    9.10
   0  24  16   16.56   13.38
   8   0 -17    1.19    6.96
  -8   0  17   11.64    8.94
   6   0 -17   -7.06    6.03
  -6   0  17    7.16   13.99
  -6   0  17    8.33    5.85
  -6   0  17    3.19    5.40
   4   0 -17    2.13    6.09
  -4   0  17   -2.88    5.32
  -4   0  17   -1.21   12.60
  -4   0  17    3.00    3.81
   4   0 -17    9.55    5.54
  -4   0  17    1.60    5.65
   0   0 -17   26.78   14.30
   0   0  17   -3.02    5.04
   7  -1 -17   33.01    7.93
   7   1 -17   22.16    7.24
  -5  -1  17   96.31   17.95
   5  -1 -17  127.16   10.35
  -5  -1  17  122.30    9.61
  -5  -1  17  126.47    9.89
   5   1 -17  112.99   10.08
  -5   1  17  129.99    9.73
  -5   1  17  132.50   24.00
  -5   1  17  138.74   10.01
   1  -1 -17   57.94    5.40
   1  -1 -17   46.42   15.76
  -1  -1  17   59.85    6.41
   1  -1 -17   52.08    5.87
  -1  -1  17   63.07    5.90
   1   1 -17   28.22   12.91
   1   1 -17   51.72    5.67
   1   1 -17   63.29    5.45
  -1   1  17   65.85    6.71
   1   1 -17  131.81   39.15
  -1   1  17   53.79    5.81
  -1   1 -17   10.58   24.97
  -8  -2  17   -0.28    9.34
   8  -2 -17    2.44    7.91
   8   2 -17    3.68    7.23
  -8   2  17   -4.41    8.80
  -6  -2  17   -2.66   14.88
   6  -2 -17   28.47    7.47
  -6  -2  17   19.50    6.23
  -6   2  17   11.88    5.67
  -6   2  17   16.52    5.81
  -6   2  17   12.90   13.75
   6   2 -17   21.25    6.75
  -4  -2  17   -2.54    5.34
   4  -2 -17    1.33    5.90
   4  -2 -17   -6.61    5.95
  -4  -2  17    2.36    5.66
  -4  -2  17   -1.78   13.87
  -4  -2  17    5.30    3.71
   4   2 -17   -6.26    5.87
  -4   2  17    8.53    5.67
  -4   2  17    8.83    6.02
   4   2 -17   12.37    5.75
  -4   2  17    2.20   10.87
  -4   2  17   -0.57    3.91
   2  -2 -17   50.16    5.38
   2  -2 -17   49.92    6.11
  -2  -2  17   46.57    5.91
   2  -2 -17   52.41    6.27
  -2  -2  17   55.90    6.60
   2   2 -17   57.86   43.58
  -2   2  17   44.80    6.64
   2   2 -17   49.97    6.12
   2   2 -17   48.04    5.64
  -2   2  17   41.12    5.79
   0  -2 -17   54.47   14.42
   0  -2  17   64.78    6.58
   0   2 -17   64.85   13.55
   0   2  17   67.53    6.66
   0   2 -17   68.77    5.99
   0   2 -17   99.55   28.60
   7  -3 -17    4.08    7.55
   7   3 -17    7.53    6.82
   5  -3 -17   37.90    7.40
  -5  -3  17   20.95   17.61
  -5  -3  17   37.97    6.67
  -5  -3  17   35.70    6.49
  -5   3  17   34.99    6.71
   5   3 -17   31.83    6.74
  -5   3  17   29.25   13.02
  -5   3  17   32.53    6.40
   1  -3 -17   16.08    5.41
  -1  -3  17   12.39    5.35
  -1  -3  17   24.11    5.05
   1  -3 -17   14.44   14.85
   1  -3 -17   14.73    4.32
   1  -3 -17   13.08    4.90
   1   3 -17  -18.32   28.56
   1   3 -17    6.13    4.17
   1   3 -17   15.25    5.05
  -1   3  17   17.85    5.57
   1   3 -17   20.70    9.99
  -1   3  17   11.42    4.88
  -1  -3 -17  140.47   20.48
  -1   3 -17   64.39   21.98
  -1   3 -17  133.44   18.86
   1   3  17  108.89    8.24
   8  -4 -17   56.87   10.20
  -8  -4  17   53.20   10.89
   8   4 -17   38.46    8.37
  -6  -4  17   51.44    7.05
  -6  -4  17   -0.09   19.60
   6  -4 -17   53.13    8.84
  -6   4  17   53.21    6.99
  -6   4  17   58.15    7.20
  -6   4  17   55.99   17.05
   6   4 -17   48.81    7.67
   4  -4 -17   75.19    8.24
   4  -4 -17   77.70    8.19
  -4  -4  17   54.59    7.11
  -4  -4  17   76.53    7.35
  -4  -4  17   77.97    7.39
  -4   4  17   58.15   13.72
  -4   4  17   77.39    7.35
  -4   4  17   82.14    7.79
   4   4 -17   55.84    7.15
   2  -4 -17  199.78   10.64
  -2  -4  17  180.33   11.11
   2  -4 -17  195.06   11.31
   2  -4 -17  191.37   11.02
  -2  -4  17  200.00   11.09
   2  -4 -17  199.40   19.41
  -2   4  17  188.58   11.18
  -2   4  17  180.68   11.22
   2   4 -17  190.04   10.80
   2   4 -17  185.34   10.90
   0  -4 -17   -8.02   11.99
   0  -4  17    6.22    5.26
   0  -4 -17    8.76    4.13
   0   4 -17    8.21   10.02
   0   4 -17   18.65   24.04
   0   4 -17    7.66    3.85
   0   4  17   10.22    5.45
   7  -5 -17   12.72    8.03
  -7   5  17    5.20    5.81
   7   5 -17    1.63    6.41
  -5  -5  17  148.68   10.90
  -5  -5  17   82.13   23.50
  -5  -5  17  148.41   10.09
   5  -5 -17  150.55   11.27
   5   5 -17  140.03   10.74
  -5   5  17  131.33   10.17
  -5   5  17  134.05   10.17
  -5   5  17  136.53   25.04
  -3  -5  17   99.74    8.91
   3  -5 -17   92.78    8.50
   3  -5 -17   95.40    8.41
  -3  -5  17   92.09    8.03
   3  -5 -17   76.79   13.60
  -3   5  17  103.26    9.06
   3   5 -17  104.48    8.74
  -3   5  17  100.83    8.83
  -1  -5  17   22.54    5.89
   1  -5 -17   34.49    4.94
   1  -5 -17   13.47   13.37
   1  -5 -17   21.37    5.68
  -1  -5  17   21.17    5.12
   1  -5 -17   23.12    5.29
   1   5 -17   23.75    5.16
  -1   5  17   23.56    5.26
   1   5 -17   17.81   10.49
  -1   5  17   21.65    6.01
   1   5 -17   30.62   28.64
   1   5 -17   27.32    4.64
   1  -5  17  124.93    9.17
  -1  -5 -17  133.27   19.77
  -1  -5 -17  145.96   20.95
  -1   5 -17  145.42   26.43
   1   5  17  112.17    8.96
  -1   5 -17  117.80   17.39
  -7  -5 -17   27.48   14.10
  -8  -6  17   -5.86    9.26
   8  -6 -17    4.33    8.76
   8   6 -17   -0.02    6.94
   6  -6 -17   34.20    8.20
  -6  -6  17   34.48    7.27
  -6   6  17   34.74    6.93
   6   6 -17   27.09    6.96
  -6   6  17   35.28    6.83
  -4  -6  17   37.38    6.47
  -4  -6  17   -5.65   17.22
   4  -6 -17   31.49    7.33
   4  -6 -17   29.86    7.25
  -4  -6  17   36.50    6.56
  -4   6  17   43.66    6.98
   4   6 -17   33.55    6.49
  -4   6  17   38.46    6.70
  -4   6  17    5.59   12.90
   2  -6 -17   13.86    5.96
   2  -6 -17   12.06    4.95
  -2  -6  17   18.04    5.38
   2  -6 -17   11.74   10.62
  -2  -6  17    5.20    5.67
   2  -6 -17   11.29    5.79
   2   6 -17    9.04    5.40
   2   6 -17   96.14   35.22
  -2   6  17   10.52    6.17
   2   6 -17    7.53    5.55
  -2   6  17    9.65    5.60
   0  -6 -17    7.31   10.14
   0  -6  17   13.18    5.50
   0  -6 -17    0.33    3.98
   0  -6 -17    9.14    5.01
   0  -6 -17   -3.59   12.19
   0   6 -17   40.58   22.05
   0   6 -17   11.55    4.21
   0   6 -17   16.89   10.77
   0   6  17   10.56    5.73
  -2   6 -17   66.57   12.76
  -2   6 -17   27.00   18.94
  -6  -6 -17   24.97   11.74
   7  -7 -17   13.14    8.40
  -7   7  17   15.85    6.36
   7   7 -17   13.76    6.97
  -5  -7  17   15.40    6.16
   5  -7 -17    5.29    6.78
  -5  -7  17   20.43    5.99
  -5  -7  17  -32.66   21.23
  -5   7  17   18.31    6.41
   5   7 -17   18.31    6.22
  -5   7  17   19.76    6.42
   3  -7 -17   42.54    7.17
  -3  -7  17   54.03    6.77
   3  -7 -17   42.90   11.91
  -3  -7  17   49.67    6.83
   3  -7 -17   61.39    7.80
  -3   7  17   67.17    7.69
  -3   7  17   47.95   11.54
  -3   7  17   55.29    7.28
   3   7 -17   72.24    7.46
   1  -7 -17   -3.40   12.15
  -1  -7  17   -0.13    4.98
   1  -7 -17    3.12   10.73
   1  -7 -17    5.24    5.35
  -1  -7  17    6.62    5.51
   1  -7 -17    5.78    4.79
   1  -7 -17    8.15    5.28
  -1   7  17   10.19    5.15
   1   7 -17   -9.70   10.05
   1   7 -17    0.88    4.97
  -1   7  17    6.53    5.94
   1   7 -17    1.19    4.37
   1  -7  17   49.76    6.67
  -1  -7 -17   49.47   12.03
  -1  -7 -17   51.07   15.27
  -1   7 -17   44.66   12.63
   1   7  17   52.71    7.15
  -5  -7 -17    9.58   10.03
  -7  -7 -17   16.00   14.34
   8  -8 -17   42.19   10.24
   8   8 -17   20.65    7.82
   6  -8 -17   26.35    8.12
  -6  -8  17   29.52    7.42
   6   8 -17   22.52    6.89
  -6   8  17   31.34    6.69
  -6   8  17   27.14    8.03
   4  -8 -17    6.60    7.37
  -4  -8  17    3.94    6.00
   4  -8 -17    3.03    6.71
  -4  -8  17    6.34    5.83
  -4   8  17    5.99    6.48
  -4   8  17    2.06    6.14
   4   8 -17   -0.21    5.62
   2  -8 -17   -7.21    9.69
   2  -8 -17   -2.77    5.05
  -2  -8  17   -5.12    5.64
   2  -8 -17  -13.08    5.81
  -2  -8  17   -5.97    5.16
   2  -8 -17   -4.07    5.85
   2   8 -17   -0.28    5.42
  -2   8  17    4.42    5.38
  -2   8  17   12.03    6.60
   2   8 -17    2.19    6.20
   0  -8 -17   -0.77    5.11
   0  -8 -17    3.62   13.94
   0  -8  17    1.80    5.46
   0  -8 -17   -0.78   10.63
   0   8 -17    4.39    4.18
   0   8 -17   -0.66   10.39
   0   8  17   -3.47    5.84
   0   8 -17    0.01    4.63
   0   8 -17  -25.06   19.06
  -2  -8 -17   24.42   11.76
   2  -8  17   23.11    6.22
  -2  -8 -17   18.39   11.67
  -2   8 -17   18.11   11.85
  -2   8 -17   36.47   17.34
  -4  -8 -17   45.82   10.08
  -6  -8 -17   18.22   12.29
   7  -9 -17   30.89    9.38
   7   9 -17   18.46    6.87
  -5  -9  17   18.14    6.26
   5  -9 -17   22.80    7.21
  -5  -9  17   28.84    6.96
  -5   9  17   23.64    6.98
  -5   9  17   35.17    7.01
   5   9 -17   42.16    6.96
  -3  -9  17  173.30   11.60
   3  -9 -17  193.68   12.09
  -3  -9  17  166.22   11.57
   3  -9 -17  193.13   12.60
   3   9 -17  154.75   11.29
  -3   9  17  162.85   11.80
  -3   9  17  166.89   11.83
   1  -9 -17  183.94   25.03
  -1  -9  17  171.71   11.32
   1  -9 -17  169.11   10.09
  -1  -9  17  163.30   11.07
   1  -9 -17  152.81   10.42
   1  -9 -17  179.28   20.99
   1  -9 -17  186.12   10.91
   1   9 -17  165.68   20.82
   1   9 -17  179.06   10.48
  -1   9  17  162.76   11.35
  -1   9  17  174.15   11.61
   1   9 -17  167.94   10.54
   1  -9  17  108.77    9.03
  -1  -9 -17   94.85   16.15
  -1  -9 -17   93.01   15.14
   1   9  17   96.40    8.94
  -1   9 -17   76.23   23.42
  -1   9 -17   81.51   14.60
  -3   9 -17   39.37   17.92
  -5  -9 -17   22.44    9.88
   8 -10 -17   24.93    9.80
   8  10 -17   17.74    7.37
   6 -10 -17   79.60    9.52
  -6 -10  17   47.29    8.72
   6  10 -17   47.79    8.17
  -6  10  17   60.05    7.88
   4 -10 -17   96.28   11.75
  -4 -10  17   60.52    7.64
  -4 -10  17   65.45    7.87
   4 -10 -17   65.32    8.67
  -4  10  17   89.07    8.82
  -4  10  17   70.50    8.31
   4  10 -17   69.78    8.05
   2 -10 -17    0.59    6.32
   2 -10 -17   11.78    6.79
  -2 -10  17    5.31    5.85
   2 -10 -17    5.85   10.44
  -2 -10  17   -3.08    5.99
  -2  10  17    4.44    5.87
   2  10 -17    2.88    5.95
  -2  10  17    7.71    6.83
   0 -10 -17   10.04   15.40
   0 -10 -17   26.29   12.52
   0 -10  17   36.26    6.63
   0 -10 -17   20.75    6.00
   0  10 -17   67.25   20.08
   0  10 -17   26.90    5.61
   0  10 -17   28.43   12.12
   0  10 -17   39.81    5.42
   0  10  17   38.21    7.62
   2 -10  17   35.85    7.07
  -2 -10 -17   28.92   12.77
  -2  10 -17   25.00   12.27
  -2  10 -17   45.14   18.96
   2  10  17   31.99    8.25
  -4 -10 -17    1.79    8.60
  -6 -10 -17   26.96   13.66
   7 -11 -17   24.59    8.60
   7  11 -17   22.69    7.48
  -7  11  17   27.05    7.15
  -5 -11  17  153.96   11.68
   5 -11 -17  157.11   12.22
  -5 -11  17  155.95   12.97
  -5  11  17  167.54   11.77
   5  11 -17  139.15   11.55
  -5  11  17  135.81   11.38
  -3 -11  17   11.94    6.17
   3 -11 -17    8.50    6.93
   3 -11 -17    3.49    7.80
  -3 -11  17   13.45    6.38
  -3  11  17   20.11    7.42
  -3  11  17   16.11    6.41
   3  11 -17   11.52    6.33
  -1 -11  17   89.08    8.36
   1 -11 -17  101.04    8.71
   1 -11 -17   97.03    9.01
   1 -11 -17   90.10   15.40
  -1 -11  17   94.35    8.98
   1  11 -17  100.78    9.00
   1  11 -17  118.68   23.01
  -1  11  17  118.84   10.07
   1  11 -17   96.29    8.35
   1 -11  17  245.21   14.16
  -1 -11 -17  259.86   24.98
  -1 -11 -17  271.19   24.17
  -1  11 -17  244.60   24.67
  -1  11 -17  201.62   36.80
   1  11  17  235.79   14.98
  -3 -11 -17   29.24   13.22
  -3 -11 -17   20.64    8.97
  -3 -11 -17    9.97   12.28
  -3  11 -17   20.03   12.61
  -3  11 -17    3.27   19.00
  -5 -11 -17   15.64    9.94
  -6 -12  17   32.33    7.88
   6 -12 -17   25.32    8.64
  -6  12  17   12.38    7.25
   6  12 -17   23.27    7.18
  -4 -12  17  100.95    9.71
  -4 -12  17   92.48    9.53
   4 -12 -17  128.21   10.83
  -4  12  17  121.79   10.86
   4  12 -17   97.78    9.50
  -4  12  17  124.98   10.09
  -2 -12  17   67.91    8.16
  -2 -12  17   77.60    8.62
   2 -12 -17   96.35    9.26
   2 -12 -17  106.76    9.71
  -2  12  17   80.63    9.13
  -2  12  17  104.83    9.81
   2  12 -17   66.79    8.24
   0 -12  17  208.79   12.80
   0 -12 -17  194.57   23.66
   0 -12 -17  159.95   11.09
   0 -12 -17  175.99   11.75
   0  12  17  191.04   13.60
   0  12 -17  215.25   11.72
   0  12 -17  193.24   11.74
  -2 -12 -17   43.13   13.07
  -2 -12 -17   27.00   13.61
   2 -12  17   33.77    7.24
  -2  12 -17   69.07   22.30
   2  12  17   29.51    8.57
  -2  12 -17   10.28   12.63
  -4 -12 -17    6.82    9.90
  -4  12 -17    5.87   12.70
  -4  12 -17   44.95   19.67
  -6 -12 -17    9.32   12.29
   7 -13 -17   36.09    9.46
  -7  13  17   42.97    7.65
   7  13 -17   44.78    8.45
   5 -13 -17   50.32    9.12
  -5 -13  17   47.51    8.17
  -5 -13  17   42.57    8.37
  -5  13  17   64.81    8.67
  -5  13  17   53.09    8.42
   5  13 -17   31.40    7.66
  -3 -13  17   22.41    6.90
   3 -13 -17   46.29    8.82
  -3 -13  17   23.57    7.23
   3 -13 -17   30.51    8.14
  -3  13  17   38.06    8.22
   3  13 -17   27.88    7.07
  -3  13  17   19.93    7.39
  -1 -13  17  271.02   15.45
   1 -13 -17  277.74   15.13
   1 -13 -17  280.53   15.70
   1 -13 -17  273.87   27.25
  -1  13  17  290.93   17.07
   1  13 -17  293.12   15.31
   1  13 -17  275.94   35.74
   1 -13  17   71.28    8.36
  -1 -13 -17   60.72   15.20
   1  13  17   69.52    9.83
  -1  13 -17   56.01   23.73
  -3 -13 -17   24.13    9.72
  -3 -13 -17   55.43   15.50
  -3 -13 -17   19.39   14.16
   3 -13  17   19.37    7.51
  -3  13 -17   20.67   13.41
  -3  13 -17   -8.26   19.69
  -5 -13 -17   30.88   12.43
   6 -14 -17   50.98    9.98
  -6 -14  17   38.17    9.12
  -6  14  17   42.26    8.27
   6  14 -17   37.12    8.15
  -4 -14  17   11.27    7.48
  -4 -14  17   18.05    7.47
   4 -14 -17   24.21    8.12
   4  14 -17    4.81    6.87
  -4  14  17   30.86    8.12
  -4  14  17   19.85    8.02
   2 -14 -17  315.44   16.23
  -2 -14  17  240.18   15.07
  -2 -14  17  239.28   15.47
   2 -14 -17  244.46   14.83
   2  14 -17  227.29   14.29
  -2  14  17  244.31   15.78
   0 -14 -17   25.38   14.15
   0 -14  17   22.04    7.28
   0 -14 -17   31.52    7.20
   0  14  17   18.94    8.46
   0  14 -17   22.10    5.75
   0  14 -17   31.40    6.21
   0  14 -17   71.17   30.10
   2 -14  17   41.17    8.37
  -2 -14 -17   74.70   16.57
  -2 -14 -17   48.66   16.58
   2  14  17   55.21    9.94
  -4 -14 -17    4.14   14.81
  -4 -14 -17    2.14    9.14
  -4 -14 -17   14.44   14.82
  -4  14 -17    0.15   14.87
  -4  14 -17   30.11   21.93
  -6 -14 -17   34.09   15.88
   7 -15 -17   41.87   10.10
   7  15 -17   35.60    8.84
  -7  15  17   44.69    8.47
  -5 -15  17   14.23    7.43
  -5 -15  17   21.63    8.04
   5 -15 -17    6.99    8.17
  -5  15  17   17.94    7.86
  -5  15  17   24.79    8.10
   5  15 -17   13.18    7.30
  -3 -15  17   37.16    8.33
   3 -15 -17   50.87    9.13
   3 -15 -17   46.17    9.43
  -3 -15  17   41.27    8.08
   3  15 -17   37.59    7.79
  -3  15  17   38.96    9.16
  -3  15  17   40.61    8.37
   1 -15 -17   15.47    7.29
  -1 -15  17   13.62    7.16
   1 -15 -17   18.14    8.19
   1  15 -17   21.26    6.59
  -1  15  17   22.57    9.47
  -1 -15 -17  118.03   19.87
   1 -15  17  111.16   10.58
   1  15  17  129.51   12.56
  -3 -15 -17   21.38   16.47
  -3 -15 -17   42.70   10.63
   3 -15  17   44.24    8.07
   3  15  17   30.73   10.65
  -3  15 -17    2.03   22.70
  -5 -15 -17   25.12   18.15
  -5 -15 -17    8.92   11.55
  -5  15 -17  -11.47   22.21
  -6 -16  17   14.48    9.53
   6 -16 -17    9.36    9.49
  -6  16  17   11.36    7.85
   6  16 -17   18.23    7.98
   4 -16 -17   19.40    8.71
  -4 -16  17   14.91    8.14
  -4 -16  17   14.37    7.56
   4  16 -17   21.90    7.77
  -4  16  17   25.96    8.22
  -4  16  17   16.79    8.56
  -2 -16  17   41.00    8.41
   2 -16 -17   49.27    9.44
   2 -16 -17   43.98    9.24
  -2  16  17   56.86   10.20
   2  16 -17   37.81    7.96
   0 -16  17  144.68   12.25
   0 -16 -17  120.82   10.52
   0 -16 -17  136.68   24.70
   0 -16 -17  153.44   12.55
   0  16 -17  136.25   10.85
   0  16  17  140.31   14.29
  -2 -16 -17   50.70   17.66
  -2 -16 -17   38.01    9.61
   2 -16  17   69.03    9.29
  -2  16 -17  -12.30   23.34
   2  16  17   51.30   10.70
  -4 -16 -17   10.10    9.47
  -4 -16 -17    1.11   16.11
   4 -16  17    6.01    7.36
  -4  16 -17  -27.57   22.94
   5 -17 -17   22.63    9.62
  -5 -17  17    4.80    9.44
   5  17 -17   17.43    7.71
  -5  17  17   12.23    8.16
  -5  17  17    9.77    8.28
  -3 -17  17   14.83    7.54
   3 -17 -17   12.62   10.16
   3 -17 -17   14.69    8.48
  -3 -17  17   10.25    7.51
   3  17 -17   10.81    7.32
  -3  17  17   28.83    9.58
   1 -17 -17  123.41   11.68
  -1 -17  17   99.73   10.78
   1 -17 -17  148.21   12.20
   1  17 -17  127.11   10.93
  -1  17  17  137.19   13.43
   1 -17  17   57.27    9.09
  -1 -17 -17   55.03   17.33
   1  17  17   74.63   12.80
  -3 -17 -17   17.82   10.21
   3 -17  17   28.06    7.58
  -3 -17 -17   18.99   16.24
  -3  17 -17    8.02   24.39
  -5 -17 -17   10.99   18.56
  -5 -17 -17   14.66   12.35
  -5  17 -17  -35.32   22.69
   6 -18 -17   36.82   11.02
  -6 -18  17   38.26    9.68
  -6  18  17   49.49    9.24
   6  18 -17   27.53    8.71
  -4 -18  17    6.18    8.01
   4 -18 -17   19.10    9.75
  -4 -18  17   12.73    8.62
  -4  18  17   21.08    9.41
   4  18 -17   14.47    7.91
  -4  18  17    9.55    8.41
   2 -18 -17    2.50    9.38
   2 -18 -17    1.01    9.63
  -2 -18  17    2.86    7.10
  -2  18  17   -2.00    9.74
   2  18 -17    7.13    6.87
   0 -18 -17   66.08   10.20
   0 -18  17   51.47    8.78
   0  18 -17   46.14    7.51
   0  18  17   59.99   13.48
   2 -18  17    3.90    7.25
  -2 -18 -17    3.53   16.05
  -2 -18 -17   -4.26    9.48
   2  18  17   12.59   10.96
  -2  18 -17  -46.87   24.75
  -4 -18 -17    2.71   10.07
   4 -18  17   17.15    9.07
  -4 -18 -17    9.42   18.12
  -4  18 -17  -34.56   22.25
   5 -19 -17    2.70   10.47
  -5 -19  17    9.62    9.51
  -5  19  17   12.78    9.02
   5  19 -17    4.32    8.09
  -3 -19  17   12.33    7.91
   3 -19 -17   30.17    9.73
   3  19 -17   38.30    8.31
  -3  19  17   10.41   10.07
   1 -19 -17   55.39    9.71
   1 -19 -17   65.07   10.74
  -1 -19  17   44.66    8.75
  -1  19  17   61.04   11.95
   1  19 -17   52.16    8.03
   1 -19  17   38.17    8.28
   1  19  17   44.48   13.34
  -3 -19 -17   47.62   12.08
  -3 -19 -17   29.81   18.85
   3 -19  17   42.20    9.35
   3  19  17   41.49   12.19
  -4 -20  17    5.13    7.69
  -4 -20  17   -2.48    8.93
   4 -20 -17    4.50    9.02
  -4  20  17    5.60    9.38
   4  20 -17   -4.22    8.24
   2 -20 -17   -4.54    9.81
   2 -20 -17   12.76    8.35
  -2 -20  17    8.12    8.26
   2  20 -17    5.77    7.46
  -2  20  17  -11.11   10.67
   0 -20 -17   -0.21    9.68
   0 -20  17    8.85    7.73
   0  20  17    6.61   11.33
   2 -20  17    8.58    7.63
  -2 -20 -17    9.02   10.43
   2  20  17   22.03   13.11
  -3 -21  17   -0.39    7.99
   3 -21 -17   -1.04   10.38
   3  21 -17    3.45    7.75
  -3  21  17    2.83   10.46
   1 -21 -17   27.88   10.35
  -1 -21  17   15.32    9.19
   1  21 -17   13.22    7.07
  -1  21  17   12.73   11.31
   1 -21  17    3.77    7.83
   3 -21  17   11.87    9.00
  -3 -21 -17   15.23   11.09
   3  21  17   -0.38   12.30
   4 -22 -17    3.70   10.14
  -4 -22  17   -3.02    8.86
  -4  22  17   31.46   10.92
   4  22 -17   -5.95    8.56
   2 -22 -17    4.34   10.48
   2 -22 -17    5.99   10.71
  -2 -22  17    9.54    9.22
   2  22 -17   -7.08    7.09
  -2  22  17    6.10   11.68
   0 -22 -17   65.57   12.08
   0 -22  17   42.66   10.06
   0  22  17   76.58   14.35
   2 -22  17    6.97    8.93
   2  22  17   19.98   12.25
   3 -23 -17   12.59   10.17
  -3 -23  17   -4.82    9.60
   3  23 -17    6.95    8.60
  -3  23  17    4.64   11.86
  -1 -23  17    9.66    9.34
   1 -23 -17   38.88   11.77
   1  23 -17   17.13    7.71
  -1  23  17   31.04   13.23
   1 -23  17    5.75    8.77
   1  23  17   10.92   13.20
  -2 -24  17   16.05    9.69
  -2  24  17   21.00   13.15
   2  24 -17   15.21    8.18
   0 -24  17   52.23   10.79
   0  24  17   69.02   15.78
  -8   0  18   92.48   12.58
   8   0 -18   71.27    9.82
  -6   0  18  120.36    9.69
  -6   0  18  125.81   10.36
   6   0 -18  124.97   10.98
  -4   0  18  166.72   11.24
   4   0 -18  183.18   12.10
  -4   0  18  180.57   11.48
   4   0 -18  158.61   11.50
  -4   0  18  229.18   25.02
  -2   0  18  505.50   22.72
   2   0 -18  532.36   22.62
   2   0 -18  528.36   22.26
  -2   0  18  515.37   22.52
   2   0 -18  504.16   22.51
   0   0 -18   57.84   38.32
   0   0  18    3.22    5.56
   0   0 -18  -15.72   14.48
  -7  -1  18    8.75    6.46
   7  -1 -18   30.67    8.03
   7   1 -18   13.13    7.10
  -7   1  18    9.88    6.34
  -5  -1  18  135.27    9.95
  -5  -1  18  123.48    9.77
  -5  -1  18   96.57   18.11
   5  -1 -18  122.74   10.46
  -5   1  18  136.86   24.26
  -5   1  18  130.76   10.29
   5   1 -18  112.94   10.31
  -5   1  18  136.80   10.05
   1  -1 -18   -6.78    4.74
   1  -1 -18    4.07    4.16
  -1  -1  18    1.07    4.86
   1  -1 -18  -29.68   44.75
  -1  -1  18   -0.18    5.48
   1   1 -18    0.83    4.69
   1   1 -18    6.00    4.33
  -1   1  18   -7.43    4.69
  -1   1  18    3.26    5.65
  -1  -1 -18   69.76   34.16
  -1  -1 -18   24.98   13.52
  -1   1 -18   47.21   15.21
  -8  -2  18   37.83   10.90
   8  -2 -18   27.75    8.68
   8   2 -18   35.58    8.54
  -8   2  18   40.63    9.95
  -6  -2  18   38.86    6.52
   6  -2 -18   40.77    8.01
  -6  -2  18   38.59    6.96
   6   2 -18   36.05    7.26
  -6   2  18   38.83    6.68
  -6   2  18   41.42    6.77
  -4  -2  18    6.60    6.04
   4  -2 -18   17.43    6.89
  -4  -2  18   15.49   13.52
  -4  -2  18    7.66    5.64
   4  -2 -18   13.72    6.34
  -4   2  18   16.78   11.12
  -4   2  18    8.32    6.20
  -4   2  18   11.17    5.99
   4   2 -18   13.89    6.69
   4   2 -18    8.98    6.07
   2   2 -18  -11.79   46.39
   0  -2 -18  202.72   24.67
   0  -2  18  189.38   11.05
   0   2 -18  190.45    9.84
   0   2 -18  194.07   22.63
   0   2  18  179.33   10.92
   7  -3 -18   35.07    8.53
  -7  -3  18   37.22    7.26
   7   3 -18   31.96    7.65
   5  -3 -18   94.61    9.16
  -5  -3  18   72.41   21.02
  -5  -3  18   99.35    8.30
  -5  -3  18   93.31    8.31
  -5   3  18  102.55    8.70
  -5   3  18   71.80   19.88
   5   3 -18   96.42    8.69
  -5   3  18   94.61    8.36
  -3  -3  18  258.11   13.48
   3  -3 -18  268.07   13.82
   3  -3 -18  258.86   13.50
  -3  -3  18  239.35   27.79
  -3  -3  18  255.65   13.26
   3  -3 -18  229.77   21.92
  -3   3  18  223.85   24.10
  -3   3  18  240.09   13.48
   3   3 -18  227.67   13.29
  -3   3  18  266.77   13.41
  -1  -3  18  113.43    8.85
   1  -3 -18  112.18    7.71
   1  -3 -18   89.26   16.98
   1  -3 -18  115.95    8.58
  -1  -3  18  109.22    8.56
   1  -3 -18  104.26    7.91
   1   3 -18  116.45    7.70
   1   3 -18   99.76   17.98
   1   3 -18  112.70    8.13
   1   3 -18   28.82   33.93
  -1   3  18  116.73    8.86
  -1   3  18  102.47    8.56
   1  -3  18  308.77   15.36
  -1  -3 -18  351.32   27.04
  -1   3 -18  311.40   24.72
  -1   3 -18  343.05   35.00
   8  -4 -18   24.62    8.94
   8   4 -18   18.68    7.60
  -6  -4  18  102.71    9.31
  -6  -4  18   85.21    8.48
   6  -4 -18  114.62   10.43
  -6   4  18  102.49    8.87
   6   4 -18   94.58    9.46
  -6   4  18  102.46    8.66
   4  -4 -18   20.57    6.91
  -4  -4  18   24.33    6.55
  -4  -4  18   17.77    6.25
   4  -4 -18   22.63    7.03
  -4  -4  18    2.79   16.30
  -4   4  18   18.88    6.48
  -4   4  18   41.53   13.49
  -4   4  18   16.62    6.47
   4   4 -18   18.73    6.56
   0  -4 -18   51.09   15.28
   0  -4 -18   53.59    5.31
   0  -4  18   41.17    6.33
   0   4 -18   43.14   12.09
   0   4 -18   51.08    5.09
   0   4 -18   14.65   25.96
   0   4  18   50.54    6.66
  -2   4 -18   16.49   11.24
   7  -5 -18   11.02    8.50
  -7  -5  18   15.72    6.92
  -7   5  18   17.45    6.31
   7   5 -18   18.63    6.85
  -5  -5  18  136.30   10.67
   5  -5 -18  127.58   11.13
  -5  -5  18  114.48    9.86
  -5   5  18  124.35   10.13
   5   5 -18  110.38   10.37
  -5   5  18  121.75   10.08
   3  -5 -18   38.03   12.01
   3  -5 -18   44.81    7.21
  -3  -5  18    9.72   15.76
  -3  -5  18   43.12    6.30
   3  -5 -18   33.29    6.88
  -3  -5  18   42.61    6.79
  -3   5  18   37.62    6.46
   3   5 -18   30.64    6.43
  -3   5  18   38.17    7.01
  -1  -5  18  122.40    9.03
   1  -5 -18  103.56    8.37
  -1  -5  18  122.03    9.16
   1  -5 -18   92.64   16.94
   1  -5 -18  122.91    8.87
   1  -5 -18  126.21    8.55
  -1   5  18  130.39    9.37
   1   5 -18  103.82   18.20
  -1   5  18  120.17    9.30
   1   5 -18  118.15    8.11
   1   5 -18  120.62    8.54
   1  -5  18  135.58    9.72
  -1  -5 -18  171.01   22.96
  -1  -5 -18  131.10   22.66
   1   5  18  130.85    9.62
  -1   5 -18  141.92   19.12
   8  -6 -18   53.64   10.68
   8   6 -18   40.30    8.73
   6  -6 -18  119.05   11.15
  -6  -6  18  106.11    9.42
  -6  -6  18  109.77   10.42
   6   6 -18  102.25    9.67
  -6   6  18  113.99    9.16
  -6   6  18  104.49    9.30
  -4  -6  18   94.23    8.71
  -4  -6  18  106.07    9.72
   4  -6 -18  107.70    9.66
   4  -6 -18  115.33   10.30
  -4   6  18  112.73    9.23
   4   6 -18   99.08    9.04
  -4   6  18  116.99    9.95
  -2  -6  18   23.80    6.34
  -2  -6  18   18.06    5.65
   2  -6 -18   10.98   11.33
   2  -6 -18   25.98    5.56
   2  -6 -18   21.07    6.25
   2  -6 -18   21.97    6.25
   2   6 -18   28.45    4.94
   2   6 -18   28.80    6.15
  -2   6  18   24.20    6.94
  -2   6  18   21.23    6.16
   0  -6 -18   95.29   16.31
  -2  -6 -18   90.92   21.42
  -2  -6 -18   60.67   15.19
  -2   6 -18   61.72   13.31
   7  -7 -18   18.36    8.89
   7   7 -18   24.02    7.48
  -7   7  18   23.36    6.83
  -5  -7  18  137.48   10.49
   5  -7 -18  149.75   11.88
  -5  -7  18  141.20   11.25
  -5   7  18  146.38   11.12
   5   7 -18  145.91   11.03
  -5   7  18  131.27   10.60
   3  -7 -18   82.71   20.84
   3  -7 -18  110.02    9.77
  -3  -7  18  105.99    9.53
   3  -7 -18  106.02    9.35
  -3  -7  18   83.10    8.03
   3   7 -18   90.68    8.55
  -3   7  18  108.71    9.23
  -3   7  18  106.80    8.87
   1  -7 -18   42.81    6.78
   1  -7 -18   45.49   12.74
   1  -7 -18   36.46    6.23
   1  -7 -18   58.28    6.12
  -1  -7  18   44.43    6.37
  -1  -7  18   53.24    7.03
   1  -7 -18   51.46   15.65
  -1   7  18   34.62    6.32
   1   7 -18   32.78   12.64
   1   7 -18   99.43   30.66
   1   7 -18   56.72    6.30
   1   7 -18   49.13    5.71
  -1   7  18   55.18    7.43
  -1  -7 -18  165.92   24.08
  -1  -7 -18  181.95   20.44
   1  -7  18  194.86   11.26
  -1  -7 -18  175.78   30.99
  -1   7 -18  172.20   21.36
   1   7  18  176.13   11.54
   8  -8 -18   12.33    9.48
   8   8 -18    3.89    7.21
   6  -8 -18   32.17    8.48
  -6  -8  18   34.20    7.45
  -6   8  18   28.44    7.46
  -6   8  18   36.28    7.18
   6   8 -18   34.96    7.35
  -4  -8  18    4.40    6.09
   4  -8 -18    5.57    7.13
  -4  -8  18    6.91    5.96
   4  -8 -18   12.14    7.30
  -4   8  18   18.81    7.09
   4   8 -18   22.67    6.89
  -4   8  18   14.14    6.76
   2  -8 -18   15.79    5.60
  -2  -8  18   11.71    6.30
   2  -8 -18    9.82    6.47
   2  -8 -18    7.67    6.46
  -2  -8  18    8.83    5.71
   2  -8 -18    9.99   11.14
   2   8 -18    8.19    5.71
  -2   8  18   22.64    6.94
   2   8 -18   16.25    5.33
  -2   8  18   14.48    6.41
   0  -8  18   95.57    8.46
   0  -8 -18   87.37    7.59
   0  -8 -18   85.34   16.81
   0  -8 -18   77.25   15.14
   0   8  18   92.67    8.60
   0   8 -18   99.14    7.68
   0   8 -18   61.11   13.99
  -2  -8 -18  167.53   22.73
  -2  -8 -18  175.07   21.00
  -2   8 -18  193.53   30.60
  -2   8 -18  159.63   21.57
  -6  -8 -18   47.31   13.87
   7  -9 -18   38.78    9.60
  -7   9  18   47.76    7.59
   7   9 -18   54.00    8.26
   5  -9 -18   74.12    9.57
  -5  -9  18   65.71    8.28
  -5  -9  18   75.68    7.94
  -5   9  18   72.65    8.34
   5   9 -18   68.26    8.72
  -5   9  18   75.92    8.38
   3  -9 -18   65.09    8.60
  -3  -9  18   63.00    7.64
   3  -9 -18   59.69    8.56
  -3  -9  18   56.45    7.56
  -3   9  18   60.36    8.02
  -3   9  18   61.56    8.45
   3   9 -18   59.68    7.53
   1  -9 -18   91.80    8.22
   1  -9 -18   79.93   22.63
   1  -9 -18  101.39    8.76
  -1  -9  18  106.54    9.54
   1  -9 -18  105.28    8.63
  -1  -9  18   91.74    8.54
   1  -9 -18  109.12   19.70
  -1   9  18   93.32    9.11
   1   9 -18   46.95   26.74
   1   9 -18  107.34    8.60
   1   9 -18  104.57    8.83
  -1  -9 -18   14.75   15.36
   1  -9  18   33.17    7.04
  -1  -9 -18   48.82   13.92
  -1   9 -18   53.90   18.93
  -1   9 -18   41.53   13.41
   1   9  18   35.28    7.73
  -3   9 -18   89.50   19.13
  -5  -9 -18   87.78   12.64
  -6 -10  18   23.98    7.50
   6 -10 -18   12.04    7.80
  -6  10  18   27.90    7.20
   6  10 -18   17.09    7.22
  -4 -10  18   28.29    6.89
   4 -10 -18   34.44    8.02
  -4 -10  18   21.54    6.67
   4 -10 -18   18.99   10.26
  -4  10  18   22.72    7.20
   4  10 -18   13.69    6.77
  -4  10  18   23.70    7.34
   2 -10 -18  120.21   10.69
   2 -10 -18  107.08    9.67
  -2 -10  18  103.57    9.32
  -2 -10  18  114.29   10.24
   2 -10 -18  112.74   19.76
  -2  10  18   94.22    8.97
  -2  10  18  125.08   10.15
   2  10 -18  112.82    9.86
   0 -10 -18   67.62    7.20
   0 -10  18   61.06    7.71
   0 -10 -18   37.94   16.66
   0 -10 -18   64.72   14.62
   0  10 -18   53.19   20.00
   0  10 -18   59.95    6.74
   0  10  18   62.21    8.79
   0  10 -18   62.12   14.29
   0  10 -18   67.38    6.42
   2 -10  18   64.73    7.88
  -2 -10 -18   52.21   14.45
  -2 -10 -18   68.12   14.36
  -2  10 -18   56.76   14.23
  -2  10 -18   97.51   20.64
  -4 -10 -18   24.91    9.73
  -6 -10 -18   31.80   13.56
   7 -11 -18   50.65   10.26
   7  11 -18   34.48    8.09
  -7  11  18   37.69    7.57
  -5 -11  18   36.20    7.44
   5 -11 -18   39.33    8.38
  -5 -11  18   35.22    7.48
  -5  11  18   42.06    8.03
  -5  11  18   35.75    7.64
   5  11 -18   40.63    7.50
   3 -11 -18  101.88   10.11
  -3 -11  18   69.07    8.52
   3 -11 -18   77.53    9.10
  -3 -11  18   72.92    8.19
  -3  11  18   81.12    9.32
  -3  11  18   94.18    9.19
   3  11 -18   84.54    8.55
   1 -11 -18  258.46   13.85
  -1 -11  18  236.40   14.09
   1 -11 -18  234.13   13.53
   1 -11 -18  250.59   25.24
   1  11 -18  253.52   13.65
   1  11 -18  217.55   13.23
  -1  11  18  232.53   14.52
   1 -11  18    5.20    6.72
  -1 -11 -18   22.85   14.41
  -1 -11 -18   18.56   12.73
  -1  11 -18   -0.69   11.92
   1  11  18   10.20    7.93
  -1  11 -18   33.11   23.88
  -3 -11 -18   38.50   13.44
  -3  11 -18   12.66   12.49
  -3  11 -18   57.47   20.25
  -5 -11 -18   18.28   11.68
   6 -12 -18   28.96    8.77
  -6 -12  18   38.53    8.18
   6  12 -18   33.62    7.91
  -6  12  18   37.46    8.05
  -4 -12  18   94.04    9.47
  -4 -12  18   95.66    9.31
   4 -12 -18   89.93   10.18
   4  12 -18  100.05    9.49
  -4  12  18  109.85    9.68
  -4  12  18  101.24   10.00
   2 -12 -18   10.72    7.44
  -2 -12  18   14.27    6.34
   2 -12 -18    7.83    7.13
  -2 -12  18   17.93    6.87
  -2  12  18    9.22    7.74
   2  12 -18    9.26    6.48
   0 -12 -18   13.22    6.40
   0 -12  18   11.70    6.84
   0 -12 -18    9.76   12.65
   0  12  18    7.13    7.68
   0  12 -18   12.65   20.54
   0  12 -18    2.68    5.49
   0  12 -18    5.72    4.90
  -2 -12 -18   12.67   13.25
   2 -12  18   25.49    7.65
   2  12  18   39.68    8.91
  -2  12 -18   14.49   12.95
  -2  12 -18    0.08   21.38
  -4 -12 -18   -0.80    8.95
  -4  12 -18    7.17   13.10
  -6 -12 -18    5.09   12.06
   7 -13 -18   25.16    9.22
  -7 -13  18   15.95    8.76
  -7  13  18   22.47    7.49
   7  13 -18    4.20    7.36
  -5 -13  18    7.28    7.35
   5 -13 -18   27.72    9.78
  -5 -13  18    9.34    6.96
  -5  13  18   15.36    7.78
  -5  13  18   19.90    7.88
   5  13 -18   24.32    7.47
   3 -13 -18   22.33    8.20
  -3 -13  18   26.25    7.06
   3 -13 -18   25.62    8.69
  -3 -13  18   11.80    6.44
  -3  13  18    4.45    6.99
   3  13 -18   15.37    6.89
  -3  13  18   12.93    7.80
   1 -13 -18   65.83    8.28
  -1 -13  18   45.69    7.92
   1 -13 -18   46.99   14.34
   1 -13 -18   73.58    8.37
   1  13 -18   -1.20   23.05
  -1  13  18   66.08    9.80
   1  13 -18   58.38    7.52
   1 -13  18   74.50    8.77
  -1 -13 -18   54.09   16.09
   1  13  18   51.78    9.31
  -3 -13 -18   11.68    8.85
  -3 -13 -18    1.69   13.96
   3 -13  18    9.93    7.52
  -3 -13 -18   46.28   14.20
  -3  13 -18  -14.27   20.19
  -3  13 -18    8.88   13.45
  -5 -13 -18   48.08   14.66
  -6 -14  18   12.91    8.19
   6 -14 -18   13.93    8.86
  -6  14  18   15.67    7.87
   6  14 -18   15.53    7.61
  -4 -14  18   29.27    7.90
  -4 -14  18   37.10    8.59
   4 -14 -18   40.35    9.97
  -4  14  18   37.53    8.64
  -4  14  18   40.28    8.76
   4  14 -18   26.47    7.77
   2 -14 -18   27.35    9.02
  -2 -14  18   24.44    7.48
   2 -14 -18   23.36    8.07
  -2  14  18   30.91    8.73
   2  14 -18   23.16    6.96
   0 -14 -18  109.58   18.89
   0 -14  18  119.21   10.70
   0 -14 -18   88.34    9.01
   0 -14 -18  130.37   10.34
   0  14 -18  110.11    9.92
   0  14  18  115.82   11.37
   0  14 -18  115.89    9.66
  -2 -14 -18    6.12   14.10
   2 -14  18    6.60    7.06
  -2  14 -18    7.26   21.80
   2  14  18   17.16    9.06
  -4 -14 -18    0.50   14.68
  -4 -14 -18   -0.53    8.94
  -4 -14 -18   18.92   15.08
  -4  14 -18   13.28   22.56
   5 -15 -18   41.51    9.51
  -5 -15  18   37.32    8.14
  -5 -15  18   48.18    8.61
   5  15 -18   49.38    8.65
  -5  15  18   51.64    8.98
  -5  15  18   46.93    9.04
  -3 -15  18   20.09    7.67
   3 -15 -18   31.16    9.51
   3 -15 -18   19.39    8.35
  -3 -15  18   11.31    7.01
  -3  15  18   31.23    8.59
   3  15 -18    9.72    7.18
   1 -15 -18  139.05   11.70
  -1 -15  18  111.15   10.61
   1 -15 -18  111.91   10.18
  -1  15  18  115.59   12.10
   1  15 -18  113.27   10.42
   1 -15  18   54.71    9.06
  -1 -15 -18   50.76   16.35
  -1  15 -18    5.50   24.22
   1  15  18   55.43   10.48
   3 -15  18   82.03    9.84
  -3 -15 -18   60.40   11.09
  -3 -15 -18   62.60   18.68
  -3  15 -18   11.77   23.67
  -5 -15 -18   24.99   11.67
  -6 -16  18    9.57    9.95
   6 -16 -18   -2.62    9.04
  -6  16  18    8.13    8.04
   6  16 -18   -4.48    7.60
   4 -16 -18   42.82    9.73
  -4 -16  18   19.37    8.17
  -4 -16  18   29.54    8.50
  -4  16  18   33.83    8.81
  -4  16  18   35.21    9.06
   4  16 -18   30.36    7.97
   2 -16 -18   34.75    9.65
  -2 -16  18   31.46    8.07
   2 -16 -18   35.34    9.23
  -2  16  18   44.16    9.99
   2  16 -18   26.57    7.49
   0 -16 -18    0.20   14.44
   0 -16 -18   -6.91    7.45
   0 -16  18   -4.19    7.25
   0  16  18   13.05   10.52
   0  16 -18   -4.65    5.48
  -2 -16 -18   17.41   16.20
   2 -16  18   28.24    8.36
  -2  16 -18  -19.42   23.39
   2  16  18   43.15   11.10
   4 -16  18    8.96    7.55
  -4 -16 -18   14.84   17.41
  -4  16 -18  -15.38   22.25
  -5 -17  18    5.20    8.45
   5 -17 -18   -3.51    9.15
   5  17 -18    8.58    7.80
  -5  17  18    2.49    8.19
  -5  17  18    1.38    8.06
  -3 -17  18   43.95    8.86
   3 -17 -18   51.08   11.40
   3 -17 -18   56.03    9.83
   3  17 -18   35.09    8.01
  -3  17  18   48.24   10.04
   1 -17 -18   73.39   11.02
   1 -17 -18   68.60    9.70
  -1 -17  18   45.71    9.38
  -1  17  18   80.37   11.81
   1  17 -18   68.08    8.03
   1 -17  18   67.88    9.66
  -1 -17 -18   76.72   19.39
   1  17  18   83.11   11.97
  -3 -17 -18   43.60   11.86
  -3 -17 -18   18.43   16.64
   3 -17  18   33.19    8.45
  -3  17 -18   63.58   26.97
   3  17  18   42.88   10.61
  -4 -18  18   20.68    9.24
  -4 -18  18   18.03    7.87
   4 -18 -18    2.09    8.82
   4  18 -18   19.89    8.21
  -4  18  18   11.83    9.37
   2 -18 -18    6.53    9.77
   2 -18 -18    0.59    7.79
  -2 -18  18    6.28    7.35
  -2  18  18    3.34   10.06
   2  18 -18   -1.45    6.87
   0 -18  18   12.77    7.98
   0 -18 -18   14.32    8.61
   0  18  18    5.15   10.30
   0  18 -18   19.03    8.94
   2 -18  18   24.63    7.87
  -2 -18 -18   25.39   17.31
  -2  18 -18  -41.68   27.53
   2  18  18   27.17   11.92
  -4 -18 -18   -1.39   18.15
   4 -18  18    4.83    7.61
  -4 -18 -18    4.72   10.40
  -5 -19  18   19.40   10.92
   5 -19 -18   12.88   10.10
  -5  19  18   13.99    9.25
   5  19 -18   13.24    8.38
  -3 -19  18   -2.95    7.66
   3 -19 -18   -0.25    8.47
   3  19 -18    3.73    7.52
  -3  19  18    5.48   10.21
   1 -19 -18   38.72    9.60
   1 -19 -18   41.48   10.03
  -1 -19  18   45.45    9.36
   1  19 -18   41.52    7.90
  -1  19  18   38.66   12.83
   1 -19  18   12.50    7.56
   1  19  18   -4.16   12.32
   3 -19  18   19.59    8.43
  -3 -19 -18   34.55   12.83
  -3 -19 -18   23.64   18.68
   3  19  18   27.75   11.44
  -4 -20  18    6.43    8.64
  -4 -20  18   -0.81    9.69
  -4  20  18   -8.93    9.41
   4  20 -18   -3.65    8.11
  -2 -20  18   66.31   10.02
   2 -20 -18   74.99   11.96
   2 -20 -18   79.68   10.59
  -2  20  18   80.40   13.55
   2  20 -18   63.91    9.14
   0 -20 -18   40.37   10.66
   0 -20  18   34.30    9.44
   0  20  18   24.17   12.09
   2 -20  18   25.97    8.84
  -3 -21  18   47.77   10.80
   3 -21 -18   79.95   10.81
  -3  21  18   87.23   14.04
   3  21 -18   52.50    9.32
  -1 -21  18    4.21    7.97
   1 -21 -18   -6.71    9.86
  -1  21  18    7.69   11.25
   1  21 -18    6.40    6.94
   1 -21  18    0.05    7.92
   1  21  18   23.91   12.98
   3 -21  18   36.54    9.81
  -3 -21 -18   39.75   12.13
   2 -22 -18    2.53    8.40
   2 -22 -18    1.69   10.55
  -2 -22  18   -4.99    8.31
  -2  22  18  -10.05   10.67
   2  22 -18    8.16    7.59
   0 -22 -18   26.80   11.90
   0 -22  18    0.67    8.58
   2 -22  18    5.33    9.41
  -1 -23  18    0.70    8.54
  -1  23  18    6.94   12.80
   1 -23  18    0.13    8.90
  -8   0  19   -1.91    8.86
   8   0 -19   13.49    7.53
  -6   0  19   -2.35    6.12
   6   0 -19    0.97    6.45
  -6   0  19   -0.13    6.19
  -4   0  19   -0.38    6.30
   4   0 -19    7.23    6.38
   4   0 -19    6.27    6.99
  -4   0  19    0.46    5.88
   0   0 -19  105.70   39.26
  -7  -1  19   33.48    7.15
   7  -1 -19   38.30    8.63
   7   1 -19   30.23    8.16
  -7   1  19   41.93    7.25
   5  -1 -19   15.92    6.87
  -5  -1  19   10.42    6.15
  -5  -1  19    5.99    5.84
   5   1 -19    3.72    6.45
  -5   1  19    8.46    6.27
  -5   1  19   19.93    6.68
   1  -1 -19   42.22    5.16
   1  -1 -19   36.56    5.94
  -1  -1  19   37.96    5.98
  -1  -1  19   39.29    6.55
  -1   1  19   51.01    6.86
  -1   1  19   35.79    5.87
   1   1 -19   47.13    5.27
   1   1 -19   37.92    5.85
   1   1 -19  103.17   44.99
   1   1 -19    4.76   13.69
  -1  -1 -19  136.24   23.11
   1  -1  19  147.65    9.84
  -1  -1 -19  166.97   38.06
   1   1  19  136.52    9.72
  -1   1 -19  156.09   25.04
   8  -2 -19   39.00    9.19
  -8   2  19   54.95   10.88
   8   2 -19   37.61    8.64
   6  -2 -19   31.47    7.67
  -6  -2  19   28.97    6.81
  -6  -2  19   29.22    6.76
  -6   2  19   28.81    6.65
  -6   2  19   22.20    6.63
   6   2 -19   26.06    7.11
   4  -2 -19  167.11   11.48
   4  -2 -19  178.88   12.05
  -4  -2  19  158.01   11.09
  -4  -2  19  156.34   11.09
   4   2 -19  160.25   12.03
  -4   2  19  157.86   11.26
  -4   2  19  159.98   11.16
   4   2 -19  165.23   11.51
   2  -2 -19   24.68    5.18
   2  -2 -19   33.49    6.31
   2  -2 -19   34.45    6.56
  -2  -2  19   40.68    6.76
  -2  -2  19   36.58    5.99
  -2   2  19   32.79    6.02
   2   2 -19   13.35   16.03
   2   2 -19  -49.36   51.22
  -2   2  19   33.47    6.66
   2   2 -19   29.35    5.19
   2   2 -19   25.89    5.93
   0  -2 -19  144.07   42.55
   0  -2  19   44.07    6.64
   0   2 -19   35.36   14.17
   0   2  19   34.95    6.48
  -2   2 -19   22.95   14.42
   7  -3 -19   15.93    8.20
  -7  -3  19   16.63    6.75
   7   3 -19   14.02    7.16
  -7   3  19   14.66    6.59
   5  -3 -19  123.64   11.02
  -5  -3  19  139.94   10.81
  -5  -3  19  117.59   10.11
   5   3 -19  134.47   10.84
  -5   3  19  147.00   10.68
  -5   3  19  127.17   10.61
  -1  -3  19  281.06   15.04
   1  -3 -19  285.77   14.38
   1  -3 -19  264.58   29.06
   1  -3 -19  312.11   14.22
  -1  -3  19  318.97   14.95
   1  -3 -19  320.66   14.76
  -1   3  19  293.27   15.03
   1   3 -19  305.89   24.54
   1   3 -19  328.80   14.30
  -1   3  19  288.28   15.15
   1   3 -19  296.77   14.46
   1  -3  19  223.16   12.52
  -1  -3 -19  258.88   26.19
  -1  -3 -19  311.41   45.27
   1   3  19  226.37   12.64
  -1   3 -19  216.95   22.49
   8  -4 -19    4.87    8.72
   8   4 -19    1.96    7.45
  -6  -4  19   47.48    7.04
  -6  -4  19   39.17    7.24
   6  -4 -19   36.58    8.32
   6   4 -19   38.86    7.64
  -6   4  19   28.08    6.86
  -6   4  19   37.47    7.16
   4  -4 -19   69.63    8.78
  -4  -4  19   68.58    7.63
  -4  -4  19   59.28    7.60
   4  -4 -19   60.49    8.16
   4   4 -19   47.85    7.62
  -4   4  19   71.21    8.12
  -4   4  19   61.60    7.57
   2  -4 -19  310.25   15.21
  -2  -4  19  296.40   15.26
  -2  -4  19  301.46   15.52
   2  -4 -19  315.81   15.44
   2  -4 -19  310.78   14.82
   2   4 -19  314.97   14.85
  -2   4  19  306.05   15.42
  -2   4  19  276.59   15.44
   2   4 -19  315.07   15.24
   0   4 -19   63.54   29.77
  -2   4 -19  318.71   24.60
  -7  -5  19    2.35    6.73
   7  -5 -19    8.62    8.56
   7   5 -19    4.04    7.04
  -7   5  19    1.67    6.23
  -5  -5  19   16.04    6.39
  -5  -5  19   27.86    6.47
   5  -5 -19   22.01    7.64
  -5   5  19   -2.76    6.41
   5   5 -19   20.33    6.60
  -5   5  19   19.84    6.55
   3  -5 -19    8.18    6.83
   3  -5 -19   14.37    6.65
  -3  -5  19    3.60    5.81
   3  -5 -19   16.74   13.30
  -3  -5  19    8.29    6.43
  -3   5  19    7.79    6.19
  -3   5  19   14.64    6.81
   3   5 -19   14.03    6.25
   1  -5 -19  129.32    8.88
   1  -5 -19   99.30   18.86
  -1  -5  19  118.11    9.69
  -1  -5  19  132.84    9.58
   1  -5 -19  138.87    9.05
   1  -5 -19  128.79    9.58
  -1   5  19  113.09    9.84
   1   5 -19  141.69    9.04
   1   5 -19  124.10   19.41
  -1   5  19  132.18   10.05
   1   5 -19  132.19    8.74
   1   5 -19   40.27   34.21
  -1  -5 -19  215.42   24.68
   1  -5  19  209.66   12.35
   1   5  19  214.52   12.33
  -1   5 -19  225.93   22.18
   8  -6 -19   34.60   10.26
   8   6 -19   28.66    8.25
   6  -6 -19   27.31    8.70
  -6  -6  19   16.32    6.81
  -6  -6  19   23.44    6.95
  -6   6  19   16.41    6.79
  -6   6  19   19.24    6.80
   6   6 -19   18.81    7.10
   4  -6 -19  211.43   13.66
   4  -6 -19  217.25   14.21
  -4  -6  19  209.77   12.92
  -4  -6  19  195.25   12.91
   4   6 -19  214.99   13.04
  -4   6  19  207.98   13.02
  -4   6  19  213.51   12.95
   2  -6 -19   65.85    7.97
   2  -6 -19   58.00   13.61
  -2  -6  19   58.49    7.61
   2  -6 -19   64.67    6.72
   2  -6 -19   62.89    7.46
  -2  -6  19   63.29    6.98
  -2   6  19   70.20    7.66
   2   6 -19   70.81    6.73
   2   6 -19    4.40   34.97
  -2   6  19   66.24    8.09
   2   6 -19   66.98    7.26
   0  -6  19  317.01   15.62
   0  -6 -19  315.32   28.97
   0   6 -19  322.08   14.64
   0   6 -19  315.11   25.90
   0   6  19  306.39   15.82
  -2  -6 -19  194.75   23.41
  -2   6 -19  166.28   21.58
   7  -7 -19   13.82    9.09
  -7  -7  19   24.78    7.33
  -7   7  19   20.53    7.06
   7   7 -19   18.61    7.40
  -5  -7  19  154.40   11.54
   5  -7 -19  184.84   12.95
  -5  -7  19  176.07   12.22
  -5   7  19  168.26   11.73
   5   7 -19  149.02   11.79
  -5   7  19  185.63   12.20
  -3  -7  19   48.89    7.46
  -3  -7  19   43.36    6.96
   3  -7 -19   49.86    8.30
   3  -7 -19   50.02    8.24
   3   7 -19   49.75    7.18
  -3   7  19   57.56    7.72
  -3   7  19   62.69    8.38
   1  -7 -19  173.39   21.73
   1  -7 -19  160.44   10.64
   1  -7 -19  174.77   11.41
  -1  -7  19  191.02   12.56
   1  -7 -19  185.60   27.13
   1  -7 -19  172.98   10.82
  -1  -7  19  175.13   11.39
   1   7 -19  167.05   10.82
   1   7 -19  160.16   23.45
  -1   7  19  164.20   11.74
   1   7 -19  206.06   10.76
  -1  -7 -19  238.52   22.62
  -1  -7 -19  223.00   25.56
   1  -7  19  220.81   12.64
  -1   7 -19  165.04   29.14
   1   7  19  215.59   12.96
  -1   7 -19  217.69   23.50
   8  -8 -19    7.54    9.67
   8   8 -19    2.19    7.32
  -6  -8  19   45.48    7.85
   6  -8 -19   43.13    9.65
  -6   8  19   45.90    7.50
  -6   8  19   55.44    8.30
   6   8 -19   41.04    7.60
   4  -8 -19   43.95    8.94
   4  -8 -19   40.41    8.54
  -4  -8  19   49.02    7.45
  -4  -8  19   44.70    7.29
   4   8 -19   34.10    7.49
  -4   8  19   63.27    7.92
  -4   8  19   45.60    8.08
  -2  -8  19   30.42    6.40
   2  -8 -19   22.65    7.20
  -2  -8  19   22.29    6.77
   2  -8 -19   33.91    7.19
   2  -8 -19    2.86   12.03
   2   8 -19   30.77    6.47
  -2   8  19   14.75    6.82
  -2   8  19   28.52    7.49
   0  -8 -19   53.90    6.81
   0  -8 -19   63.00   14.52
   0  -8  19   60.02    7.44
   0  -8 -19   79.13   16.02
   0   8  19   72.06    8.38
   0   8 -19   60.44    6.01
   0   8 -19   32.40   13.23
   2  -8  19  122.60    9.62
  -2  -8 -19  114.64   19.48
  -2  -8 -19  104.12   18.14
  -2   8 -19  117.35   20.53
  -2   8 -19  104.53   22.45
   7  -9 -19    7.47    8.58
  -7  -9  19   13.06    7.55
   7   9 -19   15.61    6.89
  -7   9  19   17.70    6.95
  -5  -9  19   17.23    6.60
  -5  -9  19   17.93    6.91
   5  -9 -19   18.02    8.13
   5   9 -19   26.03    7.38
  -5   9  19   21.81    7.18
  -5   9  19   35.83    7.40
  -3  -9  19  225.94   13.64
  -3  -9  19  206.46   13.34
   3  -9 -19  261.47   14.62
   3  -9 -19  234.48   14.03
  -3   9  19  209.60   13.59
   3   9 -19  205.58   13.19
  -3   9  19  235.17   13.88
   1  -9 -19   38.99    6.88
   1  -9 -19   34.38   13.64
  -1  -9  19   46.01    7.28
   1  -9 -19   50.72    7.40
   1  -9 -19   39.81    5.84
  -1   9  19   41.20    8.01
   1   9 -19   34.62    6.38
   1   9 -19   46.46    5.99
   1   9 -19  -10.79   27.05
  -1  -9 -19   44.31   14.19
   1  -9  19   43.93    7.21
  -1  -9 -19   24.25   16.04
   1   9  19   57.79    8.66
  -1   9 -19   29.88   13.59
  -3   9 -19   21.17   17.90
  -3   9 -19    7.30   12.47
  -6 -10  19   32.54    7.83
   6 -10 -19   31.18    8.97
  -6  10  19   29.50    7.61
   6  10 -19   19.10    7.52
  -4 -10  19   89.11    9.01
   4 -10 -19   95.56   10.09
  -4 -10  19   94.69    9.11
   4  10 -19   91.98    9.21
  -4  10  19  112.66   10.18
  -4  10  19  112.25    9.83
  -2 -10  19   28.32    6.58
   2 -10 -19   13.75    7.14
   2 -10 -19   22.75    7.40
  -2 -10  19   30.70    7.22
   2 -10 -19   25.55   12.86
  -2  10  19   36.96    8.13
   2  10 -19   32.35    6.85
   0 -10 -19   23.95    6.61
   0 -10 -19   11.16   17.87
   0 -10 -19   24.38   13.12
   0 -10  19   37.72    7.05
   0  10 -19    8.27   19.51
   0  10  19   21.90    7.84
   0  10 -19   25.81    5.28
   2 -10  19    4.16    6.38
  -2 -10 -19   -5.44   14.42
  -2 -10 -19    2.56   12.19
  -2  10 -19   11.01   20.57
  -2  10 -19    7.45   12.34
  -6 -10 -19    8.78   12.92
   7 -11 -19   38.95   10.83
  -7 -11  19    4.17    8.09
  -7  11  19   11.75    7.19
   7  11 -19   18.45    7.74
   5 -11 -19   97.36   10.91
  -5 -11  19   80.97    8.92
  -5 -11  19   97.24    9.94
  -5  11  19  106.13   10.07
  -5  11  19  111.88    9.94
   5  11 -19   91.01    9.51
   3 -11 -19   40.86    8.35
   3 -11 -19   67.52    9.46
  -3 -11  19   43.09    7.56
  -3 -11  19   42.95    7.36
  -3  11  19   46.15    7.95
  -3  11  19   42.40    8.43
   3  11 -19   37.98    7.35
   1 -11 -19   22.72    6.77
  -1 -11  19   11.03    6.76
   1 -11 -19   13.78    6.85
   1 -11 -19   19.60   12.68
  -1  11  19   25.49    8.04
   1  11 -19   12.50    6.18
   1  11 -19  -41.58   27.07
  -1 -11 -19   96.65   19.75
  -1 -11 -19  148.92   22.44
   1 -11  19  132.30   10.75
  -1  11 -19  114.57   21.27
  -1  11 -19  118.96   24.06
   1  11  19  137.60   12.00
  -3 -11 -19   57.93   15.18
  -3  11 -19   19.97   19.53
  -3  11 -19   53.00   14.50
  -5 -11 -19    1.80   10.53
  -6 -12  19   22.02    7.80
   6 -12 -19    5.61    8.47
  -6  12  19   13.03    7.53
   6  12 -19   15.98    7.21
   4 -12 -19   28.77    8.98
  -4 -12  19   25.10    6.99
  -4 -12  19   20.14    7.21
  -4  12  19   29.97    7.88
   4  12 -19   14.91    7.07
  -4  12  19   12.01    7.83
  -2 -12  19    6.77    6.99
   2 -12 -19   33.36    8.06
   2 -12 -19   25.77    7.69
   2  12 -19   12.50    6.33
  -2  12  19   17.82    8.07
   0 -12 -19   -0.95    6.38
   0 -12 -19   -3.44   11.95
   0 -12  19   -4.57    6.68
   0  12  19    4.06    8.13
   0  12 -19   33.92   22.18
   0  12 -19    0.33    5.31
   0  12 -19    3.84    5.05
  -2 -12 -19    4.84   13.05
   2 -12  19    0.17    7.19
  -2 -12 -19   22.36   13.97
  -2  12 -19    2.01   14.55
   2  12  19   -6.66    8.07
  -2  12 -19  -18.03   20.36
  -4  12 -19    2.89   20.83
  -4  12 -19   15.74   13.75
  -7 -13  19   18.72    9.21
   7 -13 -19   14.38   10.05
   7  13 -19   33.42    8.33
  -7  13  19   15.37    7.70
   5 -13 -19   26.89    8.47
  -5 -13  19    3.96    7.49
  -5 -13  19   15.68    6.95
  -5  13  19   27.34    8.06
   5  13 -19   21.02    7.51
  -5  13  19   17.81    7.96
   3 -13 -19   13.15    8.35
  -3 -13  19   20.33    7.21
   3 -13 -19   35.35    9.19
  -3 -13  19   23.11    6.98
  -3  13  19   10.46    8.45
   3  13 -19   24.76    7.20
   1 -13 -19   51.08   15.31
   1 -13 -19   63.78    8.26
  -1 -13  19   60.69    8.44
   1 -13 -19   70.16    8.69
   1  13 -19   52.78    7.58
  -1  13  19   68.76   10.48
   1 -13  19   40.28    8.04
  -1 -13 -19   41.18   15.70
  -1  13 -19   -7.52   24.70
   1  13  19   24.35    9.69
   3 -13  19  117.64   10.99
  -3 -13 -19  103.38   18.58
  -5 -13 -19   34.82   11.20
   6 -14 -19   28.62    9.60
  -6 -14  19   28.71    8.96
  -6  14  19   48.08    8.80
   6  14 -19   31.31    8.47
   4 -14 -19   45.19    9.64
  -4 -14  19   34.16    8.04
  -4 -14  19   57.57    8.81
  -4  14  19   75.00    9.92
  -4  14  19   68.11    9.19
   4  14 -19   55.32    8.66
   2 -14 -19   77.47    9.78
   2 -14 -19   34.97    8.27
  -2 -14  19   37.75    8.15
   2  14 -19   47.33    7.75
  -2  14  19   60.63   10.17
   0 -14  19   -2.13    7.01
   0 -14 -19    7.79    7.03
   0 -14 -19   -1.86   13.49
   0  14  19    8.15    9.51
   0  14 -19    7.13    5.54
  -2 -14 -19  175.42   25.97
   2 -14  19  161.56   13.21
   2  14  19  134.64   14.88
  -4 -14 -19   -4.10    9.48
  -4 -14 -19    1.73   14.97
  -4  14 -19   13.37   24.10
  -5 -15  19    8.78    7.62
  -5 -15  19   -1.47    6.96
   5 -15 -19   17.93    9.47
  -5  15  19  -11.03    7.79
   5  15 -19    6.68    7.50
  -5  15  19   -0.66    8.03
   3 -15 -19   40.57    9.09
  -3 -15  19   22.11    7.77
   3 -15 -19   29.34    9.87
   3  15 -19   24.87    7.56
  -3  15  19   24.86    9.17
   1 -15 -19   73.29    9.83
   1 -15 -19   55.20    8.31
  -1 -15  19   59.25    9.29
  -1  15  19   57.42   10.73
   1  15 -19   52.76    7.68
   1 -15  19   10.22    7.48
  -1 -15 -19   11.69   16.07
   1  15  19    2.60    8.85
  -1  15 -19  -44.82   24.47
   3 -15  19   66.44    9.65
  -3 -15 -19   57.60   18.43
  -3  15 -19    5.00   23.16
  -5 -15 -19   -0.69   10.76
   6 -16 -19    9.24   10.17
  -6 -16  19   19.45    9.47
  -6  16  19   18.24    8.50
   6  16 -19    7.53    8.15
  -4 -16  19    7.95    7.74
   4 -16 -19    8.33    8.71
  -4 -16  19    5.95    7.28
  -4  16  19    1.13    8.41
   4  16 -19    3.04    7.50
  -4  16  19   -1.51    8.61
  -2 -16  19   37.25    8.62
   2 -16 -19   57.40    9.00
   2 -16 -19   68.44   10.41
  -2  16  19   59.81   11.08
   2  16 -19   52.58    8.25
   0 -16 -19   91.16    9.99
   0 -16  19   79.94   10.14
   0  16  19   90.35   11.80
   0  16 -19   55.97    9.14
   2 -16  19   -2.68    7.61
  -2 -16 -19    1.16   15.73
   2  16  19    6.73   10.57
   4 -16  19   32.84    8.45
  -4 -16 -19   29.37   10.63
  -4 -16 -19   24.30   17.55
  -4  16 -19  -22.13   24.35
  -5 -17  19   14.96    8.61
  -5  17  19   15.69    8.64
   5  17 -19   13.87    7.93
  -5  17  19    2.76    8.65
   3 -17 -19   14.80    8.59
  -3 -17  19   24.06    8.03
   3 -17 -19   22.82   10.34
  -3  17  19   37.77   10.33
   3  17 -19   13.33    7.54
   1 -17 -19   90.25   11.09
  -1 -17  19   76.85    9.73
   1 -17 -19   88.06   11.71
  -1  17  19   79.02   12.59
   1  17 -19   76.41    8.62
  -1 -17 -19   27.35   17.57
   1 -17  19   35.87    8.62
   1  17  19   39.71   12.14
  -3 -17 -19   15.40   17.61
   3 -17  19   32.88    8.70
   3  17  19   36.51   11.09
  -3  17 -19  -16.80   24.38
  -4 -18  19   53.57   10.28
  -4 -18  19   68.94   10.15
   4 -18 -19   80.84   12.80
  -4  18  19   91.58   11.63
   4  18 -19   76.11   10.11
   2 -18 -19    1.52    9.65
  -2 -18  19    9.97    7.91
   2 -18 -19  -10.37    7.69
  -2  18  19    7.88   10.82
   2  18 -19    0.85    6.98
   0 -18  19   52.14    9.13
   0 -18 -19   54.98   10.41
   0  18  19   56.52   12.21
   2 -18  19   12.12    8.00
  -2 -18 -19    6.71   16.22
   2  18  19    0.33   12.46
   4 -18  19    8.44    8.78
  -4 -18 -19    3.26   18.11
  -4 -18 -19   -1.79   10.01
  -5 -19  19   -7.69    9.36
   5 -19 -19   -5.61    9.67
  -5  19  19    2.68    8.87
   5  19 -19    2.58    8.32
  -5  19  19    2.79   11.16
  -3 -19  19   48.58    9.24
   3 -19 -19   54.12   10.04
   3  19 -19   42.52    8.92
  -3  19  19   48.63   11.50
  -1 -19  19   -4.71    7.37
   1 -19 -19   -4.46    9.62
   1  19 -19   -0.99    6.62
  -1  19  19   10.81   11.33
   1 -19  19   24.87    8.37
   1  19  19   34.36   11.55
   3 -19  19   12.49    8.30
  -3 -19 -19   12.79   19.15
   4 -20 -19    8.20    9.79
  -4 -20  19   10.86    8.00
  -4  20  19   -5.12    9.84
   4  20 -19    4.85    8.33
   2 -20 -19   17.40    8.38
   2 -20 -19   16.25   10.67
  -2 -20  19   12.92    8.57
  -2  20  19   26.25   11.81
   2  20 -19   19.41    7.38
   0 -20 -19    9.73    9.74
   0 -20  19    1.19    7.58
   2 -20  19   -1.89    7.93
  -3 -21  19   32.23    9.19
   3  21 -19   41.26    9.00
  -3  21  19   47.47   12.46
  -1 -21  19    3.41    7.94
   1 -21 -19    4.01   12.17
  -1  21  19    6.43   12.31
   1  21 -19    7.85    8.24
   1 -21  19   20.98    8.56
   1  21  19  -32.08   10.68
   2 -22 -19    6.20    9.89
  -2 -22  19  -13.85    8.48
   2 -22 -19    4.79   11.34
   2  22 -19   10.26    7.76
  -2  22  19    1.66   13.37
   0 -22  19   26.41    9.12
   0 -22 -19   37.76   11.41
   0  22  19   26.90   13.13
  -1 -23  19   13.61    9.32
  -1  23  19   20.51   15.04
   8   0 -20    9.32    7.66
  -6   0  20   32.27    7.05
   6   0 -20   27.39    7.47
  -6   0  20   29.57    6.89
  -4   0  20   54.19    7.77
   4   0 -20   48.09    7.70
   4   0 -20   51.03    8.41
  -4   0  20   44.44    7.12
   0   0 -20   16.59   17.29
   0   0  20   33.26    6.65
   0   0 -20  -28.82   40.54
  -2   0 -20  368.56   29.23
  -2   0 -20  395.35   39.55
  -7  -1  20   30.78    7.13
   7  -1 -20   32.27    8.36
  -7   1  20   34.93    7.40
   7   1 -20   41.98    8.24
  -5  -1  20   16.02    6.45
   5  -1 -20   11.19    6.73
  -5  -1  20   17.38    6.25
  -5   1  20    9.79    6.72
  -5   1  20   15.94    6.42
   5   1 -20    9.08    6.64
   1  -1 -20  142.13    9.00
   1  -1 -20  131.06    9.11
   1  -1 -20  211.27   29.35
  -1  -1  20  155.09   10.34
  -1  -1  20  137.44   10.06
   1   1 -20  146.05    8.97
   1   1 -20  134.44    9.23
  -1   1  20  128.72   10.18
  -1   1  20  128.59   10.17
   1   1 -20  102.80   17.84
  -1  -1 -20   70.94   35.02
  -1  -1 -20   92.10   17.75
   1  -1  20  125.77    9.14
  -1   1 -20   65.08   27.34
  -1   1 -20   78.74   17.68
   1   1  20  109.49    8.88
   8  -2 -20   19.59    8.46
  -8   2  20    6.60    9.05
   8   2 -20   11.86    7.87
  -6  -2  20    4.06    6.19
  -6  -2  20    6.33    6.38
   6  -2 -20    3.20    7.09
   6   2 -20    8.29    7.23
  -6   2  20    4.80    6.14
  -6   2  20    4.69    6.40
   4  -2 -20  241.56   14.34
   4  -2 -20  270.91   15.13
  -4  -2  20  260.74   14.30
  -4  -2  20  268.50   14.31
  -4   2  20  248.76   14.14
   4   2 -20  242.75   14.37
  -4   2  20  234.48   14.19
   4   2 -20  256.45   15.02
  -2  -2  20  211.20   12.73
  -2  -2  20  211.16   12.47
   2  -2 -20  217.47   12.61
   2  -2 -20  213.97   12.22
   2  -2 -20  214.46   11.84
   2   2 -20  223.79   12.15
  -2   2  20  214.89   12.83
   2   2 -20  230.07   11.87
  -2   2  20  210.31   12.63
   0  -2  20   39.97    6.76
   0  -2 -20   21.53   16.56
   0   2 -20   24.60   14.53
   0   2  20   46.99    6.95
   0   2 -20  -11.48   32.41
  -2   2 -20   38.60   21.06
   7  -3 -20   73.50   10.09
  -7  -3  20   53.87    7.97
  -7   3  20   69.58    8.23
   7   3 -20   61.30    8.99
  -5  -3  20   29.54    6.94
  -5  -3  20   38.72    7.17
   5  -3 -20   36.74    7.88
  -5   3  20   35.19    7.05
  -5   3  20   39.00    7.55
   5   3 -20   30.40    7.30
  -3  -3  20  167.16   11.04
   3  -3 -20  144.93   11.03
  -3  -3  20  150.38   11.05
   3  -3 -20  155.06   11.46
  -3   3  20  148.99   11.12
  -3   3  20  165.85   11.28
   3   3 -20  145.75   10.85
  -1  -3  20  211.30   13.54
   1  -3 -20  223.28   11.91
   1  -3 -20  245.40   11.81
  -1  -3  20  197.76   12.57
   1  -3 -20  197.31   29.30
   1  -3 -20  214.35   12.21
  -1   3  20  221.85   12.85
   1   3 -20  210.89   11.87
  -1   3  20  213.81   15.29
   1   3 -20  225.36   22.79
   1   3 -20  226.30   11.60
  -1  -3 -20   18.02   15.14
   1  -3  20   29.45    6.50
  -1   3 -20  -22.67   23.11
  -1   3 -20   14.19   12.62
   1   3  20   28.34    6.73
   8  -4 -20    2.12    8.53
   8   4 -20    0.90    6.95
  -6  -4  20   53.49    7.77
  -6  -4  20   49.68    7.41
   6  -4 -20   53.70    8.93
   6   4 -20   57.03    8.15
  -6   4  20   65.36    8.17
  -6   4  20   62.07    7.83
  -4  -4  20   38.65    6.92
   4  -4 -20   35.54    7.78
   4  -4 -20   51.80    8.59
  -4  -4  20   40.68    7.30
  -4   4  20   41.46    7.34
   4   4 -20   40.39    7.38
  -4   4  20   42.99    7.65
  -7  -5  20   15.41    7.18
   7  -5 -20   27.39    9.11
  -7   5  20   27.02    6.99
   7   5 -20   23.99    7.85
   5  -5 -20   50.43    8.48
  -5  -5  20   32.57    7.12
  -5  -5  20   38.93    7.24
  -5   5  20   42.98    7.55
  -5   5  20   38.31    7.41
   5   5 -20   37.04    7.54
  -3  -5  20  356.00   17.57
   3  -5 -20  357.52   17.94
   3  -5 -20  400.29   18.62
  -3  -5  20  338.58   17.54
  -3   5  20  342.02   17.93
  -3   5  20  346.38   17.77
   3   5 -20  348.67   17.50
   1  -5 -20  223.99   12.48
   1  -5 -20  209.78   11.76
  -1  -5  20  203.36   12.49
   1  -5 -20  219.58   11.69
   1  -5 -20  189.49   28.25
   1   5 -20  234.36   38.50
   1   5 -20  245.84   11.75
  -1   5  20  200.22   12.78
   1   5 -20  198.38   23.17
   1   5 -20  195.18   11.78
   1  -5  20  143.37   10.55
  -1  -5 -20  142.83   24.34
  -1   5 -20  146.76   20.91
   1   5  20  141.65   10.51
   8  -6 -20    4.81    9.45
   8   6 -20    4.42    7.68
   6  -6 -20    4.49    8.09
  -6  -6  20    6.29    6.46
  -6  -6  20    6.08    6.59
  -6   6  20   12.81    6.71
  -6   6  20    4.77    6.73
   6   6 -20    0.81    6.74
  -4  -6  20  245.32   14.11
   4  -6 -20  252.36   15.07
  -4  -6  20  248.59   14.30
   4  -6 -20  248.72   15.50
   4   6 -20  211.60   13.80
  -4   6  20  246.94   14.29
  -4   6  20  258.19   14.30
   2  -6 -20   63.36    7.71
   2  -6 -20   63.01   14.59
   2  -6 -20   73.99    8.15
  -2  -6  20   67.06    7.41
  -2  -6  20   72.62    8.10
   2  -6 -20   85.76    8.56
  -2   6  20   60.64    7.90
  -2   6  20   69.91    8.55
   2   6 -20   74.20    7.83
   0  -6 -20   21.44   16.05
   0  -6  20   33.77    7.09
   0   6 -20   36.94   13.44
   0   6  20   46.43    7.44
   0   6 -20   83.52   27.08
   7  -7 -20    5.76    9.02
  -7  -7  20    7.80    7.33
   7   7 -20   13.57    7.23
  -7   7  20    0.40    6.74
  -5  -7  20   91.19    8.98
  -5  -7  20   98.86    9.09
   5  -7 -20   91.00   10.36
  -5   7  20   91.16    9.17
   5   7 -20   86.36    9.12
  -5   7  20  104.26    9.55
  -3  -7  20   12.46    6.35
   3  -7 -20   24.24    7.48
   3  -7 -20   10.54    7.00
  -3  -7  20    9.82    6.63
   3   7 -20    3.99    6.35
  -3   7  20    8.64    7.30
  -3   7  20   13.20    6.89
   1  -7 -20  213.36   23.61
   1  -7 -20  202.02   11.81
   1  -7 -20  227.90   12.11
   1  -7 -20  208.12   12.66
  -1  -7  20  210.58   12.67
   1   7 -20  223.21   12.01
   1   7 -20  190.40   12.06
  -1   7  20  198.77   13.12
  -1  -7 -20  175.41   24.08
  -1  -7 -20  141.01   20.84
   1  -7  20  139.33   10.45
  -1   7 -20  129.48   21.70
  -1   7 -20   94.96   22.19
   1   7  20  137.35   11.35
  -6  -8  20   44.08    7.88
   6  -8 -20   53.21    9.81
  -6   8  20   53.81    8.34
  -6   8  20   43.96    7.73
   6   8 -20   35.13    7.72
   4  -8 -20   14.91    8.15
  -4  -8  20   22.64    7.01
   4  -8 -20   26.73    7.96
  -4  -8  20   22.66    6.78
  -4   8  20   31.95    7.42
  -4   8  20   28.50    7.78
   4   8 -20   11.63    6.70
  -2  -8  20  153.22   11.19
   2  -8 -20  173.86   11.69
   2  -8 -20  146.23   11.15
  -2  -8  20  149.59   11.19
   2  -8 -20  141.59   22.54
   2   8 -20  155.57   11.02
  -2   8  20  154.49   11.95
   0  -8  20  133.01   10.06
   0  -8 -20  151.22   25.28
   0  -8 -20  148.08   21.67
   0   8  20  118.70   11.09
   0   8 -20  132.03    9.01
   0   8 -20   86.84   16.34
  -2  -8 -20  144.68   20.60
  -2  -8 -20   95.60   18.66
   2  -8  20  131.81    9.73
  -2   8 -20   84.67   19.61
  -2   8 -20  121.91   21.26
   7  -9 -20   23.98    9.90
  -7  -9  20   39.50    8.27
   7   9 -20   34.65    7.94
  -7   9  20   25.63    7.64
  -5  -9  20   74.18    8.89
   5  -9 -20   88.54   10.51
  -5  -9  20   53.03    8.04
   5   9 -20   70.79    8.80
  -5   9  20   80.38    9.12
  -5   9  20   93.91    9.13
  -3  -9  20   41.17    7.07
  -3  -9  20   46.92    7.63
   3  -9 -20   49.59    8.67
   3  -9 -20   41.61    8.13
  -3   9  20   38.91    8.29
   3   9 -20   55.98    7.45
  -3   9  20   35.48    7.85
   1  -9 -20   28.76    7.45
   1  -9 -20   30.99    5.66
   1  -9 -20   46.38    7.03
  -1  -9  20   32.13    7.35
   1  -9 -20   15.62   13.39
   1   9 -20   36.86    5.87
   1   9 -20   43.73    6.75
  -1   9  20   48.22    8.45
   1   9 -20   15.11   29.20
  -1  -9 -20   27.38   13.78
   1  -9  20   20.94    6.77
  -1  -9 -20   37.14   17.36
  -1   9 -20   20.17   13.53
   1   9  20   40.64    8.10
  -3  -9 -20   22.82   15.46
  -3   9 -20    9.81   13.22
  -3   9 -20    9.59   19.20
  -6 -10  20   16.79    7.22
   6 -10 -20    8.01    8.77
  -6  10  20   13.12    9.86
   6  10 -20    2.75    6.94
  -6  10  20   21.52    7.47
  -4 -10  20   59.44    8.15
  -4 -10  20   84.94    8.71
   4 -10 -20   83.36   10.26
  -4  10  20   98.67    9.57
   4  10 -20   83.21    8.88
  -4  10  20   83.17    9.81
  -2 -10  20   63.75    8.13
   2 -10 -20   66.01    8.55
   2 -10 -20   70.02    8.76
  -2  10  20   63.20    9.01
   2  10 -20   63.83    7.92
   0 -10  20  187.17   12.15
   0 -10 -20  167.80   11.63
   0 -10 -20  190.16   23.51
   0  10 -20  184.26   10.83
   0  10  20  196.22   13.45
  -2 -10 -20   -4.40   12.41
  -2 -10 -20   -8.42   16.11
   2 -10  20   21.75    6.67
  -2  10 -20   -5.08   13.00
  -2  10 -20  -16.77   21.61
   7 -11 -20    3.24    9.66
  -7 -11  20    8.39    8.33
  -7  11  20    7.41    7.41
   7  11 -20   10.32    7.64
  -5 -11  20   15.79    6.96
  -5 -11  20   -0.85    6.35
   5 -11 -20   14.06    8.36
  -5  11  20    8.78    7.47
   5  11 -20   12.57    7.32
  -5  11  20   12.72    7.72
  -3 -11  20   23.31    7.30
   3 -11 -20   31.98    8.81
   3 -11 -20   25.03    8.21
  -3 -11  20   28.13    6.84
  -3  11  20   17.54    7.99
   3  11 -20   30.31    7.31
  -3  11  20   32.65    9.45
   1 -11 -20  131.03   10.35
  -1 -11  20  138.86   11.10
   1 -11 -20  143.78   22.23
   1 -11 -20  140.29   11.21
   1  11 -20  131.74   10.19
  -1  11  20  128.95   11.63
   1 -11  20   70.04    8.31
  -1 -11 -20   64.42   15.59
  -1 -11 -20   17.54   24.22
  -1  11 -20   10.89   19.76
   1  11  20   60.98    9.59
  -3 -11 -20   69.17   14.07
  -3 -11 -20   36.62   14.51
  -3  11 -20   36.49   14.24
  -3  11 -20   17.90   20.19
  -6 -12  20   29.60    8.18
   6 -12 -20   48.58   10.31
   6  12 -20   24.10    7.82
  -6  12  20   32.82    8.26
  -4 -12  20   18.02    6.64
   4 -12 -20   24.60    8.75
  -4 -12  20   20.90    7.15
  -4  12  20   28.25    8.31
  -4  12  20   27.15    8.46
   4  12 -20   16.58    7.35
   2 -12 -20   13.83    7.41
   2 -12 -20   34.43    8.71
  -2 -12  20   18.79    7.31
  -2  12  20   21.78    8.17
   2  12 -20   19.95    6.90
   0 -12 -20   40.35   14.56
   0 -12  20   22.25    7.43
   0  12 -20   26.37    6.25
   0  12 -20   23.80    5.49
   0  12 -20   34.49   22.42
   0  12  20   27.18    9.11
  -2 -12 -20   33.58   14.91
   2 -12  20   31.92    8.15
  -2 -12 -20   43.74   16.31
  -2  12 -20  -16.74   21.88
   2  12  20   13.96    9.74
   7 -13 -20   17.53   10.60
   7  13 -20   20.21    8.37
  -5 -13  20   -8.39    7.34
   5 -13 -20    6.11    8.62
  -5 -13  20   -4.59    6.64
   5  13 -20    3.88    7.29
  -5  13  20   -5.21    7.86
  -5  13  20   -9.21    7.57
   3 -13 -20   29.45    9.63
  -3 -13  20   14.98    7.08
   3 -13 -20   23.53    8.61
   3  13 -20   35.47    7.61
  -3  13  20   28.99    9.15
   1 -13 -20   44.35    8.42
  -1 -13  20   34.99    8.14
   1 -13 -20   33.52    7.18
  -1  13  20   59.91    9.86
   1  13 -20   34.97    6.93
  -1 -13 -20   42.02   16.24
   1 -13  20   74.45    9.17
   1  13  20   50.95   10.29
  -1  13 -20    5.66   22.25
   3 -13  20    9.40    7.58
  -3 -13 -20    9.90   14.60
  -3  13 -20  -14.52   20.85
  -6 -14  20   24.09    8.42
   6 -14 -20   22.99    9.76
   6  14 -20   18.42    8.03
  -6  14  20   17.04    8.26
  -4 -14  20   10.13    7.16
   4 -14 -20    8.11    8.31
  -4 -14  20   13.80    7.97
  -4  14  20   11.52    8.37
   4  14 -20   -4.67    6.94
  -4  14  20    7.31    8.74
   2 -14 -20   -3.01    7.34
  -2 -14  20   -2.83    7.24
   2 -14 -20    9.69    8.57
  -2  14  20    8.86    8.92
   2  14 -20   -3.17    6.37
   0 -14  20   16.21    7.47
   0 -14 -20   18.50    7.50
   0 -14 -20   15.55   14.82
   0  14  20   29.79   10.48
   0  14 -20    6.57   24.85
  -2 -14 -20   -5.70   14.28
   2 -14  20   -1.13    7.45
  -2  14 -20  -18.47   21.53
   2  14  20   10.18    9.54
  -4 -14 -20    8.99   15.20
  -4  14 -20  -24.34   21.01
  -5 -15  20    8.85    7.15
  -5 -15  20    6.94    8.17
   5 -15 -20   -6.83    9.38
  -5  15  20    2.35    8.04
  -5  15  20    4.95    8.24
   5  15 -20    0.84    7.65
   3 -15 -20   39.39   10.42
  -3 -15  20   31.16    8.08
   3 -15 -20   33.62    8.84
   3  15 -20   27.06    7.77
  -3  15  20   33.07    9.59
  -1 -15  20   -0.44    7.53
   1 -15 -20    6.42    7.29
   1 -15 -20   15.96    8.50
  -1  15  20   29.57   10.12
   1  15 -20    9.13    6.32
  -1 -15 -20   11.94   15.36
   1 -15  20    1.82    7.81
   1  15  20    6.33   10.37
  -3 -15 -20   66.76   18.98
   3 -15  20   96.94   10.58
  -6 -16  20    8.63    8.83
   6 -16 -20   18.01   10.36
  -6  16  20   26.32    8.80
   6  16 -20   12.40    8.52
  -4 -16  20   17.45    7.61
   4 -16 -20   20.66    9.67
  -4 -16  20   10.41    7.93
  -4  16  20   27.15    9.42
   4  16 -20   22.23    7.85
   2 -16 -20   42.07   10.09
   2 -16 -20   23.44    8.22
  -2 -16  20   31.64    8.46
   2  16 -20   24.41    7.68
  -2  16  20   33.72   10.27
   0 -16  20   28.27    8.38
   0 -16 -20   39.09    8.73
   0  16  20   24.73   10.33
   2 -16  20    2.86    7.84
  -2 -16 -20    3.98   16.36
   2  16  20   -3.04   10.27
  -4 -16 -20   24.15   17.38
  -4  16 -20  -45.81   22.60
  -5 -17  20    8.40    8.73
   5 -17 -20   21.92   10.31
   5  17 -20   21.19    8.61
  -5  17  20   12.94    8.94
  -5  17  20   17.56    9.26
   3 -17 -20   23.95   11.75
  -3 -17  20   25.40    8.40
   3 -17 -20    8.78   11.92
   3  17 -20   11.95    7.49
  -3  17  20   38.93   10.42
  -1 -17  20   36.54    9.10
   1 -17 -20   45.80   10.60
  -1  17  20   44.59   11.73
   1  17 -20   42.27    7.50
  -1 -17 -20   23.71   20.02
   1 -17  20   36.99    8.97
   1  17  20   24.66   12.68
   3 -17  20   27.82    8.84
  -3 -17 -20   24.49   17.41
  -3  17 -20  -45.74   23.57
   4 -18 -20   40.15   10.39
  -4 -18  20   31.01    8.84
   4  18 -20   33.97    8.93
  -4  18  20   38.83   10.76
   2 -18 -20   36.65   10.68
   2 -18 -20   17.70    8.28
  -2 -18  20   14.88    8.27
   2  18 -20   20.89    7.65
  -2  18  20   15.14   10.87
   0 -18  20   17.62    8.60
   0 -18 -20   21.26    9.30
   0  18  20   22.60   11.08
   2 -18  20   13.04    8.21
  -2 -18 -20    7.52   16.15
   2  18  20    7.49   12.25
  -3 -19  20   30.47    9.46
  -3  19  20   55.69   12.07
   3  19 -20   56.48    9.07
  -1 -19  20   22.30    8.64
   1 -19 -20   47.65   12.05
  -1  19  20   24.67   11.90
   1  19 -20   20.63    7.22
   1 -19  20    5.43    8.07
   1  19  20    1.81   10.73
  -3 -19 -20   -1.33   16.95
   3 -19  20   -2.86    7.73
   4 -20 -20   18.29   10.79
  -4 -20  20   14.40    8.84
  -4  20  20   12.58   10.71
   4  20 -20    9.49    8.70
   2 -20 -20   27.89    8.90
  -2 -20  20   13.65    8.59
   2 -20 -20   28.81   11.15
   2  20 -20   34.11    7.77
  -2  20  20   10.61   11.77
   0 -20  20    7.55    8.06
   0 -20 -20   17.71    9.77
   0  20  20   -5.83   11.34
   2 -20  20   22.27    8.59
   3 -21 -20    4.98    9.17
  -3 -21  20   11.36    8.69
   3  21 -20   10.24    8.11
  -3  21  20   12.57   12.50
   1 -21 -20   -6.78   12.48
  -1 -21  20    8.15    8.11
  -1  21  20    9.23   13.67
   1 -21  20   -2.53    8.08
   1  21  20    7.84   12.52
   2 -22 -20   12.20   11.40
  -2 -22  20  -16.87    8.07
   2  22 -20   -4.84    6.99
  -2  22  20    5.21   13.10
   0 -22  20   22.84    9.44
   0 -22 -20   40.84   11.50
   8   0 -21    7.14    7.88
   6   0 -21   -1.06    7.09
  -6   0  21   -4.83    6.33
  -6   0  21   -2.69    6.36
  -4   0  21   -9.51    6.56
   4   0 -21   -0.29    6.78
   4   0 -21   -3.09    7.29
  -4   0  21   -1.23    6.19
   0   0  21    3.20    6.20
   0   0 -21  -56.96   39.64
   7  -1 -21   13.98    7.39
  -7  -1  21    3.38    6.73
  -7   1  21   10.39    7.04
   7   1 -21   17.26    7.86
  -5  -1  21   16.17    6.71
   5  -1 -21   36.98    7.65
  -5  -1  21   20.75    6.91
  -5   1  21   15.01    6.90
  -5   1  21   23.21    7.26
   5   1 -21   17.37    7.09
  -3  -1  21   -0.50    6.57
  -3  -1  21    5.27    6.19
   3  -1 -21   -3.00    6.34
   3  -1 -21   -7.31    6.74
   3   1 -21    5.98    6.82
  -3   1  21    1.79    6.97
  -3   1  21    0.24    6.18
  -1  -1  21  116.10    9.62
   1  -1 -21  108.21    8.80
   1  -1 -21  124.99    8.76
   1   1 -21  143.56    8.79
  -1   1  21  111.92    9.56
   1   1 -21  119.14    9.06
  -1  -1 -21  -33.41   36.82
  -1   1 -21  -44.92   28.09
  -1   1 -21   48.76   17.39
   8  -2 -21   12.84    8.29
   8   2 -21   16.37    8.29
  -6  -2  21   21.57    6.83
   6  -2 -21   -8.38    7.17
  -6  -2  21    4.55    6.83
   6   2 -21    8.86    7.08
  -6   2  21    4.39    6.45
  -6   2  21    1.37    6.28
   4  -2 -21   46.17    7.91
   4  -2 -21   59.10    8.80
  -4  -2  21   53.12    8.02
  -4  -2  21   52.50    7.32
  -4   2  21   46.34    7.43
   4   2 -21   53.12    8.10
  -4   2  21   49.33    8.02
   0  -2  21   25.30    6.64
   0   2  21   28.00    6.75
   0   2 -21   -5.87   13.33
   0   2 -21  -37.98   30.24
  -2  -2 -21    1.35   34.27
  -2   2 -21   12.11   14.71
   7  -3 -21   21.00    8.39
  -7  -3  21    9.40    6.74
  -7   3  21    8.75    6.88
   7   3 -21   13.54    7.55
   5  -3 -21   30.78    7.91
  -5  -3  21   31.66    7.27
  -5  -3  21   11.60    6.89
   5   3 -21   29.85    7.63
  -5   3  21   23.23    7.08
  -5   3  21   29.32    7.40
  -3  -3  21   28.40    6.68
   3  -3 -21   14.25    6.82
  -3  -3  21   32.89    7.45
   3  -3 -21   15.16    7.52
   3   3 -21   23.90    6.78
  -3   3  21   27.51    7.34
  -3   3  21   29.61    6.90
  -1  -3 -21  124.68   19.90
   1  -3  21  154.27   10.42
  -1   3 -21  103.46   27.99
   1   3  21  166.47   10.72
  -1   3 -21  142.59   21.78
   8  -4 -21   36.86    9.66
   8   4 -21    8.68    7.26
  -6  -4  21   67.48    7.91
  -6  -4  21   54.28    7.73
   6  -4 -21   57.54    9.30
  -6   4  21   53.09    8.12
  -6   4  21   49.42    7.80
   6   4 -21   43.17    8.50
   4  -4 -21    4.04    7.10
  -4  -4  21   -5.60    6.48
   4  -4 -21   -9.85    7.18
  -4  -4  21    1.11    6.08
  -4   4  21    6.75    6.98
   4   4 -21    5.52    6.52
  -4   4  21   -3.81    6.44
   2  -4 -21  345.29   16.45
  -2  -4  21  291.64   16.09
  -2  -4  21  312.93   16.23
   2  -4 -21  298.29   16.54
   2  -4 -21  312.18   15.72
   2   4 -21  317.11   15.77
  -2   4  21  297.49   18.24
  -2   4  21  302.36   16.30
  -7  -5  21   22.04    7.37
   7  -5 -21   23.13    9.22
  -7   5  21   26.61    7.21
   7   5 -21    7.32    7.94
   5  -5 -21   17.34    7.82
  -5  -5  21   12.02    6.69
  -5  -5  21   16.11    6.84
  -5   5  21    8.44    6.89
  -5   5  21   17.17    6.94
   5   5 -21   14.56    7.12
   3  -5 -21   10.39    6.88
   3  -5 -21   11.51    7.41
  -3  -5  21    5.81    6.15
  -3  -5  21   -1.71    6.64
  -3   5  21   -1.29    7.13
   3   5 -21    3.64    6.29
  -3   5  21    0.22    6.39
  -1  -5  21  153.17   11.05
   1  -5 -21  158.63   10.08
   1  -5 -21  138.97    9.78
   1  -5 -21  144.15   10.66
  -1   5  21  149.69   11.12
   1   5 -21  142.59   10.05
   1   5 -21  158.59    9.79
  -6  -6  21    1.22    6.49
  -6  -6  21    7.84    6.72
   6  -6 -21   10.50    8.31
   6   6 -21   10.87    7.01
  -6   6  21   -4.81    6.97
  -6   6  21    6.23    6.90
   4  -6 -21  185.20   13.22
   4  -6 -21  186.09   13.95
  -4  -6  21  192.20   12.80
  -4  -6  21  200.54   12.72
  -4   6  21  175.29   12.57
   4   6 -21  169.01   12.33
  -4   6  21  191.83   12.67
  -2  -6  21  158.40   11.39
   2  -6 -21  163.47   22.73
   2  -6 -21  172.68   11.74
   2  -6 -21  151.91   10.97
   2   6 -21  151.60   10.79
  -2   6  21  136.81   11.62
   0  -6 -21  116.04   20.82
   0  -6  21  161.18   10.99
   0   6  21  157.36   11.31
   0   6 -21  148.45   22.09
  -7  -7  21   48.10    8.29
   7  -7 -21   68.74   10.80
  -7   7  21   46.75    8.13
   7   7 -21   52.00    9.29
  -5  -7  21   -5.24    6.23
  -5  -7  21    1.14    6.36
   5  -7 -21   -2.50    8.35
  -5   7  21    6.05    7.18
   5   7 -21   -1.28    6.49
  -5   7  21  -11.57    6.68
   3  -7 -21   83.88    9.31
  -3  -7  21   74.14    8.52
  -3  -7  21   74.93    8.19
   3  -7 -21   81.49    9.04
  -3   7  21   76.58    9.14
   3   7 -21   72.76    8.25
  -3   7  21   72.35    8.75
  -1  -7  21  134.74   10.85
   1  -7 -21  155.19   10.76
   1  -7 -21  117.85    9.66
   1  -7 -21  127.42    9.81
   1  -7 -21  136.81   22.09
   1   7 -21  162.50    9.99
   1   7 -21  133.27   10.03
  -1   7  21  154.23   11.41
  -3   7 -21   15.92   17.69
  -6  -8  21   30.99    7.73
   6  -8 -21   27.56    9.41
   6   8 -21   24.04    7.59
  -6   8  21   35.95    7.56
  -6   8  21   41.71    7.93
   4  -8 -21   37.18    9.01
   4  -8 -21   51.17    9.75
  -4  -8  21   39.13    7.38
  -4  -8  21   60.85    7.90
   4   8 -21   49.15    7.90
  -4   8  21   55.97    8.28
  -4   8  21   59.56    8.97
  -2  -8  21  128.13   10.37
   2  -8 -21   92.51   18.24
   2  -8 -21  109.50    9.73
   2  -8 -21  129.95   10.88
   2   8 -21   96.64    8.96
  -2   8  21  120.20   11.01
   0  -8  21    5.94    6.41
   0  -8 -21   -3.75   12.58
   0   8  21   -1.41    7.61
   0   8 -21    2.16   24.55
   0   8 -21   -7.55    4.61
  -2  -8 -21   32.93   13.59
   2  -8  21   37.57    7.12
  -2  -8 -21   39.93   16.61
  -2   8 -21   20.90   14.14
  -2   8 -21   41.35   19.17
   7  -9 -21   44.14   10.88
  -7  -9  21   27.96    8.29
  -7   9  21   44.48    8.11
   7   9 -21   32.95    7.93
   5  -9 -21   11.47    8.30
  -5  -9  21   12.32    6.52
  -5  -9  21    3.74    6.93
   5   9 -21   -1.55    6.80
  -5   9  21   -1.44    7.08
  -5   9  21    3.17    7.37
   3  -9 -21  185.40   13.13
   3  -9 -21  150.81   12.43
  -3  -9  21  154.38   12.01
  -3  -9  21  158.19   11.62
  -3   9  21  134.23   12.05
   3   9 -21  170.73   11.59
   1  -9 -21   22.88    6.74
   1  -9 -21   44.20    7.58
   1  -9 -21   28.02    5.59
  -1  -9  21   31.61    7.43
   1  -9 -21   24.72   13.53
  -1   9  21   27.55    8.08
   1   9 -21   37.71    6.54
   1   9 -21   31.65    6.92
  -1  -9 -21   33.49   14.42
   1  -9  21   38.15    7.35
  -1  -9 -21   54.68   17.70
  -1   9 -21   24.00   15.99
   1   9  21   36.28    8.56
  -1   9 -21   -6.93   20.01
  -3   9 -21   -0.22   19.78
  -3   9 -21   -7.38   12.89
   6 -10 -21    1.91    9.14
  -6 -10  21    9.10    7.33
  -6  10  21   16.11    9.88
  -6  10  21    1.28    7.32
   6  10 -21   20.96    7.58
  -4 -10  21    7.96    6.79
  -4 -10  21   19.66    6.85
   4 -10 -21    4.32    7.92
  -4  10  21   21.72    8.33
  -4  10  21   16.49    7.96
   4  10 -21    8.02    6.80
  -2 -10  21    8.46    6.74
   2 -10 -21    2.79    7.68
   2 -10 -21   -6.32    6.99
   2  10 -21    3.09    6.33
  -2  10  21    5.44    7.70
   0 -10  21   12.79    6.78
   0 -10 -21   10.82   13.01
   0  10 -21   12.97    4.85
   0  10 -21  -34.14   22.90
   0  10  21    7.39    8.30
   2 -10  21   36.71    7.40
  -2 -10 -21   29.14   14.23
  -2 -10 -21    4.98   17.64
  -2  10 -21   21.86   18.48
   2  10  21   23.12    9.01
  -2  10 -21   20.97   14.20
   7 -11 -21   14.25   10.88
  -7 -11  21    8.59    8.23
  -7  11  21   28.08    8.19
   7  11 -21   14.41    7.94
   5 -11 -21   27.42    9.24
  -5 -11  21   33.72    7.26
  -5 -11  21   28.86    7.55
  -5  11  21   20.27    8.47
  -5  11  21   32.92    8.43
   5  11 -21   21.58    7.54
  -3 -11  21   -7.38    6.66
   3 -11 -21    1.85    7.70
   3 -11 -21   20.10    8.62
  -3  11  21   13.96    8.17
   3  11 -21   11.24    6.93
   1 -11 -21   58.74   15.47
  -1 -11  21   52.09    8.21
   1 -11 -21   67.98    8.13
   1 -11 -21   55.90    8.27
  -1  11  21   68.52   10.09
   1  11 -21   69.92    7.57
   1  11 -21   22.44   38.67
   1 -11  21   37.25    7.75
  -1 -11 -21   25.22   14.84
   1  11  21   30.89    9.49
  -1  11 -21    6.49   21.22
  -3 -11 -21   62.95   17.94
  -3 -11 -21   33.51   14.43
  -3  11 -21   37.93   15.00
  -3  11 -21   20.83   21.88
  -6 -12  21   17.25    7.85
   6 -12 -21   20.86    9.74
  -6  12  21   20.83    8.19
   6  12 -21   16.63    7.88
  -4 -12  21    2.96    6.89
   4 -12 -21   12.84    8.87
  -4 -12  21    9.76    6.81
  -4  12  21    1.68    8.12
   4  12 -21    6.32    7.06
  -4  12  21    1.80    8.35
   2 -12 -21    4.36    7.16
  -2 -12  21    7.57    7.06
   2 -12 -21   -3.12    7.95
  -2  12  21    8.75    8.20
   2  12 -21   -4.02    6.13
   0 -12  21   19.37    7.36
   0 -12 -21   13.55   13.69
   0  12 -21   -1.54   23.25
   0  12  21   15.10    8.56
   0  12 -21   14.11    5.27
  -2 -12 -21    0.70   13.60
   2 -12  21   -3.43    7.40
   2  12  21   -4.14   10.02
  -2  12 -21   -4.17   22.96
  -4  12 -21  -14.31   21.82
  -4  12 -21   23.13   17.97
   5 -13 -21   10.25    9.42
  -5 -13  21    3.65    6.94
  -5 -13  21   11.96    7.44
  -5  13  21    7.81    8.14
   5  13 -21   13.36    7.56
  -5  13  21   11.65    8.20
   3 -13 -21    8.08    8.80
  -3 -13  21   -2.27    6.69
   3 -13 -21    5.90    7.74
   3  13 -21    1.83    6.93
  -3  13  21   26.66    9.13
   1 -13 -21   45.27    8.00
   1 -13 -21   42.86    8.65
  -1 -13  21   49.32    8.51
   1  13 -21   43.80    7.34
  -1  13  21   49.83   10.21
  -1 -13 -21   13.72   14.79
   1 -13  21    5.57    7.84
   1  13  21   12.35    9.82
  -1  13 -21  -16.34   20.97
   3 -13  21   27.39    8.20
  -3 -13 -21   33.62   15.38
  -3  13 -21   -6.28   21.58
   6 -14 -21   37.63   10.82
  -6 -14  21   24.58    8.78
  -6  14  21   22.01    8.47
   6  14 -21   30.01    8.59
  -4 -14  21    2.73    7.48
  -4 -14  21    4.86    7.49
   4 -14 -21    8.38    8.85
   4  14 -21   -3.98    7.14
  -4  14  21   17.55    9.11
   2 -14 -21  166.23   12.80
   2 -14 -21  188.89   14.76
  -2 -14  21  147.79   12.32
   2  14 -21  133.62   11.65
  -2  14  21  160.59   14.30
   0 -14  21   14.91    7.62
   0 -14 -21   -3.03   13.76
   0 -14 -21   -7.98    7.33
   0  14  21    0.88    9.87
  -2 -14 -21  103.47   20.09
   2 -14  21  122.71   11.21
   2  14  21  118.94   13.17
  -4 -14 -21    4.55   15.26
  -4  14 -21  -38.53   20.38
  -5 -15  21   -6.66    6.92
  -5 -15  21    0.44    7.93
   5 -15 -21    0.23   11.56
  -5  15  21    5.78    8.61
   5  15 -21   -1.65    7.61
  -5  15  21   -4.44    8.31
  -3 -15  21   55.61    9.26
   3 -15 -21   98.12   12.82
   3 -15 -21   79.87   12.19
   3  15 -21   60.62    8.93
  -3  15  21   72.52   11.27
   1 -15 -21   14.28    8.69
  -1 -15  21   22.20    8.05
   1 -15 -21   -2.73    8.68
   1  15 -21   12.11    6.39
  -1  15  21   16.95   10.41
  -1 -15 -21  -10.98   14.48
   1 -15  21   -2.66    7.63
  -1  15 -21  -46.52   23.03
   1  15  21   -3.86    9.08
   3 -15  21   18.64    8.68
  -3 -15 -21   18.47   16.37
  -3  15 -21  -27.40   23.42
  -4 -16  21    0.30    7.55
   4 -16 -21   16.19    9.32
  -4  16  21   14.83    9.68
   4  16 -21   -7.08    7.43
   2 -16 -21  -10.76    7.44
  -2 -16  21   -0.92    7.48
   2 -16 -21    0.14    9.49
  -2  16  21   14.75    9.99
   2  16 -21   -0.05    6.83
   0 -16  21   32.14    8.75
   0 -16 -21   34.86    8.89
   0  16  21   49.46   13.18
  -2 -16 -21   17.00   17.09
   2 -16  21    7.97    8.17
   2  16  21    4.70   10.43
  -2  16 -21  -39.19   25.99
  -4 -16 -21   71.66   18.62
  -4  16 -21  -28.78   24.59
   5 -17 -21   45.80   10.99
  -5 -17  21   30.58    9.83
  -5  17  21   63.52   13.45
  -5  17  21   67.00   10.75
   5  17 -21   61.10    9.86
  -3 -17  21   50.72    9.37
   3 -17 -21   66.50   12.09
   3 -17 -21   60.95   12.51
  -3  17  21   41.70   10.91
   3  17 -21   39.07    8.53
  -1 -17  21   19.29    8.43
   1 -17 -21   28.31    9.85
   1  17 -21   34.43    7.11
  -1  17  21   26.57   11.75
   1 -17  21   10.40    8.16
   1  17  21   19.03   10.54
  -3 -17 -21   -6.63   16.10
   3 -17  21   19.08    8.34
   4 -18 -21   21.23   10.21
  -4 -18  21   16.51    8.22
  -4  18  21   21.54   10.64
   4  18 -21    8.21    8.38
   2 -18 -21   21.47    8.24
  -2 -18  21    4.44    8.22
   2 -18 -21   26.43   10.42
  -2  18  21   20.57   11.69
   2  18 -21    9.83    7.18
   0 -18  21   15.73    8.52
   0  18  21   27.70   12.21
  -2 -18 -21   17.49   17.30
   2 -18  21   25.71    8.54
   3 -19 -21   33.35    9.57
  -3 -19  21   22.09    8.90
   3  19 -21   22.64    8.05
  -3  19  21   28.41   11.59
  -1 -19  21    5.35    7.93
   1 -19 -21   12.56    9.86
  -1  19  21    4.98   13.71
   1 -19  21   31.29    9.07
   1  19  21   28.56   11.85
   2 -20 -21   11.85   10.64
  -2 -20  21    0.92    8.47
  -2  20  21   -7.32   11.49
   2  20 -21    9.28    7.05
   0 -20  21    6.64    8.67
   0 -20 -21    9.18   10.60
   0  20  21   13.50   12.34
   2 -20  21   14.63    8.36
   3  21 -21   25.69    8.61
  -3  21  21   42.54   12.73
  -1 -21  21   -3.98    8.28
   1 -21 -21    5.91   10.47
  -1  21  21    0.14   12.41
   1 -21  21   24.47    8.73
   1  21  21   14.29   13.49
  -6   0  22    4.24    6.71
  -6   0  22   -5.28    6.55
   6   0 -22    8.47    7.36
   4   0 -22  191.68   12.65
  -4   0  22  194.22   12.52
   4   0 -22  195.31   13.41
  -4   0  22  177.76   12.52
   0   0  22   53.64    7.59
   0   0 -22   12.89   41.95
   0   0 -22  -11.47   17.71
  -2   0 -22  -17.74   28.02
  -2   0 -22  -15.71   17.24
   7  -1 -22   14.13    7.89
  -7  -1  22    6.76    7.12
   7   1 -22   15.08    7.88
  -7   1  22    1.27    7.02
  -5  -1  22   55.20    7.87
  -5  -1  22   43.57    7.61
   5  -1 -22   58.85    8.60
  -5   1  22   51.44    7.88
  -5   1  22   43.25    8.10
   5   1 -22   38.92    8.05
  -3  -1  22   21.78    6.65
   3  -1 -22    8.58    6.45
  -3  -1  22   13.02    7.05
   3  -1 -22    7.45    7.50
  -3   1  22   14.55    7.14
   3   1 -22    9.56    6.70
  -3   1  22   24.24    6.82
  -1  -1 -22  192.06   29.70
   1  -1  22  246.53   13.16
   1   1  22  248.48   13.22
  -1   1 -22  194.32   28.09
  -6  -2  22    1.79    6.82
   6  -2 -22   -5.38    6.79
  -6  -2  22    0.48    6.50
  -6   2  22    5.10    6.56
  -6   2  22    6.49    6.50
   6   2 -22    7.25    7.19
   4  -2 -22   52.69    8.09
   4  -2 -22   44.03    9.20
  -4  -2  22   38.81    7.73
  -4  -2  22   41.29    7.24
  -4   2  22   46.14    8.10
  -4   2  22   38.17    7.41
   4   2 -22   33.98    7.49
  -2   2 -22   40.37   24.29
  -7  -3  22   55.65    8.29
   7  -3 -22   50.58    9.84
  -7   3  22   64.27    8.33
   7   3 -22   56.34    9.59
   5  -3 -22   37.34    8.45
  -5  -3  22   48.42    8.04
  -5  -3  22   38.88    7.59
  -5   3  22   31.68    7.62
   5   3 -22   36.26    7.88
  -5   3  22   41.32    7.98
  -3  -3  22   21.55    6.70
   3  -3 -22   23.10    7.88
  -3  -3  22   28.87    7.49
   3  -3 -22   22.02    7.13
  -3   3  22   23.63    7.44
  -3   3  22   21.54    6.89
   3   3 -22   17.73    6.63
   1  -3 -22  177.49   10.46
  -1  -3  22  171.12   11.60
  -1   3  22  160.30   11.84
   1   3 -22  183.70   10.50
   1   3 -22  146.86   10.48
  -6  -4  22   10.45    6.94
  -6  -4  22   25.05    6.98
   6  -4 -22   18.46    8.19
   6   4 -22   15.09    7.73
  -6   4  22   27.31    7.41
  -6   4  22   18.75    7.36
   4  -4 -22    2.94    6.99
  -4  -4  22    8.79    6.60
  -4  -4  22   11.59    7.22
   4  -4 -22    4.68    8.18
  -4   4  22    3.77    7.36
  -4   4  22   15.79    7.21
   4   4 -22    5.49    6.83
   7  -5 -22    4.64    8.72
  -7  -5  22    8.41    7.09
   7   5 -22   13.04    7.96
  -7   5  22   13.57    7.07
  -5  -5  22   42.03    7.93
   5  -5 -22   42.90    8.94
  -5  -5  22   33.47    7.33
  -5   5  22   37.70    8.02
   5   5 -22   33.75    7.90
  -5   5  22   38.23    7.78
   3  -5 -22   38.42    8.24
  -3  -5  22   35.14    7.57
   3  -5 -22   35.83    7.46
  -3  -5  22   34.03    6.86
   3   5 -22   23.21    7.06
  -3   5  22   45.79    8.29
  -3   5  22   35.74    7.78
   1  -5  22  130.23   10.64
  -1  -5 -22  101.20   20.87
   1   5  22  130.71   10.50
  -1   5 -22  139.64   21.24
  -6  -6  22   16.62    6.84
  -6  -6  22   14.06    6.80
   6  -6 -22   26.45    8.97
  -6   6  22   30.05    7.79
   6   6 -22   23.83    7.93
  -6   6  22   30.72    7.69
  -4  -6  22   20.29    7.27
   4  -6 -22   21.86    9.27
  -4  -6  22   28.90    7.48
   4  -6 -22   23.60    8.35
  -4   6  22   26.09    7.91
   4   6 -22   32.45    7.61
  -4   6  22   27.96    7.64
   2  -6 -22    8.97   12.75
   2  -6 -22    2.77    6.42
  -2  -6  22    1.83    6.73
   2  -6 -22   -2.06    6.95
   2   6 -22    4.21    6.08
  -2   6  22   -4.79    7.19
   0  -6 -22   73.31   23.81
   0  -6  22  104.73    9.12
   0   6  22  100.74    9.70
   7  -7 -22   27.95    9.85
  -7  -7  22   31.71    7.96
  -7   7  22   34.82    8.01
   7   7 -22   28.27    8.21
  -5  -7  22    8.14    6.91
   5  -7 -22    7.96    8.34
  -5  -7  22    7.29    6.83
  -5   7  22    4.75    7.22
  -5   7  22    2.45    7.25
   5   7 -22   -0.12    6.59
  -3  -7  22   18.67    7.24
  -3  -7  22    5.78    7.97
   3  -7 -22    8.09    7.37
   3  -7 -22   17.24    8.60
   3   7 -22   16.96    6.93
  -3   7  22   13.98    7.88
  -1  -7  22   14.17    6.92
   1  -7 -22   12.66    5.40
   1  -7 -22   15.29    6.12
   1  -7 -22   24.22    7.00
   1  -7 -22   16.75   13.06
  -1   7  22    7.59    7.62
   1   7 -22    8.83    5.95
   1   7 -22  -19.24   34.68
   1   7 -22    8.36    5.27
  -1  -7 -22   80.14   18.33
  -1  -7 -22   83.45   15.51
   1  -7  22   91.31    8.74
  -1   7 -22   66.86   16.27
  -1   7 -22   27.12   21.62
   1   7  22   97.15    9.39
  -3   7 -22   17.90   17.55
   6  -8 -22   81.13   11.85
  -6  -8  22   72.37    8.87
  -6   8  22   72.74    9.04
   6   8 -22   66.52    8.70
  -6   8  22   60.14    9.18
   4  -8 -22    6.45    8.11
  -4  -8  22    7.51    6.88
  -4  -8  22   12.07    6.96
   4  -8 -22    1.02    9.14
  -4   8  22    7.70    7.43
  -4   8  22   -1.65    7.74
   4   8 -22    6.56    6.92
  -2  -8  22  123.93   10.76
   2  -8 -22  135.65   11.63
   2  -8 -22  137.03   10.51
   2   8 -22  132.84   10.46
  -2   8  22  123.15   11.47
   0  -8 -22   14.68   13.38
   0  -8  22   26.40    6.84
   0   8 -22  -33.63   24.91
   0   8  22   15.55    7.90
  -2  -8 -22   27.83   13.58
  -2  -8 -22   39.37   16.37
   2  -8  22   38.37    7.24
  -2   8 -22   13.19   18.40
  -2   8 -22    9.04   14.03
  -7  -9  22   33.71    8.26
   7  -9 -22   34.05   10.76
  -7   9  22   25.52    8.14
   7   9 -22   21.52    8.00
   5  -9 -22   32.11    9.46
  -5  -9  22   29.87    7.06
  -5  -9  22   21.36    7.22
  -5   9  22   32.02    8.21
  -5   9  22   42.44    8.30
   5   9 -22   28.31    7.66
   3  -9 -22   16.35    8.45
   3  -9 -22   12.45    7.67
  -3  -9  22   16.60    7.10
  -3   9  22   16.03    7.95
   3   9 -22    7.44    6.68
  -1  -9  22   27.08    7.42
   1  -9 -22   22.19    6.33
   1  -9 -22   30.81   14.51
   1  -9 -22   22.69    6.69
   1  -9 -22   45.06    7.90
  -1   9  22   35.11    8.68
   1   9 -22   38.97    6.58
   1  -9  22   17.14    7.03
  -1  -9 -22    4.91   13.44
   1   9  22   10.78    8.15
  -1   9 -22    4.06   21.28
  -3   9 -22  -12.78   13.46
  -3   9 -22    6.43   18.67
  -6 -10  22   -1.20    6.97
   6 -10 -22   -2.00    9.14
  -6  10  22  -13.03    7.24
  -6  10  22    8.97    9.72
   6  10 -22   -7.07    7.16
  -4 -10  22   11.65    7.10
   4 -10 -22   25.95    8.83
  -4 -10  22   26.10    7.36
  -4  10  22   24.72    8.80
   4  10 -22   18.29    7.48
  -4  10  22   29.92    8.71
   2 -10 -22    5.07    7.45
   2 -10 -22   10.46    7.02
  -2 -10  22   11.33    7.05
  -2  10  22   21.54    8.26
   2  10 -22    7.68    6.22
   0 -10 -22   11.96   13.80
   0 -10  22   17.09    6.89
   0  10 -22   19.10    5.21
   0  10 -22  -25.13   22.94
   0  10  22   15.24    8.49
  -2 -10 -22   14.78   13.88
  -2 -10 -22   -2.71   17.92
   2 -10  22   15.38    7.02
  -2  10 -22   21.98   19.98
   2  10  22    5.90    8.67
   5 -11 -22    8.71    8.93
  -5 -11  22   10.94    7.27
  -5 -11  22   16.79    6.77
   5  11 -22    3.16    7.29
  -5  11  22   23.87    8.28
  -5  11  22   16.70    8.35
   3 -11 -22   84.96   10.37
  -3 -11  22   47.76    8.35
   3 -11 -22   49.50    9.24
  -3  11  22   59.82    9.69
   3  11 -22   64.27    8.51
   1 -11 -22   18.45    7.95
  -1 -11  22   17.24    7.75
   1 -11 -22   32.24   16.20
   1 -11 -22   28.16    6.74
   1  11 -22   36.47    6.62
  -1  11  22   34.38    9.33
   1 -11  22   19.74    7.45
  -1 -11 -22    8.13   14.27
   1  11  22   15.38    9.19
  -1  11 -22    7.79   19.87
  -3 -11 -22   54.55   15.33
  -3 -11 -22   20.43   19.49
  -3  11 -22   25.22   24.72
  -6 -12  22    5.41    7.74
   6 -12 -22   15.34   11.56
  -6  12  22   31.73    8.51
   6  12 -22   14.89    8.06
  -4 -12  22   -5.56    6.59
   4 -12 -22   18.96    8.83
  -4 -12  22    1.99    7.18
   4  12 -22   -3.90    7.06
  -4  12  22   -0.51    8.43
   2 -12 -22   55.47    9.46
   2 -12 -22   34.40    8.22
  -2 -12  22   30.52    8.09
   2  12 -22   26.35    7.26
  -2  12  22   47.34    9.83
   0 -12 -22   26.96   14.72
   0 -12  22   33.30    7.80
   0  12  22   34.10    9.80
   0  12 -22  -34.67   24.36
   0  12 -22   20.48    5.88
   2 -12  22   -2.68    7.41
  -2 -12 -22   10.27   14.26
   2  12  22   17.31    9.59
  -2  12 -22  -19.28   21.91
  -4  12 -22   -2.89   22.09
   5 -13 -22   15.02    9.75
  -5 -13  22   12.68    7.33
  -5 -13  22    4.85    7.67
   5  13 -22   23.08    8.26
  -5  13  22   30.51    8.88
  -5  13  22    3.35    8.20
   3 -13 -22  119.84   12.52
   3 -13 -22  108.69   12.36
  -3 -13  22  101.93   10.33
  -3  13  22  113.08   12.00
   3  13 -22  104.07   10.15
   1 -13 -22   21.54    8.16
   1 -13 -22   21.79    7.60
  -1 -13  22    7.40    7.76
  -1  13  22   19.73    9.61
   1  13 -22    9.37    6.30
  -1 -13 -22   41.59   16.25
   1 -13  22   45.45    8.82
   1  13  22   26.09   11.66
  -1  13 -22   17.04   22.59
   3 -13  22   24.46    7.96
  -3 -13 -22    2.88   14.31
  -3  13 -22    1.35   23.25
   6 -14 -22    7.64    9.96
  -6 -14  22    3.42    8.22
  -6  14  22   23.12    8.46
   6  14 -22   17.39    8.55
  -4 -14  22   11.63    7.40
   4 -14 -22    6.94   10.41
  -4  14  22   12.94    9.51
   4  14 -22    7.35    7.56
  -2 -14  22    3.94    7.36
   2 -14 -22   24.39    9.63
   2 -14 -22    7.97    8.04
   2  14 -22    1.24    6.58
  -2  14  22   14.27    9.92
   0 -14  22    0.51    7.54
   0 -14 -22    7.25   21.34
   0 -14 -22    3.30    7.73
   0  14  22    3.75   10.67
   2 -14  22   17.75    8.07
  -2 -14 -22    9.24   15.19
   2  14  22   10.80    9.94
  -2  14 -22   -4.41   26.33
  -4 -14 -22   11.32   16.09
  -4  14 -22  -35.88   21.35
   5 -15 -22    5.50    9.65
  -5 -15  22    7.21    8.17
  -5 -15  22   16.48    7.35
  -5  15  22   14.77   11.69
   5  15 -22    2.43    7.98
  -5  15  22    0.88    9.12
   3 -15 -22   67.47   11.91
   3 -15 -22   61.96   10.21
  -3 -15  22   64.26    9.30
  -3  15  22   58.45   12.18
   3  15 -22   48.67    8.57
   1 -15 -22    1.27    8.31
  -1 -15  22   -4.04    7.55
  -1  15  22   -4.24   10.41
   1  15 -22    3.24    6.54
  -1 -15 -22    0.37   15.06
   1 -15  22    9.33    8.00
   1  15  22   10.27   11.28
   3 -15  22    5.84    8.34
  -3 -15 -22   28.38   16.71
  -3  15 -22   17.63   25.31
  -4 -16  22   12.14    7.74
   4 -16 -22   17.58    9.54
   4  16 -22    5.04    7.86
  -4  16  22   13.56   10.12
   2 -16 -22    5.91    7.69
  -2 -16  22    0.44    7.69
   2 -16 -22    7.27    9.54
   2  16 -22   -4.20    6.61
  -2  16  22   -6.70   10.47
   0 -16  22    2.26    8.12
   0 -16 -22   -4.48    8.18
   0  16  22    7.66   11.80
   2 -16  22   -6.84    7.98
  -2 -16 -22    3.62   15.56
  -2  16 -22  -26.59   26.88
   2  16  22   -4.91   12.12
  -5 -17  22   23.94    9.34
   5 -17 -22    9.63   10.31
  -5  17  22    2.49    9.48
   5  17 -22   13.04    8.45
   3 -17 -22   24.03    9.22
  -3 -17  22   32.98    8.69
   3 -17 -22   55.41   12.10
   3  17 -22   20.63    7.80
  -3  17  22   17.73   11.27
  -1 -17  22   19.34    8.33
   1 -17 -22   19.29   10.19
  -1  17  22   12.14   12.86
   1 -17  22    8.66    8.10
   1  17  22    3.92   11.72
  -3 -17 -22   -8.08   16.35
   3 -17  22    2.46    8.13
  -4 -18  22   18.48    8.46
  -4  18  22   14.11   11.17
   4  18 -22   14.59    8.29
   2 -18 -22    5.37   10.14
  -2 -18  22   19.40    8.59
  -2  18  22    9.09   11.75
   2  18 -22   12.97    7.03
   0 -18  22    0.23    8.14
   2 -18  22   14.06    8.45
  -3 -19  22   32.49    9.48
   3  19 -22   25.85    8.08
  -3  19  22   14.97   11.30
   1 -19 -22   21.94   11.40
  -1 -19  22   29.50    9.35
  -1  19  22   35.55   13.37
   1 -19  22    7.48    8.32
   1  19  22   21.46   12.26
  -2 -20  22   18.30    9.30
   2 -20 -22   19.91   11.51
  -2  20  22   37.33   13.48
   2  20 -22   22.17    7.49
   0 -20 -22   -0.38   10.32
   0 -20  22   -3.75    8.15
  -1 -21  22   14.34    8.95
   1 -21 -22   20.45   11.74
  -1  21  22   15.77   14.27
  -6   0  23   -9.08    6.53
  -6   0  23   -6.27    6.59
   6   0 -23    3.21    7.46
   4   0 -23   -8.64    6.90
  -4   0  23    0.41    6.61
  -4   0  23   -1.58    7.07
   4   0 -23  -11.48    8.30
   0   0 -23  -76.77   41.15
   0   0  23   -4.12    6.73
  -2   0 -23  -58.52   29.00
  -7  -1  23    2.62    7.09
   7  -1 -23    0.94    7.77
  -7   1  23  -14.12    6.96
   7   1 -23   -9.76    7.27
   5  -1 -23    9.83    7.44
  -5  -1  23    3.40    7.03
  -5  -1  23   10.82    6.86
   5   1 -23    2.37    7.12
  -5   1  23    3.30    7.27
  -5   1  23   11.43    7.05
  -3  -1  23   13.39    7.21
   3  -1 -23    9.33    6.82
   3  -1 -23    6.16    7.60
   3   1 -23    9.97    6.81
  -3   1  23   15.35    7.23
  -1  -1  23  254.07   14.70
  -1   1  23  256.56   14.76
   1   1 -23  252.10   13.69
   1   1 -23  282.28   13.53
   1  -1  23   65.07    7.73
  -1  -1 -23    5.21   19.49
  -1  -1 -23  -54.18   35.54
  -1   1 -23   -3.86   31.65
  -1   1 -23   23.47   17.60
   1   1  23   64.59    8.03
  -6  -2  23   22.50    7.49
   6  -2 -23   14.48    7.98
  -6  -2  23   26.69    7.17
  -6   2  23   28.55    7.42
  -6   2  23   24.44    7.37
   6   2 -23   14.44    7.96
  -4  -2  23    4.42    6.62
  -4  -2  23    3.10    7.15
   4  -2 -23   -4.46    7.01
   4  -2 -23   -5.24    8.30
   4   2 -23    5.29    7.20
  -4   2  23    3.74    6.93
  -4   2  23    8.17    7.43
  -2  -2 -23  -21.15   15.81
  -2   2 -23   -5.34   14.53
  -7  -3  23   10.71    7.36
   7  -3 -23    9.30    8.45
  -7   3  23    7.97    7.27
   7   3 -23   11.51    7.90
  -5  -3  23    4.22    6.87
   5  -3 -23   14.19    7.54
  -5  -3  23    7.07    7.12
  -5   3  23   28.52    7.55
   5   3 -23    4.87    7.25
  -5   3  23   15.93    7.58
   3  -3 -23   62.13    9.09
   3  -3 -23   51.22    7.80
  -3  -3  23   53.98    8.44
   3   3 -23   36.42    7.48
  -3   3  23   55.63    8.56
  -6  -4  23   39.32    7.62
  -6  -4  23   37.20    7.59
   6  -4 -23   25.18    8.91
  -6   4  23   45.06    8.21
   6   4 -23   40.61    8.58
  -6   4  23   20.64    7.58
   4  -4 -23   20.64    8.03
  -4  -4  23   18.48    7.55
   4  -4 -23   14.02    8.66
  -4  -4  23   21.67    6.89
   4   4 -23    8.52    7.09
  -4   4  23   20.36    7.93
  -4   4  23   29.13    7.53
  -7  -5  23   -5.28    6.84
   7  -5 -23   -0.81    8.53
   7   5 -23    1.95    7.68
  -7   5  23   10.70    7.28
  -5  -5  23   28.50    7.56
  -5  -5  23   24.65    7.37
   5  -5 -23   43.05    8.88
  -5   5  23   30.09    7.79
  -5   5  23   24.76    7.87
   5   5 -23   28.02    7.94
   3  -5 -23   -6.09    7.58
   3  -5 -23    4.22    6.77
  -3  -5  23   -2.53    7.06
  -3   5  23    5.71    7.61
   3   5 -23    2.10    6.62
   1  -5 -23  126.00    9.70
  -1  -5  23  150.97   11.11
   1  -5 -23  156.06   10.73
   1  -5 -23  137.15    9.59
  -1   5  23  139.42   11.42
   1   5 -23  114.69    9.81
   1   5 -23  150.01    9.69
   1  -5  23  153.32   11.54
  -1  -5 -23  152.93   28.22
  -1   5 -23  161.99   22.75
   1   5  23  149.68   11.45
  -6  -6  23    9.27    7.04
  -6  -6  23   19.17    7.50
   6  -6 -23   22.95    9.60
   6   6 -23   20.47    8.15
  -6   6  23   24.04    7.82
  -6   6  23   34.38    7.99
  -4  -6  23   43.55    8.15
   4  -6 -23   49.58    9.85
   4  -6 -23   47.00    9.16
  -4  -6  23   39.33    7.87
  -4   6  23   50.32    8.77
  -4   6  23   43.86    8.37
   4   6 -23   47.09    8.04
  -2  -6  23   21.62    7.37
   2  -6 -23   14.44    6.74
   2  -6 -23   32.69    8.07
   2   6 -23   27.57    6.61
  -2   6  23   31.49    8.28
  -7  -7  23   34.00    8.10
   7  -7 -23   48.18   11.44
  -7   7  23   46.33    8.65
   7   7 -23   46.32    9.17
  -5  -7  23   -1.39    6.80
   5  -7 -23   11.00    8.41
  -5  -7  23    9.58    6.83
  -5   7  23    8.67    7.77
  -5   7  23   11.74    7.61
   5   7 -23    4.19    6.88
   3  -7 -23  103.06   10.61
   3  -7 -23   86.58    9.58
  -3  -7  23   75.77    9.10
   3   7 -23   74.68    8.74
  -3   7  23   96.64   10.14
   1  -7 -23   75.16    7.33
  -1  -7  23   94.72    9.18
   1  -7 -23  105.89    9.20
   1  -7 -23   85.08    8.15
   1  -7 -23   78.89   16.78
   1   7 -23   69.94    7.79
   1   7 -23   86.30    8.98
  -1   7  23  101.86   10.02
  -3  -7 -23   10.25   11.99
  -3   7 -23   -3.03   19.01
   6  -8 -23   15.97    9.52
  -6  -8  23   12.63    7.32
   6   8 -23   12.41    7.63
  -6   8  23   19.62    7.73
  -6   8  23   25.15    7.91
  -4  -8  23   47.95    8.00
   4  -8 -23   45.57    9.41
   4  -8 -23   68.64   11.51
  -4  -8  23   44.91    8.12
  -4   8  23   45.50    8.92
   4   8 -23   49.37    8.20
  -2  -8  23   26.89    7.48
   2  -8 -23   33.86    7.38
   2  -8 -23   51.59    8.58
   2   8 -23   35.86    7.03
  -2   8  23   26.70    8.42
   0  -8 -23   82.59   16.78
   0  -8  23   76.87    8.76
   0   8  23   78.09    9.35
  -2  -8 -23   25.90   16.00
  -2  -8 -23   19.32   13.56
  -2   8 -23   -2.10   14.07
  -2   8 -23   11.70   20.22
   2   8  23    7.04    8.44
   7  -9 -23   19.05   10.45
   7   9 -23   10.93    8.45
  -5  -9  23   75.25    9.19
   5  -9 -23   82.95   11.23
  -5  -9  23   65.04    8.79
  -5   9  23   93.55   10.04
  -5   9  23   84.03    9.90
   5   9 -23   81.18    9.56
   3  -9 -23   17.97    8.15
   3  -9 -23   27.82    9.22
  -3  -9  23   20.47    7.36
   3   9 -23    8.96    6.78
  -3   9  23   31.16    8.79
  -1  -9  23   15.99    7.29
   1  -9 -23    8.35    6.24
   1  -9 -23   -2.51    7.55
   1  -9 -23   14.22   14.33
  -1   9  23   23.24    8.52
   1   9 -23   14.31    6.00
  -1  -9 -23   89.20   17.75
   1  -9  23  107.41    9.71
   1   9  23  104.98   11.20
  -3  -9 -23   -7.95   13.09
  -3   9 -23    2.51   19.66
  -3   9 -23  -11.53   14.06
   6 -10 -23    1.12    9.48
  -6 -10  23    7.46    7.07
  -6  10  23    5.42   10.65
   6  10 -23    7.72    8.04
  -6  10  23   17.22    8.01
  -4 -10  23   16.76    7.41
   4 -10 -23   14.11    9.20
  -4  10  23   16.52    8.69
   4  10 -23   20.21    7.59
  -2 -10  23   19.70    7.52
   2 -10 -23   30.38    8.81
   2 -10 -23   22.23    7.69
  -2  10  23   28.59    9.39
   2  10 -23   12.20    6.66
   0 -10  23   -5.68    6.86
   0 -10 -23   13.71   13.37
   0  10  23   -0.15    8.45
   0  10 -23   -2.06    5.00
   0  10 -23  -34.47   22.92
  -2 -10 -23    5.14   13.83
   2 -10  23   18.65    7.26
  -2  10 -23    1.87   19.22
  -5 -11  23   17.30    6.88
   5 -11 -23   23.22   11.01
  -5 -11  23   14.90    7.44
  -5  11  23   16.21    8.74
   5  11 -23   13.96    7.69
  -5  11  23   25.23    8.54
   3 -11 -23   44.61    9.28
   3 -11 -23   62.77   10.59
  -3 -11  23   33.08    8.17
  -3  11  23   53.03    9.87
   3  11 -23   37.93    7.90
  -1 -11  23   13.99    7.55
   1 -11 -23   25.72    8.18
   1 -11 -23   20.16    7.81
   1  11 -23   27.24    6.63
  -1  11  23   17.27    9.32
   1 -11  23    4.65    7.05
  -1 -11 -23    2.92   14.08
  -1  11 -23    0.71   22.41
   1  11  23   13.12    9.31
  -3 -11 -23   14.18   14.21
  -3  11 -23    1.82   20.62
  -6 -12  23    8.17    7.67
   6 -12 -23    7.55   10.29
   6  12 -23   -1.39    7.82
  -6  12  23   14.13    8.29
  -4 -12  23   15.96    7.15
   4 -12 -23   21.79    9.10
   4  12 -23   22.75    7.78
  -4  12  23   12.71    9.24
  -2 -12  23    3.25    7.45
   2 -12 -23    2.29    8.53
   2 -12 -23   -9.32    7.00
   2  12 -23   -5.90    6.29
  -2  12  23    4.06    8.73
   0 -12 -23   96.85   18.85
   0 -12  23  102.62   10.24
   0  12  23   92.37   11.77
   2 -12  23   21.42    8.22
  -2 -12 -23    7.55   14.60
   2  12  23    4.62   10.00
  -2  12 -23   -1.41   21.72
  -4  12 -23  -21.32   21.23
  -5 -13  23   51.53    8.47
  -5 -13  23   54.01    8.87
   5 -13 -23   53.93   11.39
  -5  13  23   45.08   14.27
   5  13 -23   35.03    8.87
  -5  13  23   69.84   10.30
   3 -13 -23    3.56    9.69
   3 -13 -23   20.75    8.39
  -3 -13  23    5.77    7.44
  -3  13  23   -1.25    9.16
   3  13 -23   13.66    7.36
   1 -13 -23   43.77    9.52
  -1 -13  23   45.86    8.75
  -1  13  23   47.66   11.34
   1  13 -23   36.86    7.12
  -1 -13 -23   12.60   14.95
   1 -13  23   11.31    8.05
  -1  13 -23   17.86   23.61
   1  13  23   18.91   10.93
  -3 -13 -23   -3.20   14.73
  -3  13 -23  -24.67   22.92
   4 -14 -23    3.89    9.04
  -4 -14  23    2.11    7.49
   4  14 -23    2.25    7.46
  -4  14  23   -7.04    9.29
   2 -14 -23  136.60   13.21
  -2 -14  23   94.15   10.49
   2 -14 -23  130.71   11.84
   2  14 -23  107.72    9.91
  -2  14  23  134.15   13.98
   0 -14  23    8.25    7.83
   0  14  23   -3.03   10.38
  -2 -14 -23   88.50   19.07
   2 -14  23   96.13   10.74
   2  14  23  107.00   13.65
  -4 -14 -23    5.64   15.46
   5 -15 -23   14.29   10.07
  -5 -15  23   23.19    8.07
  -5 -15  23   19.02    8.59
   5  15 -23    4.23    8.15
  -5  15  23   26.66    9.99
   3 -15 -23  124.92   13.25
   3 -15 -23   79.84   10.63
  -3 -15  23   59.33    9.70
  -3  15  23  108.32   12.65
   3  15 -23   66.43    9.22
  -1 -15  23    8.02    7.84
   1 -15 -23   30.79    9.48
  -1  15  23   -4.67   10.78
   1 -15  23   10.11    8.04
  -1 -15 -23   12.58   16.30
   1  15  23   12.71   12.35
   3 -15  23    7.66    8.52
  -3 -15 -23   18.38   16.15
   4 -16 -23   58.80   11.76
  -4 -16  23   28.43    8.46
  -4  16  23   43.78   11.22
   4  16 -23   35.31    8.67
   2 -16 -23    3.97    9.74
  -2 -16  23   -8.67    7.77
   2 -16 -23    2.63   10.46
  -2  16  23    4.25   11.10
   2  16 -23   13.22    7.32
   0 -16  23   25.49    8.80
   0  16  23   10.84   13.05
   2 -16  23    3.94    8.25
  -2 -16 -23    5.16   16.68
   2  16  23   10.36   12.39
   3 -17 -23   27.06   11.76
  -3 -17  23   13.19    8.32
   3 -17 -23   40.53   11.42
  -3  17  23   52.41   12.40
   3  17 -23   37.05    8.51
   1 -17 -23   -0.74    8.80
  -1 -17  23    8.20    8.44
  -1  17  23    0.22   11.43
   1 -17  23   14.19    8.62
   1  17  23   -0.19   13.29
   4 -18 -23    4.89    9.81
  -4 -18  23    7.65    8.36
   4  18 -23    1.63    8.33
  -4  18  23    3.24   11.20
   2 -18 -23   28.31   10.97
  -2 -18  23   26.38    9.05
   2  18 -23   33.02    7.70
  -2  18  23   24.12   13.27
   0 -18  23   49.60    9.82
   0  18  23   31.02   12.76
   2 -18  23   39.46    9.84
  -3 -19  23   -1.21    8.53
   3 -19 -23   12.90    9.40
   3  19 -23    2.65    7.40
  -3  19  23   18.03   13.34
  -1 -19  23   20.03    9.02
   1 -19 -23   17.64   12.05
  -1  19  23   45.64   13.78
   1 -19  23   17.10    8.73
   1  19  23   14.18   12.31
  -2 -20  23    7.92    8.61
  -2  20  23   -9.57   12.24
   0 -20  23   23.80    9.27
   0  20  23   15.40   14.32
   6   0 -24   -0.45    7.79
  -6   0  24   10.18    7.26
  -6   0  24    5.20    7.10
  -4   0  24   45.58    8.51
   4   0 -24   60.01    9.59
   4   0 -24   49.79    8.68
  -4   0  24   47.96    8.25
   2   0 -24   29.93    6.75
  -2   0  24   35.93    7.71
   0   0  24   17.97    7.22
   0   0 -24   17.50   41.71
  -2   0 -24  -46.61   30.57
  -2   0 -24  -14.77   18.52
   7  -1 -24    9.80    8.30
  -7  -1  24   -5.31    6.96
   7   1 -24   -6.79    7.81
  -7   1  24   -0.21    7.38
  -5  -1  24   24.62    7.68
  -5  -1  24   18.26    7.32
   5  -1 -24   20.36    8.01
  -5   1  24   20.40    8.13
   5   1 -24   26.17    8.30
  -5   1  24   22.29    7.68
  -3  -1  24   33.88    7.91
   3  -1 -24   28.67    7.62
  -3   1  24   35.30    7.92
   3   1 -24   30.80    7.39
  -1  -1 -24  -36.13   19.82
  -1  -1 -24   60.60   39.03
  -1   1 -24  -55.10   32.03
  -1   1 -24    9.28   17.45
  -6  -2  24   37.44    7.95
   6  -2 -24   28.54    8.80
  -6  -2  24   44.98    8.20
   6   2 -24   40.14    8.88
  -6   2  24   36.53    8.01
  -6   2  24   48.43    8.08
  -4  -2  24   30.26    7.92
  -4  -2  24   27.77    7.55
   4  -2 -24   17.08    7.70
   4  -2 -24   18.78    8.78
   4   2 -24    9.06    7.59
  -4   2  24   22.56    7.90
  -4   2  24    1.36    8.17
  -2  -2  24  209.93   13.18
   2  -2 -24  190.69   12.25
  -2   2  24  209.67   13.18
   2   2 -24  200.80   12.27
  -2  -2 -24  -60.66   32.05
  -2  -2 -24  -31.40   17.06
  -2   2 -24  -30.02   23.35
  -2   2 -24   -9.77   14.39
   7  -3 -24   13.80    8.65
  -7  -3  24    1.50    7.07
  -7   3  24    2.69    7.28
   7   3 -24   13.73    8.62
  -5  -3  24   -4.37    7.24
   5  -3 -24   22.95    8.01
  -5  -3  24    2.03    7.09
   5   3 -24  -10.36    7.24
  -5   3  24   -8.08    7.18
  -5   3  24  -11.92    7.18
  -3  -3  24   56.68    8.72
   3  -3 -24   60.63    9.13
   3  -3 -24   62.11    8.41
   3   3 -24   63.11    8.18
  -3   3  24   67.03    8.99
  -6  -4  24    4.38    6.88
  -6  -4  24   11.76    7.06
   6  -4 -24   21.82    8.91
  -6   4  24    9.68    7.60
  -6   4  24   13.60    7.47
   6   4 -24    3.21    7.95
   4  -4 -24   33.80    8.32
  -4  -4  24   25.59    8.79
  -4  -4  24   28.29    7.92
   4  -4 -24   41.36    9.27
  -4   4  24   31.14    8.41
   4   4 -24   27.84    7.81
   2  -4 -24   44.83    8.38
  -2  -4  24   38.61    8.24
   2  -4 -24   44.65    7.19
  -2   4  24   49.34    8.61
   2   4 -24   48.08    7.06
  -7  -5  24   17.27    7.57
   7  -5 -24   21.54    9.33
  -7   5  24   12.35    7.44
   7   5 -24   14.20    8.60
  -5  -5  24   59.08    8.70
   5  -5 -24   58.78    9.78
  -5  -5  24   42.25    8.17
  -5   5  24   57.76    8.81
  -5   5  24   53.66    8.91
   5   5 -24   57.77    8.94
   3  -5 -24   10.20    8.30
   3  -5 -24   16.08    7.19
  -3  -5  24   -7.12    7.14
   3   5 -24    8.22    6.69
  -3   5  24   -3.56    7.61
  -3   5 -24   -3.92   19.77
  -6  -6  24   12.87    7.26
  -6  -6  24    6.97    7.37
   6  -6 -24   -1.35    9.17
  -6   6  24   23.70    7.92
  -6   6  24   12.31    7.75
   6   6 -24   -0.84    7.55
   4  -6 -24   14.46    8.25
  -4  -6  24   -4.49    7.06
   4  -6 -24   10.22    9.04
  -4   6  24    8.59    7.74
   4   6 -24   14.24    7.29
  -2  -6  24   48.08    8.37
   2  -6 -24   60.25    8.61
   2  -6 -24   52.50    7.76
   2   6 -24   46.02    7.19
  -2   6  24   62.98    9.05
   7  -7 -24   -3.33    9.11
  -7  -7  24    5.75    7.34
  -7   7  24    1.16    7.61
   7   7 -24    8.33    7.87
  -5  -7  24   25.10    7.54
  -5  -7  24   26.17    7.50
   5  -7 -24   34.82    9.31
  -5   7  24   17.56    8.24
  -5   7  24   18.81    8.09
   5   7 -24   26.80    8.01
   3  -7 -24   25.31    8.75
  -3  -7  24    7.09    7.33
   3  -7 -24   23.44    7.68
  -3   7  24    9.90    8.28
   3   7 -24   17.35    7.02
   1  -7 -24   43.94    8.35
  -1  -7  24   60.50    8.53
   1  -7 -24   62.35    8.40
   1  -7 -24   54.07   15.66
  -1   7  24   67.74    9.36
   1   7 -24   57.20    7.14
  -3  -7 -24   33.07   18.17
  -3   7 -24   12.69   18.17
  -3   7 -24   12.17   14.77
   6  -8 -24   36.80   11.22
  -6  -8  24   41.41    7.95
  -6   8  24   35.98    8.61
   6   8 -24   18.19    7.98
  -6   8  24   32.76    8.81
   4  -8 -24   -6.66   11.20
  -4  -8  24   12.67    7.53
   4  -8 -24   11.88    8.66
  -4   8  24   13.36    8.36
   4   8 -24   10.42    7.32
   2  -8 -24   34.36    8.56
  -2  -8  24   21.87    7.58
   2  -8 -24   25.94    7.54
   2   8 -24   15.37    6.62
  -2   8  24   40.59    8.75
   0  -8  24   -2.72    6.92
   0  -8 -24    0.22   13.27
   0   8  24    1.89    7.73
   2  -8  24   18.48    7.13
  -2  -8 -24   14.09   13.75
  -2  -8 -24   20.77   18.68
  -2   8 -24    3.61   18.48
   2   8  24   10.05    9.54
  -5  -9  24   47.15    8.08
  -5  -9  24   49.86    8.46
   5  -9 -24   56.32   10.32
   5   9 -24   65.40    9.17
  -5   9  24   59.90    9.63
  -5   9  24   52.88    9.44
   3  -9 -24    0.95    7.47
  -3  -9  24    8.07    7.47
   3  -9 -24   15.14    9.02
   3   9 -24   -4.30    6.65
  -3   9  24   12.98    8.54
   1  -9 -24  121.28   10.32
   1  -9 -24   95.40   22.27
  -1  -9  24   99.58   10.11
   1   9 -24  104.63    9.61
  -1   9  24  110.69   11.19
  -1  -9 -24    4.20   13.95
   1  -9  24   14.42    7.39
  -1   9 -24  -19.65   21.53
   1   9  24   15.92    8.88
  -3  -9 -24   12.03   17.62
  -3  -9 -24    8.13   14.04
  -3   9 -24   -1.63   19.07
   6 -10 -24   38.22   11.01
  -6 -10  24   33.33    8.35
   6  10 -24   34.09    8.92
  -6  10  24   62.18    9.33
  -6  10  24   40.93   11.60
   4 -10 -24   15.47    9.35
  -4 -10  24   13.63    7.62
   4  10 -24   19.11    7.50
  -4  10  24    8.67    9.01
   2 -10 -24   18.76    8.97
  -2 -10  24    6.58    7.48
   2 -10 -24   21.01    7.43
  -2  10  24   17.94    9.31
   2  10 -24   17.21    6.79
   0 -10 -24  -13.40   13.77
   0 -10  24   -2.19    7.17
   0  10  24   -8.41    8.71
  -2 -10 -24   44.58   15.35
   2 -10  24   30.82    7.86
  -2  10 -24   13.70   21.62
  -5 -11  24    0.26    7.35
   5 -11 -24   12.57   11.03
  -5 -11  24    8.58    6.95
   5  11 -24    2.07    7.46
  -5  11  24   11.63    8.50
   3 -11 -24   62.58   10.66
   3 -11 -24   65.02   10.52
  -3 -11  24   39.96    8.59
  -3  11  24   46.72   10.20
   3  11 -24   55.63    8.44
  -1 -11  24   -1.52    7.46
   1 -11 -24   -3.27    7.69
   1  11 -24   -0.27    7.37
  -1  11  24   10.24    9.67
   1 -11  24    6.37    7.26
  -1 -11 -24   -3.35   14.14
  -1  11 -24  -12.07   19.14
   1  11  24   -1.23    9.44
  -3 -11 -24    4.19   14.23
  -3  11 -24  -19.04   20.43
  -6 -12  24   -9.23    7.31
   6 -12 -24    3.75   10.03
  -6  12  24   -2.23    8.34
   6  12 -24   -5.96    7.92
   4 -12 -24   39.28   10.39
  -4 -12  24   29.32    8.19
  -4  12  24   47.12   10.31
   4  12 -24   33.47    8.20
   2 -12 -24    0.05    7.32
  -2 -12  24   -4.76    7.47
   2 -12 -24    9.69    9.24
  -2  12  24    2.76    9.86
   2  12 -24   -1.85    6.58
   0 -12  24   -0.37    7.59
   0 -12 -24    1.75   14.30
   0  12  24   10.64   10.03
   2 -12  24   -6.42    7.92
  -2 -12 -24    2.93   14.14
   2  12  24    4.63   10.25
  -2  12 -24   -6.52   22.93
  -4  12 -24  -12.19   24.25
   5 -13 -24   21.81   10.24
  -5 -13  24   13.04    7.38
  -5 -13  24   19.19   11.60
  -5  13  24   27.71    9.57
   5  13 -24   27.47    8.71
   3 -13 -24   31.05    9.90
  -3 -13  24   24.43    8.38
   3 -13 -24   35.29   10.53
  -3  13  24   34.86   10.79
   3  13 -24   28.20    7.72
  -1 -13  24    4.17    7.95
   1 -13 -24   15.56    8.41
  -1  13  24   10.15   10.17
  -1 -13 -24   29.78   16.48
   1 -13  24   38.79    8.86
  -1  13 -24  -15.63   24.27
   1  13  24   29.31   11.17
  -3 -13 -24   18.71   15.41
   3 -13  24   38.84    8.78
  -3  13 -24  -29.37   22.12
  -4 -14  24   -3.31    7.33
   4 -14 -24    3.94    8.72
  -4  14  24   -0.41    9.78
   4  14 -24    1.79    7.62
  -2 -14  24   13.25    8.16
   2 -14 -24    7.76    7.92
   2 -14 -24   19.22    9.94
  -2  14  24    7.34   10.33
   2  14 -24    7.83    6.50
   0 -14  24   20.38    8.76
   0  14  24   41.04   12.23
  -2 -14 -24   11.18   16.11
   2 -14  24   25.98    8.61
   2  14  24   17.11   11.42
  -2  14 -24  -30.82   22.82
  -5 -15  24    7.42    7.46
  -5  15  24    7.25   10.26
   5  15 -24   10.24    8.26
   3 -15 -24   14.37    9.48
  -3 -15  24   26.54    8.30
   3 -15 -24   23.98   11.65
  -3  15  24   23.70   10.98
   3  15 -24   16.12    7.44
  -1 -15  24   21.03    8.60
   1 -15 -24   12.23    9.47
  -1  15  24   12.86   10.62
   1 -15  24   36.72    9.08
   1  15  24   49.11   11.87
   3 -15  24   31.80    9.27
  -3 -15 -24   30.73   16.98
  -4 -16  24   14.49    8.36
  -4  16  24   32.30   11.37
   4  16 -24   14.20    8.24
  -2 -16  24    2.82    8.18
   2 -16 -24   11.29    9.85
   2  16 -24   -2.59    6.79
  -2  16  24    5.41   11.21
   0 -16  24    9.50    8.53
   0  16  24   -1.40   11.36
   2 -16  24   -5.11    8.50
  -2 -16 -24    5.31   16.18
   2  16  24    3.16   12.33
   3 -17 -24   -1.59    8.55
  -3 -17  24   -2.72    7.97
   3 -17 -24    7.38   11.07
   3  17 -24   21.78    7.92
  -3  17  24    7.86   11.33
   1 -17 -24   11.27    9.86
  -1 -17  24   14.44    8.67
  -1  17  24   11.70   12.71
   1 -17  24    4.22    8.56
  -2 -18  24    7.61    8.74
   2 -18 -24   11.46   10.40
  -2  18  24   11.79   12.53
   0 -18  24    6.76    8.62
   0  18  24    5.35   11.95
  -1 -19  24   12.77    9.13
   1 -19 -24    9.27   10.50
  -1  19  24   34.79   14.44
   6   0 -25    1.84    8.23
  -6   0  25  -10.93    6.99
  -6   0  25   -4.97    7.04
   4   0 -25   -7.25    7.40
  -4   0  25   10.47    7.76
   2   0 -25   -1.40    5.92
  -2   0  25    2.85    7.23
   0   0  25    5.47    6.93
  -7  -1  25    6.61    7.34
   7  -1 -25    1.23    8.76
   7   1 -25    0.84    8.48
  -7   1  25    8.57    7.67
  -5  -1  25   34.94    7.96
  -5  -1  25   32.04    8.09
   5  -1 -25   30.18    8.53
   5   1 -25   23.31    8.51
  -5   1  25   15.03    7.78
  -5   1  25   27.43    8.29
   3  -1 -25   49.96    8.20
  -3  -1  25   58.12    8.71
  -3   1  25   55.13    8.71
   3   1 -25   50.65    7.83
   1  -1  25   38.58    7.67
   1   1  25   43.74    7.97
  -1   1 -25   12.46   23.74
   6  -2 -25   15.69    8.41
  -6  -2  25    4.27    7.15
  -6  -2  25    4.38    7.42
   6   2 -25    6.68    8.08
  -6   2  25    1.93    7.22
  -6   2  25   -3.75    7.06
   4  -2 -25   53.27    8.97
  -4  -2  25   53.38    8.68
   4  -2 -25   44.79    9.94
  -4   2  25   44.86    8.74
   4   2 -25   35.97    8.26
   2  -2 -25   10.64    6.54
  -2  -2  25   13.20    7.32
   2   2 -25   -2.00    6.09
  -2   2  25    7.68    7.48
  -2  -2 -25  -14.26   31.94
  -2   2 -25  -41.75   24.25
  -2   2 -25  -18.55   14.27
   7  -3 -25   12.99    9.10
  -7  -3  25    9.72    7.30
  -7   3  25   14.77    7.55
   7   3 -25   16.42    9.15
   5  -3 -25   27.49    8.74
  -5  -3  25   26.36    7.96
  -5  -3  25   24.74    8.07
  -5   3  25   32.36    8.46
  -5   3  25   26.03    8.33
   5   3 -25   15.76    8.01
   3  -3 -25    4.90    6.95
   3  -3 -25    7.53    8.23
  -3  -3  25   17.79    7.85
  -3   3  25   14.53    7.94
   3   3 -25   25.73    7.35
  -6  -4  25   10.60    7.27
   6  -4 -25   -0.82    8.14
  -6  -4  25   22.64    7.38
   6   4 -25    5.78    8.25
  -6   4  25   -2.21    7.50
  -6   4  25   -4.07    7.33
   4  -4 -25    8.54    9.74
  -4  -4  25   16.04    7.88
   4  -4 -25   17.38    8.15
   4   4 -25    8.73    7.35
  -4   4  25    3.66    8.01
  -2  -4  25   69.26    9.12
   2  -4 -25   55.00    7.98
   2  -4 -25   73.85    9.14
  -2   4  25   84.19    9.68
   2   4 -25   68.54    7.95
   7  -5 -25   -4.92    8.85
   7   5 -25    0.34    8.42
   5  -5 -25    4.09    8.36
  -5  -5  25    1.26    7.41
  -5  -5  25    3.28    7.50
  -5   5  25    0.63    7.67
  -5   5  25   -5.13    7.71
   5   5 -25    6.39    7.82
   3  -5 -25    0.34    8.81
   3  -5 -25    0.60    7.23
  -3  -5  25   14.72    7.68
  -3   5  25    1.20    7.91
   3   5 -25   23.64    7.02
  -3   5 -25  -20.00   19.29
  -3   5 -25   14.38   14.30
  -6  -6  25   22.76    7.78
  -6  -6  25   21.02    8.30
   6  -6 -25   23.63    9.48
  -6   6  25   23.85    8.20
   6   6 -25   12.20    7.99
  -6   6  25   17.83    8.15
   4  -6 -25   53.57    9.30
  -4  -6  25   42.21    8.52
   4  -6 -25   36.70   10.11
  -4   6  25   44.60    9.11
   4   6 -25   38.19    8.40
   2  -6 -25   18.89    8.43
  -2  -6  25   17.83    7.91
   2  -6 -25    5.93    6.54
   2   6 -25   17.72    6.50
  -2   6  25   29.22    8.65
  -5  -7  25   15.20    7.59
  -5  -7  25   15.30    7.69
   5  -7 -25   25.45    9.46
   5   7 -25   12.67    7.81
  -5   7  25    4.93    8.23
  -5   7  25   -1.01   11.71
   3  -7 -25   29.62    9.20
  -3  -7  25   25.40    8.05
   3  -7 -25   41.85    8.21
  -3   7  25   43.66    9.34
   3   7 -25   35.51    7.61
  -1  -7  25   31.60    8.05
   1  -7 -25   33.50   15.57
   1  -7 -25   46.86    8.11
  -1   7  25   33.74    8.59
   1   7 -25    9.54    8.60
  -3  -7 -25   55.90   14.99
  -3  -7 -25   52.63   20.07
  -3   7 -25   32.56   16.92
  -3   7 -25    5.88   19.09
   6  -8 -25   17.93    9.92
  -6  -8  25    2.25    7.08
  -6   8  25   10.97    8.17
  -6   8  25   16.13    8.32
   6   8 -25    3.96    8.34
  -4  -8  25   38.83    8.38
   4  -8 -25   52.00   13.09
   4  -8 -25   42.41    9.58
  -4   8  25   36.01    9.16
   4   8 -25   38.14    8.36
  -2  -8  25   15.76    7.71
   2  -8 -25   18.55    8.65
   2  -8 -25   13.71    6.86
   2   8 -25   10.15    6.42
  -2   8  25   28.53    8.85
   0  -8  25   76.15    8.90
   0  -8 -25   69.31   17.18
   0   8  25   61.10   10.32
  -2  -8 -25    8.55   13.53
  -2   8 -25  -14.41   20.07
   5  -9 -25    7.08    9.90
  -5  -9  25    5.21    8.19
  -5  -9  25   10.89    7.06
   5   9 -25    8.77    7.76
  -5   9  25   -5.07    8.11
   3  -9 -25   -7.99    7.63
  -3  -9  25   -1.92    7.64
   3  -9 -25  -14.95    8.92
  -3   9  25    8.54    8.89
   3   9 -25   -1.12    6.91
   1  -9 -25   20.67    7.94
  -1  -9  25    8.93    7.58
  -1   9  25   14.65    9.03
  -1  -9 -25   -0.36   14.38
   1  -9  25    3.79    7.42
  -1   9 -25  -21.63   21.68
   1   9  25   12.42    9.93
  -3  -9 -25   12.96   14.31
  -3   9 -25   -4.89   21.84
  -6 -10  25    2.38    7.55
   6 -10 -25    6.71    9.87
   6  10 -25    6.86    8.09
  -6  10  25   -1.96    8.15
  -4 -10  25   11.20    7.72
   4 -10 -25   17.29    9.66
   4  10 -25   17.43    7.65
  -4  10  25    6.20    9.08
   2 -10 -25   11.50    8.71
   2 -10 -25    1.92    6.94
  -2 -10  25   17.42    7.71
  -2  10  25    6.82    8.82
   2  10 -25    6.85    6.31
   0 -10 -25   37.35   16.67
   0 -10  25   48.93    8.57
   0  10  25   56.42   11.20
  -2 -10 -25    0.83   14.04
   2 -10  25    1.26    7.18
  -2  10 -25   -6.20   18.10
   2  10  25   19.34   11.77
  -5 -11  25    6.85    7.05
   5 -11 -25    9.56   10.27
  -5  11  25   21.02    8.96
   5  11 -25    7.30    7.79
  -3 -11  25   35.21    8.77
   3 -11 -25   49.83    9.40
   3 -11 -25   77.64   11.44
   3  11 -25   53.90    8.44
  -3  11  25   60.08   10.74
   1 -11 -25   -2.11    8.03
  -1 -11  25   11.47    7.82
  -1  11  25   14.71    9.95
   1 -11  25    6.08    7.52
  -1 -11 -25    9.69   15.05
  -1  11 -25  -30.96   19.82
   1  11  25   16.87   11.07
   3 -11  25   16.27    8.28
  -3 -11 -25   12.93   14.57
  -3  11 -25    2.93   20.24
  -4 -12  25   29.65    8.29
   4 -12 -25   25.51    9.91
   4  12 -25   32.20    8.38
  -4  12  25   13.77   10.28
   2 -12 -25    0.93    9.18
  -2 -12  25   -0.45    7.67
   2 -12 -25   -3.74    8.62
  -2  12  25   -1.80    9.92
   2  12 -25    6.17    6.56
   0 -12  25   19.99    8.21
   0  12  25   35.60   11.53
   2 -12  25    7.51    8.35
  -2 -12 -25    0.90   14.53
  -2  12 -25  -23.40   21.43
   2  12  25    0.90   10.18
   5 -13 -25   69.12   12.38
  -5 -13  25   61.77    9.11
   5  13 -25   60.03    9.85
  -5  13  25   79.27   11.79
  -3 -13  25    5.95    8.08
   3 -13 -25   24.32    8.42
   3 -13 -25    2.31   10.21
   3  13 -25    6.01    7.10
  -3  13  25   -0.21   10.02
  -1 -13  25   25.02    8.77
   1 -13 -25   47.00    9.52
  -1  13  25   41.56   11.55
   1 -13  25   36.65    9.18
  -1 -13 -25   33.39   16.55
   1  13  25   32.85   10.64
  -3 -13 -25  -12.79   14.67
  -3  13 -25  -43.94   22.42
  -4 -14  25   17.92    8.01
   4 -14 -25   12.59    9.51
   4  14 -25   -0.52    7.77
  -4  14  25   20.53   10.72
   2 -14 -25  110.97   12.20
  -2 -14  25   78.88   10.65
   2  14 -25   95.59    9.26
  -2  14  25  126.94   14.07
   0 -14  25    5.27    8.61
   0  14  25   13.12   11.07
  -2 -14 -25   38.95   17.16
   2 -14  25   42.49    9.25
  -2  14 -25  -41.69   22.45
   3 -15 -25   22.03    8.66
   3 -15 -25   11.65   10.65
  -3 -15  25    7.44    7.94
   3  15 -25   27.60    7.74
  -3  15  25   16.44   11.26
   1 -15 -25   34.98   10.58
  -1 -15  25   24.71    8.82
  -1  15  25   30.32   13.77
   1 -15  25    9.74    8.22
   1  15  25   22.75   13.47
  -4 -16  25   91.56   10.78
  -4  16  25  120.60   14.18
   4  16 -25   85.75   10.70
  -2 -16  25   10.28    8.78
   2 -16 -25    7.36   10.12
  -2  16  25    7.90   12.10
   0 -16  25  167.46   14.14
   0  16  25  158.17   16.73
  -2 -16 -25   10.04   18.97
   2 -16  25   -1.22    8.72
   3 -17 -25   20.53   11.55
  -3 -17  25    8.20    8.36
  -3  17  25   11.79   11.76
   3  17 -25   11.75    7.81
  -1 -17  25   15.26    9.02
   1 -17 -25  -12.56    9.93
  -1  17  25   11.99   15.23
   1 -17  25    1.95    8.89
  -2 -18  25   15.37    9.05
   2 -18 -25   19.29   13.86
  -2  18  25   18.58   13.46
   0 -18  25   -0.69    8.60
  -6   0  26   22.32    7.88
   6   0 -26   18.37    9.06
  -6   0  26   19.33    7.88
  -4   0  26   69.55    9.63
   4   0 -26   67.08    9.40
   2   0 -26   55.47    7.60
  -2   0  26   50.71    8.66
   0   0  26   48.12    8.29
  -2   0 -26  -32.06   31.93
   5  -1 -26   13.12    8.14
  -5  -1  26   22.39   12.45
  -5  -1  26    1.91    7.58
  -5   1  26    3.97    7.94
   5   1 -26    0.18    7.90
   3  -1 -26   45.70    8.22
  -3  -1  26   54.07    8.97
   3   1 -26   51.21    7.86
  -3   1  26   44.34    8.94
   1  -1  26   41.47    8.13
   1   1  26   39.86    8.25
   6  -2 -26   43.73    9.80
  -6  -2  26   22.94    7.84
  -6  -2  26   23.08    8.22
  -6   2  26   23.52    7.88
   6   2 -26   19.67    9.03
  -6   2  26   31.64    8.08
   4  -2 -26   12.27    7.82
   4  -2 -26   10.04    9.55
  -4  -2  26    7.85    7.92
  -4   2  26   15.84    8.29
   4   2 -26   15.57    7.77
   2  -2 -26   10.45    6.56
  -2  -2  26   12.05    7.70
   2   2 -26   19.09    6.58
  -2   2  26   18.83    8.16
  -2  -2 -26  -28.30   21.12
  -2   2 -26  -26.48   27.58
  -2   2 -26   20.19   16.86
   5  -3 -26   19.42    8.69
  -5  -3  26   26.36    8.32
  -5   3  26   20.09    8.15
   5   3 -26   23.20    8.30
   3  -3 -26    7.59    7.19
   3  -3 -26   21.29    9.01
  -3  -3  26   19.70    8.03
   3   3 -26   23.45    7.07
  -3   3  26   13.99    8.30
  -3   3 -26  -44.02   22.78
   6  -4 -26    7.73    8.89
  -6  -4  26    0.31    7.13
  -6  -4  26   -3.19    7.18
  -6   4  26    2.56    7.77
  -6   4  26  -14.41    7.32
   6   4 -26   -0.01    7.95
  -4  -4  26   52.92    9.15
   4  -4 -26   76.15   11.11
   4  -4 -26   53.34    8.92
   4   4 -26   47.12    8.73
  -4   4  26   58.28    9.62
  -2  -4  26   73.35    9.57
   2  -4 -26   70.79    8.61
   2   4 -26   72.33    8.12
  -2   4  26   80.19    9.96
  -5  -5  26  -11.40    7.41
   5  -5 -26   -8.98    8.22
  -5   5  26   -4.35    7.88
   5   5 -26    2.19    7.80
   3  -5 -26   15.25    7.38
  -3  -5  26    8.56    7.83
   3  -5 -26   13.13    9.30
  -3   5  26   21.32    8.58
   3   5 -26   11.60    6.73
   6  -6 -26    1.22    9.16
  -6  -6  26    6.44    8.09
  -6  -6  26    4.60    7.30
  -6   6  26   -5.09    7.47
   6   6 -26    4.04    8.06
  -6   6  26   -0.42    8.20
  -4  -6  26   35.66    8.72
   4  -6 -26   46.02    9.12
   4  -6 -26   41.29   10.69
   4   6 -26   36.30    8.25
  -4   6  26   37.81    9.28
   2  -6 -26   10.09    6.69
   2  -6 -26   17.02    8.24
  -2  -6  26    9.15    7.66
   2   6 -26   -5.07    5.87
  -2   6  26   11.14    8.81
  -5  -7  26    3.87    7.36
   5  -7 -26    8.54    8.80
   5   7 -26    6.18    7.86
  -5   7  26   13.74    8.70
   3  -7 -26   -0.40    7.39
  -3  -7  26    5.08    7.68
   3  -7 -26  -16.70    8.98
  -3   7  26   12.51    8.92
   3   7 -26    1.97    6.73
  -1  -7  26  -13.57    7.25
  -1   7  26    4.90    8.59
  -3  -7 -26   28.48   14.25
  -3  -7 -26   10.15   24.41
  -3   7 -26   -3.29   18.94
  -6  -8  26   -9.62    7.03
   6  -8 -26    7.34   10.38
  -6   8  26    7.95    8.73
   6   8 -26    9.95    8.32
  -6   8  26    6.61    8.32
   4  -8 -26    4.55   12.43
   4  -8 -26   -3.20    8.19
  -4  -8  26    5.55    7.71
  -4   8  26    4.81    8.49
   4   8 -26   -0.52    7.32
   2  -8 -26   12.54    6.93
   2  -8 -26   18.43    8.70
  -2  -8  26    0.75    7.59
   2   8 -26    9.91    6.53
  -2   8  26    1.73    8.86
   0  -8  26    6.67    7.36
   0  -8 -26   -6.24   14.22
   0   8  26   -4.26    9.02
   2  -8  26   26.64    7.77
  -2  -8 -26   29.96   14.88
   2   8  26   29.63    9.96
  -5  -9  26   -1.32    7.39
   5  -9 -26   19.50    9.73
  -5   9  26   14.25    8.93
   5   9 -26   12.83    8.07
  -3  -9  26  -12.66    7.55
   3  -9 -26  -15.16    7.57
   3  -9 -26   -5.47    9.36
  -3   9  26    0.95    9.03
   3   9 -26  -16.82    6.61
   1  -9 -26   11.45    8.01
  -1  -9  26    1.86    7.65
  -1   9  26   13.25    9.48
  -1  -9 -26   26.26   15.85
   1  -9  26   22.17    7.90
   1   9  26   23.60   10.86
  -1   9 -26  -45.32   24.02
  -3  -9 -26   23.62   15.07
  -3   9 -26  -10.81   16.87
  -4 -10  26    4.69    7.83
   4 -10 -26   12.22    9.78
  -4  10  26    3.30    9.87
   4  10 -26   -1.36    7.35
  -2 -10  26   30.75    8.63
   2 -10 -26   63.19   10.21
   2  10 -26   47.05    7.52
  -2  10  26   54.90   10.87
   0 -10 -26   -2.21   14.95
   0 -10  26   -3.76    7.28
   0  10  26   15.55    9.66
  -2 -10 -26   16.29   14.93
   2 -10  26    9.38    7.89
  -2  10 -26  -22.85   21.05
   2  10  26    7.40   11.20
   5 -11 -26   22.00   10.34
  -5 -11  26   18.10    7.76
  -5  11  26   24.91    9.41
   5  11 -26   -3.19    7.95
  -3 -11  26   14.48    8.12
   3 -11 -26   13.30   10.78
   3 -11 -26   14.28    8.81
   3  11 -26   18.37    7.34
  -3  11  26   22.56   10.44
  -1 -11  26    9.49    7.87
   1 -11 -26    5.26    8.51
  -1  11  26   -1.52   10.49
  -1 -11 -26    7.38   14.92
   1 -11  26    4.04    7.68
   1  11  26   23.49   10.59
  -3 -11 -26   -3.31   14.76
  -3  11 -26  -25.04   21.82
   4 -12 -26   73.31   12.75
  -4 -12  26   40.75    8.93
  -4  12  26   63.88   11.58
   4  12 -26   53.46    9.20
   2 -12 -26    6.23    9.22
  -2 -12  26   10.54    8.24
   2  12 -26    6.90    7.16
  -2  12  26   14.02   11.54
   0 -12  26   56.19    9.48
   0  12  26   57.59   12.27
  -2 -12 -26    8.23   15.07
   2 -12  26    7.99    8.62
   2  12  26    2.18   11.81
  -5 -13  26    9.20    7.41
   5 -13 -26   13.53   10.69
   5  13 -26   14.57    8.65
  -5  13  26   29.40   10.27
  -3 -13  26    2.27    7.82
   3 -13 -26    0.81    8.77
   3 -13 -26    0.80   11.19
   3  13 -26    2.07    7.02
  -3  13  26   -4.14   10.41
   1 -13 -26   52.94    9.82
  -1 -13  26   32.22    9.06
  -1  13  26   51.42   13.60
   1 -13  26    8.14    8.42
  -1 -13 -26    4.61   15.64
   1  13  26    6.10   11.87
  -4 -14  26   17.98    8.53
   4 -14 -26   32.83   11.20
  -4  14  26   40.17   11.70
   4  14 -26   27.17    8.49
  -2 -14  26    0.16    8.32
   2 -14 -26    7.26    9.95
  -2  14  26   18.32   11.17
   0 -14  26   -3.72    8.38
   0  14  26    2.17   11.05
  -2 -14 -26   42.97   17.29
   2 -14  26   28.24    9.22
   2  14  26   41.28   12.77
  -3 -15  26    0.80    7.97
   3 -15 -26    4.73   12.33
   3  15 -26   28.90    7.89
  -3  15  26    9.15   12.22
   1 -15 -26   22.32   10.70
  -1 -15  26    8.77    8.66
  -1  15  26    4.00   11.96
   1 -15  26   55.12    9.91
   1  15  26   49.60   14.79
  -2 -16  26  -10.01    8.14
   2 -16 -26   -9.18   12.06
  -2  16  26    3.19   12.43
   0 -16  26    2.02    8.61
   0  16  26   -2.32   13.98
   1 -17 -26   -6.27   11.04
  -1 -17  26    7.75    8.94
  -1  17  26   29.83   13.47
  -6   0  27   -7.05    7.32
  -6   0  27   -7.05    7.54
   6   0 -27   -7.79    8.59
  -4   0  27    1.77    8.38
   4   0 -27   -3.56    7.43
   2   0 -27    3.41    6.29
  -2   0  27    0.09    7.69
   0   0  27   -0.47    7.59
  -5  -1  27    9.94    7.91
   5  -1 -27   15.92    9.00
  -5   1  27   23.38    8.57
   5   1 -27    4.73    8.34
   3  -1 -27    7.65    7.23
  -3  -1  27   39.31    8.76
   3   1 -27   26.63    7.55
  -3   1  27   19.61    8.48
  -1  -1  27   29.83    8.21
  -1   1  27   49.19    8.89
   1  -1  27    9.55    7.65
  -1  -1 -27  -29.53   33.88
   1   1  27   -4.65    7.57
  -1   1 -27   28.81   33.17
   6  -2 -27   21.60    9.43
  -6  -2  27    8.57    7.54
  -6  -2  27   12.14    8.23
   6   2 -27   21.03    8.97
  -6   2  27   10.11    7.72
  -6   2  27    7.98    7.91
   4  -2 -27    8.97    9.94
  -4  -2  27   -2.22    7.95
   4  -2 -27   10.10    8.13
  -4   2  27    4.40    8.41
   4   2 -27   14.56    7.48
  -2  -2  27   -7.07    7.60
   2  -2 -27    8.81    6.28
   2   2 -27   -3.48    6.05
  -2   2  27    4.67    8.05
   5  -3 -27   40.77    9.53
  -5  -3  27   25.55    8.53
   5   3 -27   23.56    8.52
  -5   3  27   32.84    8.82
  -3  -3  27   90.26   10.22
   3  -3 -27   84.11    9.97
   3   3 -27   81.00    9.11
  -3   3  27   93.95   10.61
  -1  -3  27   36.55    8.46
  -1   3  27   58.42    9.30
  -6  -4  27    5.95    7.81
  -6  -4  27    8.16    7.50
   6  -4 -27   13.93    9.47
   6   4 -27    2.29    8.43
  -6   4  27   15.91    8.40
  -6   4  27    7.79    8.34
  -4  -4  27   29.32    8.71
   4  -4 -27   39.03   10.60
   4  -4 -27   41.91    8.90
   4   4 -27   31.19    8.11
  -4   4  27   29.43    9.02
   2  -4 -27   15.13    6.75
  -2  -4  27   10.43    7.97
  -2   4  27    9.24    8.35
   2   4 -27    8.72    6.36
  -2  -4 -27 1535.87   62.95
   5  -5 -27    7.66    9.18
  -5  -5  27   14.08    8.34
  -5   5  27   21.54    8.70
   5   5 -27   16.63    8.13
   3  -5 -27   29.01    7.86
  -3  -5  27   29.24    8.56
   3  -5 -27   22.57    9.62
   3   5 -27   22.82    7.21
  -3   5  27   17.36    8.82
  -1  -5  27   46.49    8.75
  -1   5  27   39.81    9.37
  -3   5 -27  -36.67   20.54
   6  -6 -27   35.82   10.47
  -6  -6  27   27.76    8.26
  -6  -6  27   25.59    9.76
  -6   6  27   45.34    9.11
   6   6 -27   38.34    9.30
  -6   6  27   32.59   10.54
   4  -6 -27    7.38   10.83
   4  -6 -27   -0.70    8.19
  -4  -6  27   10.23    8.14
  -4   6  27    3.82    8.57
   4   6 -27   13.42    7.45
   2  -6 -27   14.80    8.70
  -2  -6  27   15.68    8.00
   2  -6 -27   38.76    9.06
   2   6 -27   25.47    6.99
  -2   6  27   22.44    9.27
  -2  -6 -27 1541.84   65.21
  -5  -7  27   19.65    7.91
   5  -7 -27    9.97    9.34
   5   7 -27    7.91    7.97
  -5   7  27    6.61    8.62
   3  -7 -27   29.38   10.28
   3  -7 -27   37.61    8.80
  -3  -7  27   28.83    8.59
   3   7 -27   31.64    7.45
  -3   7  27   31.73    9.81
  -1  -7  27    2.89    7.89
  -1   7  27    5.91    8.77
  -3   7 -27  -32.02   18.34
   4  -8 -27   -1.31    8.06
  -4  -8  27   21.35    8.37
   4  -8 -27  -15.68   12.06
   4   8 -27   18.90    7.66
  -4   8  27   10.08    9.17
   2  -8 -27   -5.65    8.70
  -2  -8  27    6.63    7.90
  -2   8  27    9.83    9.39
   2   8 -27   -2.70    7.04
   0  -8  27   10.30    7.87
   0  -8 -27   15.98   15.35
   0   8  27   33.46    9.62
   2  -8  27   16.72    7.52
  -2  -8 -27   20.54   15.26
  -5  -9  27   -5.07    7.27
   5  -9 -27   12.56    9.55
   5   9 -27   11.77    8.39
  -5   9  27    8.53    8.94
  -3  -9  27    7.68    8.06
   3  -9 -27   -7.82   10.37
   3  -9 -27    8.50    8.42
  -3   9  27    0.53    9.78
   3   9 -27    5.23    7.06
   1  -9 -27   33.66    8.44
  -1  -9  27   20.56    8.23
  -1   9  27   21.55   10.50
   1  -9  27    0.63    7.70
  -1  -9 -27    5.43   14.78
   1   9  27    7.18   10.28
  -3  -9 -27   20.76   15.13
  -3   9 -27  -18.51   19.80
   4 -10 -27    9.63    9.44
  -4 -10  27   -5.73    7.65
   4  10 -27    2.75    7.70
  -4  10  27  -13.80    9.27
  -2 -10  27    9.35    7.97
   2 -10 -27   12.96    9.79
  -2  10  27   12.85   10.37
   0 -10  27   -1.80    7.82
   0  10  27    9.37   10.71
  -2 -10 -27   11.28   15.01
   2 -10  27   14.73    8.06
  -2  10 -27  -36.08   18.61
   2  10  27   30.48   11.10
  -5 -11  27   15.44    7.68
   5 -11 -27   14.52   10.12
  -5  11  27   11.85    9.54
   5  11 -27    5.25    8.43
  -3 -11  27   -4.01    7.97
   3 -11 -27   11.20    8.79
   3 -11 -27   11.18   10.26
   3  11 -27    1.70    6.83
  -3  11  27   12.84   11.02
   1 -11 -27   13.03    8.80
  -1 -11  27   21.43    8.49
  -1  11  27   21.39   10.98
   1 -11  27   10.61    8.23
  -1 -11 -27    9.56   15.66
   1  11  27   26.66   11.52
   3 -11  27   -0.63    8.44
  -3 -11 -27   -3.35   14.93
   4 -12 -27   27.76   11.40
  -4 -12  27   19.59    8.38
  -4  12  27   16.60   10.99
   4  12 -27   25.40    8.39
   2 -12 -27   -7.21    9.48
  -2 -12  27    0.86    8.22
  -2  12  27  -14.01   10.67
   0 -12  27    4.13    8.16
   0  12  27   -5.75   10.45
   2 -12  27   20.92    8.88
  -2 -12 -27   18.42   15.78
   2  12  27    7.90   11.87
  -3 -13  27   21.79    8.67
   3 -13 -27   42.87   11.54
   3  13 -27   29.65    7.79
  -3  13  27   38.45   11.63
   1 -13 -27    0.73    9.26
  -1 -13  27   -3.11    8.45
  -1  13  27    8.84   11.42
   1 -13  27   13.22    9.08
   1  13  27   45.98   13.66
   4 -14 -27   15.58   11.39
  -4 -14  27    9.13    8.17
   4  14 -27    4.59    7.89
  -4  14  27    8.75   11.33
   2 -14 -27   49.79   12.09
  -2 -14  27   42.96    9.72
  -2  14  27   65.67   13.27
   0 -14  27   -1.03    9.00
   0  14  27    1.43   13.31
  -3 -15  27   15.28    8.70
   3 -15 -27   31.86   11.77
   3  15 -27   31.09    8.63
  -3  15  27   40.36   12.88
   1 -15 -27   69.64   11.11
  -1 -15  27   41.80    9.62
  -1  15  27   71.23   14.19
   1 -15  27   -1.97    8.60
   2 -16 -27    0.34   11.96
  -2 -16  27    9.81    9.06
  -2  16  27    5.19   14.60
   0 -16  27   54.99   10.41
   0  16  27   51.76   14.47
   6   0 -28    1.35    9.41
  -6   0  28    3.48    7.79
  -4   0  28   70.56   10.49
   4   0 -28   74.19    9.93
  -2   0  28    6.97    8.10
   0   0  28   17.77    7.97
   0   0 -28  -56.15   36.25
   2   0  28   67.68    9.27
  -5  -1  28   32.79    8.68
   5  -1 -28   18.61    9.43
   5   1 -28   22.68    8.95
  -5   1  28   13.11    8.59
  -3  -1  28   38.46    9.18
   3  -1 -28   33.35    7.94
   3   1 -28   24.09    7.72
  -3   1  28   37.32    9.11
  -1  -1  28    0.75    7.74
  -1   1  28   -5.16    7.93
   1  -1  28   15.80    7.86
   1   1  28   19.54    8.09
   6  -2 -28    8.25    9.38
  -6  -2  28   22.85    8.36
  -6   2  28   21.76    8.44
   6   2 -28   16.65    9.59
  -4  -2  28   87.24   10.55
   4  -2 -28   87.67   10.54
  -4   2  28   86.95   10.95
   4   2 -28   70.46    9.65
  -2  -2  28   48.19    8.98
  -2   2  28   54.71    9.59
  -2  -2 -28 1713.21   69.47
   5  -3 -28   35.19    9.94
  -5  -3  28   34.61    8.82
  -5   3  28   32.45    9.35
   5   3 -28   29.56    8.79
  -3  -3  28   46.72    9.39
   3  -3 -28   40.26    8.54
   3   3 -28   42.20    8.02
  -3   3  28   32.85    9.50
  -1  -3  28    7.97    7.86
  -1   3  28    7.57    8.32
  -6  -4  28    8.82    8.11
   6  -4 -28    4.24    9.75
  -6   4  28   -0.70    8.42
   6   4 -28   -0.46    8.57
   4  -4 -28   94.15   11.94
   4  -4 -28   54.18    9.80
  -4  -4  28   58.20    9.66
  -4   4  28   52.91    9.98
   4   4 -28   52.56    8.73
  -2  -4  28   13.45    8.30
  -2   4  28   -2.51    8.27
   5  -5 -28  -10.60    8.45
  -5  -5  28    8.39    8.31
   5   5 -28   -7.45    7.42
  -5   5  28   12.01    8.95
   3  -5 -28   38.68    9.98
   3  -5 -28   21.12    7.99
  -3  -5  28   20.55    8.61
  -3   5  28    6.32    8.85
   3   5 -28   30.05    7.65
  -1  -5  28    5.70    7.95
  -1   5  28   -7.86    8.81
  -3  -5 -28 1705.72   70.00
   4  -6 -28    9.39    8.04
  -4  -6  28   22.77    8.73
   4  -6 -28    6.98   11.43
  -4   6  28   20.30    9.35
   4   6 -28   15.21    7.69
  -2  -6  28   14.56    8.27
  -2   6  28   19.85    9.42
  -5  -7  28    9.22    7.92
   5  -7 -28   15.71    9.39
   5   7 -28    0.84    7.84
  -5   7  28    9.59    8.89
   3  -7 -28   62.51    9.27
   3  -7 -28   78.80   11.53
  -3  -7  28   57.18    9.51
   3   7 -28   58.25    8.35
  -3   7  28   58.36   10.64
  -1  -7  28   30.30    8.52
  -1   7  28   12.60    9.83
   1  -7  28   11.98    7.95
  -1  -7 -28    5.04   14.74
   1   7  28   -6.33    9.12
  -3  -7 -28   26.17   14.97
  -3   7 -28   -6.87   22.46
   4  -8 -28    4.93   13.26
   4  -8 -28   13.66    9.22
  -4  -8  28    9.52    8.36
   4   8 -28    8.97    7.61
  -4   8  28   17.64    9.43
  -2  -8  28   30.49    8.88
   2  -8 -28   38.46   10.02
  -2   8  28   23.08    9.85
   0  -8  28   -3.85    7.52
   0   8  28    0.17    9.59
  -2  -8 -28    3.81   14.66
   2  -8  28    1.46    7.64
   2   8  28   -1.04   10.60
   5  -9 -28  -11.25    9.99
  -5  -9  28   -3.07    7.72
   5   9 -28   -2.98    8.02
  -5   9  28    3.70    9.20
  -3  -9  28   10.30    8.44
   3  -9 -28    6.60    8.20
   3  -9 -28   24.44   10.53
   3   9 -28   16.79    7.31
  -3   9  28   12.20   10.25
  -1  -9  28   17.65    8.33
  -1   9  28   -2.27   10.12
   1  -9  28   24.52    8.35
  -1  -9 -28    2.34   15.61
   1   9  28    5.58   10.42
   4 -10 -28   -4.41    8.39
  -4 -10  28    6.59    8.38
   4  10 -28   -0.53    7.58
  -4  10  28    0.24    9.74
   2 -10 -28   20.59    9.95
  -2 -10  28   18.39    8.59
  -2  10  28   19.71   11.21
   0 -10  28   17.12    8.28
   0  10  28   -1.46   11.20
  -2 -10 -28    4.23   15.52
   2 -10  28   13.29    8.22
   2  10  28   19.62   12.90
  -3 -11  28    8.98    8.41
   3 -11 -28   10.16   10.35
   3  11 -28    5.27    7.14
  -3  11  28    9.94   10.88
  -1 -11  28   14.80    8.42
   1 -11 -28   30.70    9.12
  -1  11  28    0.79   11.20
  -1 -11 -28   13.72   16.62
   1 -11  28   11.90    8.26
   1  11  28   18.95   11.67
   4 -12 -28   64.15   12.35
  -4 -12  28   47.17    9.50
   4  12 -28   58.88    9.47
  -4  12  28   75.33   12.85
   2 -12 -28   -6.35   10.73
  -2 -12  28   15.48    8.87
  -2  12  28    6.97   11.29
   0 -12  28   37.92    9.36
   0  12  28   38.79   13.23
   2 -12  28   10.91    8.75
  -2 -12 -28   11.35   15.73
  -3 -13  28    0.62    8.15
   3 -13 -28   13.61   11.67
   3  13 -28   -0.69   10.47
  -3  13  28  -17.80   11.21
   1 -13 -28   30.69   10.34
  -1 -13  28   11.14    8.82
  -1  13  28   42.65   12.17
   1 -13  28   -5.54    8.72
   1  13  28   16.95   13.22
   2 -14 -28   43.41   12.12
  -2 -14  28   40.04    9.70
  -2  14  28   18.24   13.35
   0 -14  28   15.35    9.32
   0  14  28   18.25   12.52
  -1 -15  28   12.86    8.97
  -1  15  28   19.05   13.81
   4   0 -29    1.19    7.71
  -4   0  29   -9.09    8.59
  -2   0  29   -8.38    8.05
   0   0  29    8.61    8.09
   5  -1 -29    7.64    9.07
  -5  -1  29   34.05    9.08
  -5   1  29   37.13    9.55
   5   1 -29    4.81    8.73
  -3  -1  29   30.57    9.48
   3  -1 -29   36.73    7.82
  -3   1  29   36.26    9.46
   3   1 -29   38.73    7.79
  -1  -1  29    9.12    8.21
  -1   1  29    7.82    8.44
  -4  -2  29    9.02    8.60
   4  -2 -29   31.88    8.69
  -4   2  29   23.25    9.23
   4   2 -29   17.16    8.01
  -2  -2  29   -4.72    8.17
  -2   2  29    7.92    8.70
  -2  -2 -29 2225.61   88.06
   5  -3 -29   -4.73    8.93
  -5  -3  29   -0.11    8.45
   5   3 -29   -1.98    8.37
  -5   3  29   -4.79    8.51
   3  -3 -29    0.36    7.38
  -3  -3  29    7.12    8.78
   3   3 -29   -7.88    6.61
  -3   3  29    0.91    8.73
  -1  -3  29   25.40    8.81
  -1   3  29   12.82    8.52
  -3  -3 -29 2140.79   85.58
  -4  -4  29    9.97    9.06
   4  -4 -29   40.73    8.96
   4  -4 -29   38.38   11.27
   4   4 -29   20.92    8.02
  -4   4  29   24.69    9.46
  -2  -4  29   28.93    9.10
  -2   4  29   29.10    9.19
  -5  -5  29   13.29    8.85
   5  -5 -29   14.70    9.48
   5   5 -29    8.73    8.38
  -5   5  29   22.83    9.39
   3  -5 -29  112.31   12.24
  -3  -5  29   62.81   10.19
   3  -5 -29   62.58   10.01
  -3   5  29   80.56   11.18
   3   5 -29   72.70    9.04
  -1  -5  29   27.78    8.59
  -1   5  29    9.43    9.34
   4  -6 -29   70.78   10.69
  -4  -6  29   69.07   10.23
   4  -6 -29   68.68   13.67
  -4   6  29   85.25   11.39
   4   6 -29   71.14    9.64
  -2  -6  29   16.06    8.69
  -2   6  29   38.67   10.22
   0  -6  29   13.78    7.87
   0   6  29   19.14    9.51
   5  -7 -29   12.74    9.66
  -5  -7  29   14.95    8.46
   5   7 -29   -2.35    8.00
  -5   7  29   -2.41    8.96
   3  -7 -29   49.49   10.96
  -3  -7  29   26.98    9.02
  -3   7  29   26.28   10.06
   3   7 -29   30.84    7.52
  -1  -7  29   19.17    8.47
  -1   7  29    4.65    9.70
  -1  -7 -29   47.18   17.17
   1  -7  29   48.45    8.96
   1   7  29   42.80   11.05
  -4  -8  29   36.73    9.17
   4  -8 -29   34.27    9.92
  -4   8  29   28.25   10.38
   4   8 -29   21.31    8.08
  -2  -8  29   12.86    8.61
   2  -8 -29   12.56    9.51
  -2   8  29   30.86   11.05
   0  -8  29   -1.90    7.72
   0   8  29   -7.59    9.66
   2  -8  29   -4.17    7.73
  -2  -8 -29    1.63   15.21
   2   8  29   -8.06   10.44
   3  -9 -29    9.85   10.99
  -3  -9  29   23.11    8.73
   3   9 -29   19.86    9.64
  -3   9  29   13.97   11.03
  -1  -9  29   11.99    8.50
  -1   9  29   36.21   11.15
  -1  -9 -29    5.92   15.72
   1  -9  29   -2.37    8.18
   1   9  29   -3.44   10.86
  -4 -10  29   -4.84    8.37
   4 -10 -29   18.68    9.31
  -4  10  29   14.68   10.71
   4  10 -29   -7.19    7.71
   2 -10 -29   11.24    9.87
  -2 -10  29   17.15    8.58
  -2  10  29   14.66   11.82
   0 -10  29   29.26    8.88
   0  10  29   41.32   12.11
  -2 -10 -29    2.01   15.52
   2 -10  29    6.02    8.15
  -3 -11  29  -10.10    8.19
   3 -11 -29   -2.31   11.60
  -3  11  29   -3.39   11.06
  -1 -11  29   21.97    8.76
  -1  11  29   19.46   11.86
   1 -11  29   14.14    8.46
   1  11  29   25.86   12.92
  -2 -12  29   19.29    9.23
   2 -12 -29    7.42   11.12
  -2  12  29   12.02   11.99
   0 -12  29    9.78    8.64
   0  12  29    3.25   11.92
   1 -13 -29    5.00    9.59
  -1 -13  29   -3.83    8.47
  -1  13  29    1.64   12.25
   4   0 -30    8.11    7.97
  -4   0  30    9.13    9.46
   0   0  30    1.88    8.18
   2   0  30   28.96    8.62
   5  -1 -30   31.91    9.91
  -5  -1  30   53.26    9.76
   5   1 -30   48.44    9.79
  -5   1  30   36.15    9.93
  -3  -1  30    2.70    9.12
  -3   1  30   19.39    9.49
   3   1 -30    7.25   10.74
  -1  -1  30   31.61    8.84
  -1   1  30   19.48    8.75
   4  -2 -30   27.51    8.83
  -4  -2  30   15.24    9.01
   4   2 -30   22.65    8.14
  -4   2  30   30.66    9.82
  -2  -2  30   -4.46    8.59
  -2   2  30    7.82    8.65
   0  -2  30   71.81    9.89
   0   2  30   96.81   11.13
  -2  -2 -30 2633.41  103.80
   5  -3 -30   24.21   10.54
  -5  -3  30   34.79    9.71
   5   3 -30   22.37    9.06
  -5   3  30   26.11    9.89
  -3  -3  30   34.32    9.71
  -3   3  30   58.61   10.29
  -1  -3  30    8.43    8.87
  -1   3  30   15.84    9.29
  -4  -4  30   -2.36    8.85
   4  -4 -30   10.00    8.68
  -4   4  30    0.51    9.29
   4   4 -30    9.38    7.73
  -2  -4  30   17.24    9.01
  -2   4  30   37.35    9.64
   0  -4  30   -5.69    8.52
   0   4  30    8.30    9.09
  -5  -5  30   -6.01    8.81
  -5   5  30  -11.47    9.29
  -3  -5  30   33.29    9.45
  -3   5  30   37.16   10.59
  -1  -5  30    3.76    8.18
  -1   5  30    4.93    9.31
   4  -6 -30   12.52    8.28
   4  -6 -30    9.08   12.09
  -4  -6  30   21.37    9.44
  -4   6  30   11.17   10.19
   4   6 -30    7.67    7.71
  -2  -6  30   20.18    9.04
  -2   6  30   14.26    9.99
   0  -6  30    1.18    7.92
   0   6  30    8.20    9.49
   3  -7 -30   28.27   10.66
  -3  -7  30   17.83    8.96
  -3   7  30   29.37   10.50
  -1  -7  30   41.40    9.28
  -1   7  30   51.92   11.42
  -1  -7 -30    3.78   14.44
   1  -7  30    6.41    8.14
   1   7  30   -6.56   11.22
  -4  -8  30    3.05    8.86
   4  -8 -30   -3.07   14.15
   4  -8 -30   23.51    8.84
   4   8 -30  -10.15    7.18
  -4   8  30   -2.59   10.03
  -2  -8  30   15.25    8.66
  -2   8  30   10.43   10.93
   0  -8  30   -4.24    8.08
   0   8  30   -2.26   10.94
  -3  -9  30   39.61    9.64
   3  -9 -30   34.63   11.29
  -3   9  30   39.72   11.55
  -1  -9  30    7.78    8.41
  -1   9  30   -9.44   10.69
   1  -9  30   11.35    8.50
   1   9  30  -11.54   12.53
   2 -10 -30   24.74   10.63
  -2 -10  30   22.24    9.18
  -2  10  30   26.77   12.21
   0 -10  30    8.20    8.51
   0  10  30   11.87   12.34
   3 -11 -30   -2.26   12.40
  -3 -11  30    1.55    8.75
  -3  11  30    0.44   11.35
  -1 -11  30    6.18    8.79
  -1  11  30   26.03   11.95
   2 -12 -30   21.86   11.54
  -2 -12  30   13.62    9.21
  -2  12  30   28.03   13.24
  -4   0  31  -15.44    9.05
   4   0 -31    4.52    7.64
  -2   0  31   22.24    9.15
   0   0  31   -6.15    8.13
   2   0  31   -5.07    8.11
  -3  -1  31   24.02   10.00
  -3   1  31   13.04    9.51
  -1  -1  31   19.67    8.89
  -1   1  31   25.34    9.09
  -4  -2  31    9.89    9.21
   4  -2 -31   22.02    8.55
  -4   2  31   12.70    9.58
   4   2 -31   22.69    7.75
  -2  -2  31   15.00    9.35
  -2   2  31   -2.97    8.73
   0  -2  31   47.83    9.22
   0   2  31   32.52    9.30
   2  -2  31    6.62    8.12
  -3  -3  31   43.05   10.02
  -3   3  31   53.32   10.83
  -1  -3  31    0.96    8.96
  -1   3  31    1.17    8.98
   4  -4 -31    0.88    8.80
  -4  -4  31   -2.26    9.18
   4   4 -31    5.19    7.31
  -4   4  31    9.71    9.73
  -2  -4  31   46.24    9.84
  -2   4  31   53.75   10.59
   0  -4  31   -9.47    8.36
   0   4  31    7.04    9.51
  -3  -5  31   18.04    9.46
  -3   5  31   -0.75    9.90
  -1  -5  31   21.31    8.96
  -1   5  31   15.04   10.03
   4  -6 -31   24.85   12.67
  -4  -6  31   13.67    9.32
  -4   6  31   27.92   10.59
   4   6 -31   12.16    7.87
  -2  -6  31    8.03    9.09
  -2   6  31    1.43    9.43
   0  -6  31   57.57    9.58
   0   6  31   58.48   11.38
  -3  -7  31   40.99    9.97
  -3   7  31   37.76   11.28
  -1  -7  31   -5.50    8.25
  -1   7  31   -7.64   10.58
   1  -7  31   -2.25    8.17
  -1  -7 -31   14.90   26.15
   1   7  31   -3.11   11.07
  -2  -8  31   11.21    9.25
  -2   8  31    1.37   10.83
   0  -8  31   -1.18    8.07
   0   8  31   -4.63   10.65
  -3  -9  31   21.88    9.42
  -3   9  31   43.76   12.13
  -1  -9  31    2.02    8.92
  -1   9  31    3.16   11.13
  -2 -10  31    7.16    9.08
   2 -10 -31    3.67   10.62
  -2  10  31    3.14   11.58
  -2   0  32   36.33    9.93
   0   0  32    2.66    8.64
  -3  -1  32   51.03   10.96
  -3   1  32   68.04   11.20
  -1  -1  32   14.39    9.01
  -1   1  32   18.62    9.22
   1  -1  32   10.68    8.65
   1   1  32   15.26    9.06
  -2  -2  32    6.79    9.48
  -2   2  32    5.57    9.42
   0  -2  32   13.39    8.61
   0   2  32    0.08    8.84
  -3  -3  32   58.31   10.73
  -3   3  32   77.79   11.56
  -1  -3  32   41.10   10.02
  -1   3  32   36.37   10.42
   1  -3  32    9.05    9.04
   1   3  32    9.70    9.32
  -2  -4  32   15.29    9.35
  -2   4  32   13.98    9.82
   0  -4  32    4.96    8.94
   0   4  32   11.60    9.71
  -3  -5  32    3.49    9.57
  -3   5  32   25.62   11.20
  -1  -5  32   13.62    8.69
  -1   5  32    4.01    9.70
  -2  -6  32   33.51    9.66
  -2   6  32   31.47   11.36
   0  -6  32    5.65    8.60
   0   6  32   12.64   10.54
  -1  -7  32    8.66    8.93
  -1   7  32   23.26   11.79
  -2   0  33   -2.47    9.23
   0   0  33   -7.25    8.75
  -1  -1  33    3.83    8.82
  -1   1  33   12.05    9.29
  -2  -2  33    5.34    9.83
  -2   2  33   15.52   10.29
  -1  -3  33   10.50    9.54
  -1   3  33   22.40    9.98


 _exptl_absorpt_process_details 'SADABS 2014/4'
 _exptl_absorpt_correction_type   multiscan
 _exptl_absorpt_correction_T_max  0.9485
 _exptl_absorpt_correction_T_min  0.7326
 _exptl_special_details
)
 The following wavelength and cell were deduced by SADABS from the
 direction cosines etc. They are given here for emergency use only:
 CELL 0.71062    7.619   22.651   26.636   89.946   98.180   89.878
)

_computing_structure_solution     'SHELXT 2014/4 (Sheldrick, 2014)'
;
_shelx_hkl_checksum              43928
loop_
_space_group_symop_operation_xyz
'x, y, z'
'-x, -y, z'
'-x+1/4, y+1/4, z+1/4'
'x+3/4, -y+3/4, z+1/4'
'x, y+1/2, z+1/2'
'-x, -y+1/2, z+1/2'
'-x+1/4, y+3/4, z+3/4'
'x+3/4, -y+5/4, z+3/4'
'x+1/2, y, z+1/2'
'-x+1/2, -y, z+1/2'
'-x+3/4, y+1/4, z+3/4'
'x+5/4, -y+3/4, z+3/4'
'x+1/2, y+1/2, z'
'-x+1/2, -y+1/2, z'
'-x+3/4, y+3/4, z+1/4'
'x+5/4, -y+5/4, z+1/4'
loop_
_atom_site_label
_atom_site_type_symbol
_atom_site_fract_x
_atom_site_fract_y
_atom_site_fract_z
_atom_site_U_iso_or_equiv
_atom_site_adp_type
_atom_site_occupancy
_atom_site_site_symmetry_order
_atom_site_calc_flag
_atom_site_refinement_flags_posn
_atom_site_refinement_flags_adp
C1 C 0.0569(2) 0.16146(12) 0.3116(8) 0.0178(13) Uani 1 1 d . .
C2 C 0.0090(2) 0.17623(11) 0.2042(9) 0.0215(13) Uani 1 1 d . .
H2A H 0.0090 0.1709 0.0778 0.026 Uiso 1 1 calc R U
H2B H -0.0313 0.1735 0.2546 0.026 Uiso 1 1 calc R U
C3 C 0.0292(2) 0.20439(12) 0.2251(9) 0.0222(13) Uani 1 1 d . .
H3 H -0.0046 0.2156 0.2634 0.027 Uiso 1 1 calc R U
C4 C 0.0572(3) 0.21409(13) 0.0541(9) 0.0281(15) Uani 1 1 d . .
H4A H 0.0827 0.2005 0.0030 0.034 Uiso 1 1 calc R U
H4B H 0.0253 0.2180 -0.0329 0.034 Uiso 1 1 calc R U
C5 C 0.0944(3) 0.23802(14) 0.0841(11) 0.0405(18) Uani 1 1 d . .
H5A H 0.1124 0.2436 -0.0296 0.049 Uiso 1 1 calc R U
H5B H 0.0687 0.2521 0.1291 0.049 Uiso 1 1 calc R U
C6 C 0.1431(3) 0.23231(14) 0.2174(10) 0.0329(17) Uani 1 1 d . .
H6A H 0.1676 0.2479 0.2344 0.039 Uiso 1 1 calc R U
H6B H 0.1694 0.2188 0.1686 0.039 Uiso 1 1 calc R U
C7 C 0.1194(3) 0.22355(12) 0.3979(9) 0.0254(14) Uani 1 1 d . .
C8 C 0.0759(2) 0.20130(12) 0.3753(8) 0.0216(13) Uani 1 1 d . .
C9 C 0.0443(3) 0.19185(12) 0.5445(8) 0.0228(14) Uani 1 1 d . .
H9A H 0.0694 0.1945 0.6510 0.027 Uiso 1 1 calc R U
H9B H 0.0056 0.2007 0.5616 0.027 Uiso 1 1 calc R U
C10 C 0.0351(2) 0.16321(12) 0.5070(8) 0.0179(13) Uani 1 1 d . .
H10 H -0.0082 0.1588 0.5139 0.021 Uiso 1 1 calc R U
C11 C 0.0861(3) 0.24546(13) 0.4898(10) 0.0315(16) Uani 1 1 d . .
H11A H 0.1125 0.2604 0.5008 0.047 Uiso 1 1 calc R U
H11B H 0.0734 0.2399 0.6084 0.047 Uiso 1 1 calc R U
H11C H 0.0510 0.2502 0.4193 0.047 Uiso 1 1 calc R U
C12 C 0.1722(3) 0.21575(14) 0.5139(11) 0.0373(18) Uani 1 1 d . .
H12A H 0.1926 0.2010 0.4600 0.056 Uiso 1 1 calc R U
H12B H 0.1579 0.2110 0.6326 0.056 Uiso 1 1 calc R U
H12C H 0.2001 0.2302 0.5236 0.056 Uiso 1 1 calc R U
C13 C 0.0714(2) 0.13552(12) 0.2441(8) 0.0187(13) Uani 1 1 d . .
C14 C 0.1301(2) 0.12888(12) 0.2077(8) 0.0195(13) Uani 1 1 d . .
H14 H 0.1610 0.1411 0.2264 0.023 Uiso 1 1 calc R U
C15 C 0.1440(2) 0.10467(12) 0.1443(9) 0.0214(13) Uani 1 1 d . .
H15 H 0.1841 0.1000 0.1206 0.026 Uiso 1 1 calc R U
C16 C 0.0977(2) 0.08747(12) 0.1163(8) 0.0209(13) Uani 1 1 d . .
C17 C 0.0388(2) 0.09382(12) 0.1544(9) 0.0228(13) Uani 1 1 d . .
H17 H 0.0078 0.0816 0.1385 0.027 Uiso 1 1 calc R U
C18 C 0.0266(2) 0.11780(12) 0.2147(8) 0.0212(14) Uani 1 1 d . .
H18 H -0.0137 0.1225 0.2371 0.025 Uiso 1 1 calc R U
C19 C 0.0244(3) 0.03185(13) 0.6274(10) 0.0312(16) Uani 1 1 d . .
H19A H -0.0186 0.0286 0.6329 0.047 Uiso 1 1 calc R U
H19B H 0.0439 0.0242 0.7312 0.047 Uiso 1 1 calc R U
H19C H 0.0408 0.0242 0.5187 0.047 Uiso 1 1 calc R U
C20 C 0.0590(2) 0.11245(12) 0.6390(8) 0.0188(13) Uani 1 1 d . .
C21 C 0.1049(2) 0.09537(12) 0.6105(9) 0.0224(14) Uani 1 1 d . .
H21 H 0.1446 0.1014 0.5948 0.027 Uiso 1 1 calc R U
C22 C 0.0929(2) 0.06951(13) 0.6049(9) 0.0268(15) Uani 1 1 d . .
H22 H 0.1248 0.0578 0.5860 0.032 Uiso 1 1 calc R U
C23 C 0.0353(2) 0.06002(13) 0.6263(8) 0.0249(14) Uani 1 1 d . .
C24 C -0.0101(2) 0.07766(13) 0.6530(8) 0.0245(14) Uani 1 1 d . .
H24 H -0.0498 0.0716 0.6666 0.029 Uiso 1 1 calc R U
C25 C 0.0006(2) 0.10350(12) 0.6604(9) 0.0230(13) Uani 1 1 d . .
H25 H -0.0312 0.1152 0.6797 0.028 Uiso 1 1 calc R U
N1 N 0.1119(2) 0.06200(11) 0.0522(8) 0.0301(13) Uani 1 1 d . .
O1 O 0.10675(15) 0.17835(7) 0.3127(5) 0.0182(9) Uani 1 1 d . .
O2 O 0.13864(17) 0.14802(9) 0.6397(6) 0.0295(11) Uani 1 1 d . .
O3 O 0.0515(2) 0.15250(9) 0.8363(6) 0.0314(11) Uani 1 1 d . .
O4 O 0.0715(2) 0.04623(9) 0.0460(8) 0.0397(13) Uani 1 1 d . .
O5 O 0.16288(19) 0.05722(9) 0.0075(8) 0.0399(13) Uani 1 1 d . .
S1 S 0.07603(6) 0.14494(3) 0.6680(2) 0.0224(3) Uani 1 1 d . .
loop_
_atom_site_aniso_label
_atom_site_aniso_U_11
_atom_site_aniso_U_22
_atom_site_aniso_U_33
_atom_site_aniso_U_23
_atom_site_aniso_U_13
_atom_site_aniso_U_12
C1 0.003(2) 0.029(4) 0.021(3) 0.000(3) -0.001(2) -0.001(2)
C2 0.019(3) 0.026(4) 0.019(4) 0.003(3) 0.006(2) -0.001(2)
C3 0.020(3) 0.022(4) 0.024(4) -0.002(3) 0.000(2) 0.004(2)
C4 0.033(3) 0.034(4) 0.018(4) 0.003(3) 0.004(3) 0.000(3)
C5 0.061(5) 0.025(4) 0.035(5) 0.004(3) 0.005(4) -0.011(3)
C6 0.032(3) 0.029(4) 0.038(4) -0.004(3) 0.013(3) -0.010(3)
C7 0.027(3) 0.021(4) 0.028(4) -0.002(3) 0.001(3) -0.002(2)
C8 0.022(3) 0.020(3) 0.024(4) -0.001(2) 0.002(2) 0.002(2)
C9 0.024(3) 0.025(4) 0.020(4) 0.000(3) 0.008(3) 0.005(3)
C10 0.006(2) 0.029(4) 0.019(3) 0.001(3) 0.005(2) 0.003(2)
C11 0.034(4) 0.026(4) 0.034(4) -0.007(3) 0.010(3) 0.001(3)
C12 0.029(3) 0.032(4) 0.051(5) -0.006(4) -0.011(3) -0.005(3)
C13 0.018(3) 0.030(4) 0.008(3) 0.002(2) -0.001(2) 0.001(2)
C14 0.016(3) 0.027(4) 0.015(3) 0.002(2) -0.001(2) -0.001(2)
C15 0.013(2) 0.027(4) 0.024(3) 0.001(3) 0.000(2) 0.003(2)
C16 0.023(3) 0.020(3) 0.019(3) 0.001(2) -0.001(2) 0.003(2)
C17 0.021(3) 0.028(4) 0.020(3) 0.004(3) 0.000(3) -0.003(2)
C18 0.013(2) 0.031(4) 0.019(3) 0.003(3) -0.004(2) -0.003(2)
C19 0.035(3) 0.027(4) 0.032(4) 0.001(3) -0.008(3) 0.000(3)
C20 0.017(3) 0.029(4) 0.011(3) 0.003(2) -0.004(2) 0.001(2)
C21 0.012(3) 0.030(4) 0.025(4) 0.002(3) 0.003(2) 0.003(2)
C22 0.015(3) 0.030(4) 0.036(4) 0.005(3) 0.003(3) 0.005(2)
C23 0.023(3) 0.032(4) 0.019(4) 0.003(3) -0.003(2) 0.000(3)
C24 0.016(3) 0.041(4) 0.016(3) 0.005(3) 0.002(2) -0.001(2)
C25 0.019(3) 0.032(4) 0.019(3) 0.001(3) 0.000(2) 0.005(2)
N1 0.031(3) 0.029(3) 0.030(3) -0.002(3) 0.002(3) 0.001(2)
O1 0.0151(18) 0.018(2) 0.021(2) -0.0016(17) 0.0004(17) 0.0001(15)
O2 0.022(2) 0.036(3) 0.030(3) 0.003(2) -0.0088(19) -0.0035(18)
O3 0.047(3) 0.032(3) 0.016(2) -0.0008(19) 0.002(2) 0.000(2)
O4 0.036(3) 0.028(3) 0.055(4) -0.007(2) -0.005(2) 0.000(2)
O5 0.031(3) 0.034(3) 0.055(4) -0.009(3) 0.010(2) 0.008(2)
S1 0.0216(7) 0.0292(9) 0.0162(8) 0.0005(7) -0.0025(6) -0.0006(6)
loop_
_atom_type_symbol
_atom_type_description
_atom_type_scat_dispersion_real
_atom_type_scat_dispersion_imag
_atom_type_scat_source
C C 0.0033 0.0016 'International Tables Vol C Tables 4.2.6.8 and 6.1.1.4'
H H 0.0000 0.0000 'International Tables Vol C Tables 4.2.6.8 and 6.1.1.4'
O O 0.0106 0.0060 'International Tables Vol C Tables 4.2.6.8 and 6.1.1.4'
S S 0.1246 0.1234 'International Tables Vol C Tables 4.2.6.8 and 6.1.1.4'
N N 0.0061 0.0033 'International Tables Vol C Tables 4.2.6.8 and 6.1.1.4'
loop_
_geom_angle_atom_site_label_1
_geom_angle_atom_site_label_2
_geom_angle_atom_site_label_3
_geom_angle
O1 C1 C13 113.2(4)
O1 C1 C2 103.9(5)
C13 C1 C2 115.3(5)
O1 C1 C10 101.8(5)
C13 C1 C10 116.6(5)
C2 C1 C10 104.3(4)
C3 C2 C1 102.5(5)
C3 C2 H2A 111.3
C1 C2 H2A 111.3
C3 C2 H2B 111.3
C1 C2 H2B 111.3
H2A C2 H2B 109.2
C4 C3 C2 110.6(5)
C4 C3 C8 111.9(5)
C2 C3 C8 100.0(5)
C4 C3 H3 111.3
C2 C3 H3 111.3
C8 C3 H3 111.3
C5 C4 C3 112.0(6)
C5 C4 H4A 109.2
C3 C4 H4A 109.2
C5 C4 H4B 109.2
C3 C4 H4B 109.2
H4A C4 H4B 107.9
C6 C5 C4 109.5(6)
C6 C5 H5A 109.8
C4 C5 H5A 109.8
C6 C5 H5B 109.8
C4 C5 H5B 109.8
H5A C5 H5B 108.2
C5 C6 C7 113.4(5)
C5 C6 H6A 108.9
C7 C6 H6A 108.9
C5 C6 H6B 108.9
C7 C6 H6B 108.9
H6A C6 H6B 107.7
C8 C7 C12 111.0(5)
C8 C7 C6 110.5(5)
C12 C7 C6 108.5(5)
C8 C7 C11 107.8(5)
C12 C7 C11 108.6(6)
C6 C7 C11 110.4(6)
O1 C8 C7 110.9(4)
O1 C8 C9 102.9(5)
C7 C8 C9 116.5(5)
O1 C8 C3 99.8(5)
C7 C8 C3 115.8(5)
C9 C8 C3 109.0(5)
C10 C9 C8 102.8(5)
C10 C9 H9A 111.2
C8 C9 H9A 111.2
C10 C9 H9B 111.2
C8 C9 H9B 111.2
H9A C9 H9B 109.1
C9 C10 C1 100.9(5)
C9 C10 S1 108.9(4)
C1 C10 S1 116.7(4)
C9 C10 H10 110.0
C1 C10 H10 110.0
S1 C10 H10 110.0
C7 C11 H11A 109.5
C7 C11 H11B 109.5
H11A C11 H11B 109.5
C7 C11 H11C 109.5
H11A C11 H11C 109.5
H11B C11 H11C 109.5
C7 C12 H12A 109.5
C7 C12 H12B 109.5
H12A C12 H12B 109.5
C7 C12 H12C 109.5
H12A C12 H12C 109.5
H12B C12 H12C 109.5
C18 C13 C14 119.5(6)
C18 C13 C1 120.3(5)
C14 C13 C1 120.3(5)
C15 C14 C13 120.6(5)
C15 C14 H14 119.7
C13 C14 H14 119.7
C14 C15 C16 118.2(5)
C14 C15 H15 120.9
C16 C15 H15 120.9
C15 C16 C17 121.7(6)
C15 C16 N1 118.5(5)
C17 C16 N1 119.7(5)
C18 C17 C16 118.7(5)
C18 C17 H17 120.7
C16 C17 H17 120.7
C17 C18 C13 121.4(5)
C17 C18 H18 119.3
C13 C18 H18 119.3
C23 C19 H19A 109.5
C23 C19 H19B 109.5
H19A C19 H19B 109.5
C23 C19 H19C 109.5
H19A C19 H19C 109.5
H19B C19 H19C 109.5
C21 C20 C25 120.1(6)
C21 C20 S1 118.8(4)
C25 C20 S1 120.8(5)
C22 C21 C20 119.4(5)
C22 C21 H21 120.3
C20 C21 H21 120.3
C21 C22 C23 121.8(6)
C21 C22 H22 119.1
C23 C22 H22 119.1
C24 C23 C22 117.5(6)
C24 C23 C19 122.2(6)
C22 C23 C19 120.2(6)
C25 C24 C23 121.9(5)
C25 C24 H24 119.0
C23 C24 H24 119.0
C24 C25 C20 119.2(5)
C24 C25 H25 120.4
C20 C25 H25 120.4
O5 N1 O4 123.2(6)
O5 N1 C16 119.1(5)
O4 N1 C16 117.7(5)
C1 O1 C8 97.8(4)
O2 S1 O3 118.5(3)
O2 S1 C20 107.7(3)
O3 S1 C20 107.0(3)
O2 S1 C10 110.0(3)
O3 S1 C10 104.7(3)
C20 S1 C10 108.5(3)
loop_
_geom_bond_atom_site_label_1
_geom_bond_atom_site_label_2
_geom_bond_distance
C1 O1 1.423(6)
C1 C13 1.480(8)
C1 C2 1.548(8)
C1 C10 1.551(8)
C2 C3 1.543(8)
C2 H2A 0.9900
C2 H2B 0.9900
C3 C4 1.518(9)
C3 C8 1.550(8)
C3 H3 1.0000
C4 C5 1.517(10)
C4 H4A 0.9900
C4 H4B 0.9900
C5 C6 1.512(10)
C5 H5A 0.9900
C5 H5B 0.9900
C6 C7 1.528(9)
C6 H6A 0.9900
C6 H6B 0.9900
C7 C8 1.524(8)
C7 C12 1.526(9)
C7 C11 1.529(8)
C8 O1 1.459(7)
C8 C9 1.538(8)
C9 C10 1.532(9)
C9 H9A 0.9900
C9 H9B 0.9900
C10 S1 1.793(6)
C10 H10 1.0000
C11 H11A 0.9800
C11 H11B 0.9800
C11 H11C 0.9800
C12 H12A 0.9800
C12 H12B 0.9800
C12 H12C 0.9800
C13 C18 1.383(8)
C13 C14 1.388(8)
C14 C15 1.384(8)
C14 H14 0.9500
C15 C16 1.387(8)
C15 H15 0.9500
C16 C17 1.391(8)
C16 N1 1.447(8)
C17 C18 1.357(9)
C17 H17 0.9500
C18 H18 0.9500
C19 C23 1.488(9)
C19 H19A 0.9800
C19 H19B 0.9800
C19 H19C 0.9800
C20 C21 1.378(8)
C20 C25 1.399(8)
C20 S1 1.749(6)
C21 C22 1.375(9)
C21 H21 0.9500
C22 C23 1.392(8)
C22 H22 0.9500
C23 C24 1.386(9)
C24 C25 1.368(9)
C24 H24 0.9500
C25 H25 0.9500
N1 O5 1.216(6)
N1 O4 1.225(7)
O2 S1 1.429(4)
O3 S1 1.436(5)
