#------------------------------------------------------------------------------
#$Date: 2015-09-05 23:19:44 +0300 (Sat, 05 Sep 2015) $
#$Revision: 154512 $
#$URL: svn://www.crystallography.net/cod/cif/1/52/98/1529854.cif $
#------------------------------------------------------------------------------
#
# This file is available in the Crystallography Open Database (COD),
# http://www.crystallography.net/
#
# All data on this site have been placed in the public domain by the
# contributors.
#
data_1529854
loop_
_publ_author_name
'Xiao, Yonglong'
'Wang, Jinxin'
'Xia, Wenjing'
'Shu, Shuangjie'
'Jiao, Shenchao'
'Zhou, Yu'
'Liu, Hong'
_publ_section_title
;
 \g-Carbon Activation through N-Heterocyclic Carbene/Br\/onsted Acids
 Cooperative Catalysis: A Highly Enantioselective Route to \d-Lactams.
;
_journal_issue                   15
_journal_name_full               'Organic letters'
_journal_page_first              3850
_journal_page_last               3853
_journal_paper_doi               10.1021/acs.orglett.5b01827
_journal_volume                  17
_journal_year                    2015
_chemical_absolute_configuration rmad
_chemical_formula_moiety         'C18 H16 Br N O3 S'
_chemical_formula_sum            'C18 H16 Br N O3 S'
_chemical_formula_weight         406.29
_chemical_name_systematic
;
 ?
;
_space_group_crystal_system      orthorhombic
_space_group_IT_number           19
_space_group_name_Hall           'P 2ac 2ab'
_space_group_name_H-M_alt        'P 21 21 21'
_symmetry_space_group_name_Hall  'P 2ac 2ab'
_symmetry_space_group_name_H-M   'P 21 21 21'
_atom_sites_solution_hydrogens   geom
_atom_sites_solution_primary     direct
_audit_creation_date             2014-09-10
_audit_creation_method
;
Olex2 1.2
(compiled 2014.07.22 svn.r2960 for OlexSys, GUI svn.r4862)
;
_cell_angle_alpha                90
_cell_angle_beta                 90
_cell_angle_gamma                90
_cell_formula_units_Z            4
_cell_length_a                   7.9153(9)
_cell_length_b                   11.4655(13)
_cell_length_c                   18.152(2)
_cell_measurement_reflns_used    4301
_cell_measurement_temperature    130
_cell_measurement_theta_max      28.44
_cell_measurement_theta_min      2.24
_cell_volume                     1647.3(3)
_computing_cell_refinement       'SAINT v7.68A (Bruker, 2009)'
_computing_data_reduction        'SAINT v7.68A (Bruker, 2009)'
_computing_molecular_graphics    'Olex2 (Dolomanov et al., 2009)'
_computing_publication_material  'Olex2 (Dolomanov et al., 2009)'
_computing_structure_refinement  'XL (Sheldrick, 2008)'
_computing_structure_solution    'ShelXS (Sheldrick, 2008)'
_diffrn_ambient_temperature      130
_diffrn_measured_fraction_theta_full 1.000
_diffrn_measured_fraction_theta_max 1.000
_diffrn_measurement_device_type  'Bruker APEX-II CCD'
_diffrn_measurement_method       '\f and \w scans'
_diffrn_radiation_monochromator  graphite
_diffrn_radiation_type           MoK\a
_diffrn_radiation_wavelength     0.71073
_diffrn_reflns_av_R_equivalents  0.0442
_diffrn_reflns_av_unetI/netI     0.0672
_diffrn_reflns_laue_measured_fraction_full 1.000
_diffrn_reflns_laue_measured_fraction_max 1.000
_diffrn_reflns_limit_h_max       11
_diffrn_reflns_limit_h_min       -11
_diffrn_reflns_limit_k_max       16
_diffrn_reflns_limit_k_min       -15
_diffrn_reflns_limit_l_max       26
_diffrn_reflns_limit_l_min       -23
_diffrn_reflns_number            16518
_diffrn_reflns_point_group_measured_fraction_full 0.999
_diffrn_reflns_point_group_measured_fraction_max 0.999
_diffrn_reflns_theta_full        25.242
_diffrn_reflns_theta_max         30.608
_diffrn_reflns_theta_min         2.101
_diffrn_standards_number         0
_exptl_absorpt_coefficient_mu    2.638
_exptl_absorpt_correction_T_max  0.7461
_exptl_absorpt_correction_T_min  0.4327
_exptl_absorpt_correction_type   multi-scan
_exptl_absorpt_process_details
;
SADABS-2008/1 (Bruker,2008) was used for absorption correction.
wR2(int) was 0.1241 before and 0.0702 after correction.
The Ratio of minimum to maximum transmission is 0.5799.
The \l/2 correction factor is 0.0015.
;
_exptl_crystal_colour            colourless
_exptl_crystal_density_diffrn    1.638
_exptl_crystal_description       block
_exptl_crystal_F_000             824
_exptl_crystal_size_max          0.35
_exptl_crystal_size_mid          0.3
_exptl_crystal_size_min          0.22
_refine_diff_density_max         0.926
_refine_diff_density_min         -0.579
_refine_diff_density_rms         0.076
_refine_ls_abs_structure_details
;
 Flack x determined using 1577 quotients [(I+)-(I-)]/[(I+)+(I-)]
 (Parsons, Flack and Wagner, Acta Cryst. B69 (2013) 249-259).
;
_refine_ls_abs_structure_Flack   0.003(5)
_refine_ls_extinction_method     none
_refine_ls_goodness_of_fit_ref   0.989
_refine_ls_hydrogen_treatment    constr
_refine_ls_matrix_type           full
_refine_ls_number_parameters     218
_refine_ls_number_reflns         5070
_refine_ls_number_restraints     0
_refine_ls_restrained_S_all      0.989
_refine_ls_R_factor_all          0.0505
_refine_ls_R_factor_gt           0.0354
_refine_ls_shift/su_max          0.000
_refine_ls_shift/su_mean         0.000
_refine_ls_structure_factor_coef Fsqd
_refine_ls_weighting_details
'w=1/[\s^2^(Fo^2^)+(0.0177P)^2^] where P=(Fo^2^+2Fc^2^)/3'
_refine_ls_weighting_scheme      calc
_refine_ls_wR_factor_gt          0.0679
_refine_ls_wR_factor_ref         0.0718
_reflns_Friedel_coverage         0.760
_reflns_friedel_fraction_full    0.998
_reflns_friedel_fraction_max     0.997
_reflns_number_gt                4236
_reflns_number_total             5070
_reflns_threshold_expression     'I > 2\s(I)'
_cod_data_source_file            ol5b01827_si_001.cif
_cod_data_source_block           mo_dm14521_0m
_cod_original_cell_volume        1647.4(3)
_cod_database_code               1529854
_shelxl_version_number           2014-3
_shelx_space_group_comment
;
The symmetry employed for this shelxl refinement is uniquely defined
by the following loop, which should always be used as a source of
symmetry information in preference to the above space-group names.
They are only intended as comments.
;
_shelx_estimated_absorpt_t_max   0.594
_shelx_estimated_absorpt_t_min   0.459
_olex2_refinement_description
;
1. Fixed Uiso
 At 1.2 times of:
  All C(H) groups, All C(H,H) groups
 At 1.5 times of:
  All C(H,H,H) groups
2.a Ternary CH refined with riding coordinates:
 C5(H5)
2.b Secondary CH2 refined with riding coordinates:
 C4(H4A,H4B)
2.c Aromatic/amide H refined with riding coordinates:
 C2(H2), C3(H3), C7(H7), C8(H8), C10(H10), C11(H11), C13(H13), C14(H14),
 C16(H16), C17(H17)
2.d Idealised Me refined as rotating group:
 C18(H18A,H18B,H18C)
;
_shelx_res_file
;
TITL mo_dm14521_0m in P2(1)2(1)2(1)
CELL 0.71073 7.9153 11.4655 18.1521 90 90 90
ZERR 4 0.0009 0.0013 0.002 0 0 0
LATT -1
SYMM 0.5+X,0.5-Y,-Z
SYMM -X,0.5+Y,0.5-Z
SYMM 0.5-X,-Y,0.5+Z

SFAC C H Br N O S
UNIT 72 64 4 4 12 4
EQIV $1 1-X,0.5+Y,0.5-Z
EQIV $2 -0.5+X,1.5-Y,1-Z

L.S. 4
PLAN  -2 0 0
SIZE 0.22 0.3 0.35
TEMP -143.15
HTAB C5 O2_$1
HTAB C14 O1_$2
wpdb -1
BOND $H
MORE -1
CONF
fmap 2
acta
REM <HKL>D:/data/guest/dm14521/work/mo_dm14521_0m.hkl</HKL>

WGHT    0.017700
FVAR       0.18060
BR1   3    0.855487    0.759455   -0.091188    11.00000    0.03379    0.02881 =
         0.01868   -0.00651    0.00673   -0.00649
S1    6    0.539677    0.857067    0.278557    11.00000    0.01713    0.01967 =
         0.01713   -0.00213    0.00025   -0.00417
O1    5    0.857146    0.844902    0.352526    11.00000    0.02608    0.02965 =
         0.01950    0.00462   -0.00373    0.00090
O2    5    0.588292    0.737793    0.271579    11.00000    0.02955    0.01728 =
         0.02748   -0.00591    0.00455   -0.00307
O3    5    0.414379    0.902380    0.229849    11.00000    0.01916    0.03402 =
         0.01978   -0.00127   -0.00333   -0.00325
N1    4    0.708107    0.944141    0.265229    11.00000    0.01548    0.01933 =
         0.01456    0.00273   -0.00044   -0.00252
C1    1    0.854180    0.919909    0.304904    11.00000    0.01986    0.02421 =
         0.01692   -0.00390    0.00137    0.00164
C2    1    1.001213    0.993077    0.287812    11.00000    0.01668    0.03812 =
         0.02233   -0.00315   -0.00139   -0.00609
AFIX  43
H2    2    1.108749    0.971037    0.306423    11.00000   -1.20000
AFIX   0
C3    1    0.989071    1.088223    0.247555    11.00000    0.02732    0.03070 =
         0.02263   -0.00988    0.00505   -0.01453
AFIX  43
H3    2    1.086820    1.134749    0.239901    11.00000   -1.20000
AFIX   0
C4    1    0.827197    1.124561    0.213935    11.00000    0.03380    0.01598 =
         0.02253   -0.00381    0.00720   -0.00574
AFIX  23
H4A   2    0.850472    1.164531    0.166668    11.00000   -1.20000
H4B   2    0.770556    1.181066    0.246961    11.00000   -1.20000
AFIX   0
C5    1    0.708447    1.021823    0.199902    11.00000    0.01974    0.01702 =
         0.01686    0.00088    0.00282    0.00035
AFIX  13
H5    2    0.591719    1.054002    0.194336    11.00000   -1.20000
AFIX   0
C6    1    0.750287    0.955377    0.129561    11.00000    0.01599    0.01777 =
         0.01568    0.00032    0.00211   -0.00329
C7    1    0.697341    1.001613    0.062738    11.00000    0.02371    0.01990 =
         0.02175    0.00173    0.00123    0.00312
AFIX  43
H7    2    0.638873    1.073970    0.062293    11.00000   -1.20000
AFIX   0
C8    1    0.727652    0.944893   -0.003177    11.00000    0.02547    0.02886 =
         0.01390    0.00382    0.00010   -0.00329
AFIX  43
H8    2    0.689407    0.977141   -0.048409    11.00000   -1.20000
AFIX   0
C9    1    0.814505    0.840562   -0.002003    11.00000    0.01905    0.02564 =
         0.01527   -0.00339    0.00465   -0.00797
C10   1    0.873986    0.793960    0.063059    11.00000    0.01839    0.02072 =
         0.01885   -0.00181    0.00017    0.00316
AFIX  43
H10   2    0.937977    0.723864    0.062797    11.00000   -1.20000
AFIX   0
C11   1    0.839236    0.850748    0.129096    11.00000    0.01926    0.02106 =
         0.01867   -0.00130   -0.00255    0.00074
AFIX  43
H11   2    0.876591    0.817766    0.174259    11.00000   -1.20000
AFIX   0
C12   1    0.476637    0.885179    0.369342    11.00000    0.01286    0.01935 =
         0.01840   -0.00102    0.00033   -0.00498
C13   1    0.500248    0.801483    0.422843    11.00000    0.02305    0.01669 =
         0.02764    0.00178    0.00545    0.00109
AFIX  43
H13   2    0.557896    0.731084    0.411446    11.00000   -1.20000
AFIX   0
C14   1    0.439245    0.820723    0.493489    11.00000    0.02517    0.02126 =
         0.02291    0.00475    0.00212   -0.00122
AFIX  43
H14   2    0.453984    0.762855    0.530390    11.00000   -1.20000
AFIX   0
C15   1    0.356607    0.924377    0.510509    11.00000    0.01242    0.02232 =
         0.02043   -0.00136    0.00004   -0.00572
C16   1    0.336714    1.008273    0.455414    11.00000    0.01635    0.02136 =
         0.02384   -0.00137   -0.00399    0.00209
AFIX  43
H16   2    0.281209    1.079602    0.466521    11.00000   -1.20000
AFIX   0
C17   1    0.396551    0.988993    0.385087    11.00000    0.01791    0.01848 =
         0.01840    0.00082   -0.00412    0.00014
AFIX  43
H17   2    0.382732    1.046579    0.347943    11.00000   -1.20000
AFIX   0
C18   1    0.294724    0.947862    0.586929    11.00000    0.02340    0.02674 =
         0.02144   -0.00176    0.00185   -0.00462
AFIX 137
H18A  2    0.366719    1.006853    0.610184    11.00000   -1.50000
H18B  2    0.298776    0.875694    0.615803    11.00000   -1.50000
H18C  2    0.178127    0.976427    0.584876    11.00000   -1.50000
AFIX   0
HKLF 4

REM  mo_dm14521_0m in P2(1)2(1)2(1)
REM R1 =  0.0354 for    4236 Fo > 4sig(Fo)  and  0.0505 for all    5070 data
REM    218 parameters refined using      0 restraints

END

WGHT      0.0177      0.0000

REM Highest difference peak  0.926,  deepest hole -0.579,  1-sigma level  0.076
Q1    1   0.7738  0.8077 -0.0932  11.00000  0.05    0.93
Q2    1   0.9403  0.8041 -0.0908  11.00000  0.05    0.87
;
_shelx_res_checksum              68301
_shelx_hkl_file
;
   1   0   0    0.14    0.14
  -1   0   0    0.10    0.19
   2   0   0   25.94    1.94
  -2   0   0   24.72    1.95
  -3   0   0   -0.28    0.55
   3   0   0    0.04    0.45
   4   0   0  160.41   11.16
  -4   0   0  158.22   10.85
   5   0   0    0.13    0.84
  -5   0   0    0.13    1.01
  -6   0   0  128.04    9.20
   6   0   0  130.57    9.38
   7   0   0   -1.47    1.30
  -7   0   0    0.23    1.55
   8   0   0   10.30    2.02
  -8   0   0    9.12    2.20
   9   0   0    0.05    1.80
  -9   0   0   -0.31    2.13
 -10   0   0   17.19    3.05
  10   0   0   15.91    2.85
 -11   0   0    3.51    2.67
  11   0   0   -1.18    2.40
   0   1   0    0.31    0.09
   0   1   0    0.09    0.07
  -1   1   0  311.51   19.69
   1   1   0  278.32   20.47
  -1   1   0  305.05   20.43
   2   1   0  852.70   59.53
  -2   1   0  885.53   57.32
   2  -1   0  870.63   59.46
   3   1   0  137.68    9.82
  -3   1   0  145.99    9.45
   3  -1   0  141.04    9.75
  -3  -1   0  136.70    9.26
   4  -1   0  160.06   11.17
  -4  -1   0  154.87   10.92
  -4   1   0  160.25   10.84
   4   1   0  164.11   11.27
   5  -1   0    4.82    1.01
  -5   1   0    3.81    1.14
  -5  -1   0    1.64    1.15
   5   1   0    3.76    1.04
  -6   1   0  169.01   11.73
   6   1   0  165.57   12.10
  -6  -1   0  170.47   11.80
   6  -1   0  172.65   12.04
  -7   1   0   12.75    2.13
   7   1   0   18.26    2.13
   7  -1   0   14.21    1.97
  -7  -1   0   12.68    2.16
  -8   1   0   22.39    3.05
   8   1   0   31.67    3.43
  -8  -1   0   26.12    3.12
   8  -1   0   30.93    3.08
  -9   1   0    6.48    2.36
  -9  -1   0    4.81    2.27
   9   1   0    6.26    2.06
   9  -1   0    3.46    2.01
 -10   1   0    0.02    2.45
 -10  -1   0    2.08    2.38
  10   1   0    1.81    2.15
  10  -1   0   -3.58    2.08
 -11   1   0    4.38    2.48
 -11   1   0    1.26    2.70
  11   1   0   -2.50    2.24
 -11  -1   0    3.15    2.63
   0   2   0   15.66    1.18
   0   2   0   15.75    1.14
   1   2   0  305.95   21.84
  -1   2   0  327.29   21.81
   1   2   0  322.68   21.04
  -1   2   0  317.50   21.01
  -2   2   0  155.89   10.57
  -2   2   0  153.45   10.19
   2   2   0  149.69   10.67
  -3   2   0  299.95   20.56
  -3   2   0  302.81   19.84
   3   2   0  294.42   20.68
  -4  -2   0  290.78   20.19
   4   2   0  309.39   21.25
  -4   2   0  313.88   20.41
   4  -2   0  312.45   21.14
   5   2   0   24.52    2.52
  -5  -2   0   23.87    2.39
   5  -2   0   26.31    2.35
  -5  -2   0   25.51    1.88
  -5   2   0   23.40    2.23
   6  -2   0   33.59    2.85
  -6  -2   0   28.56    2.83
  -6   2   0   26.46    2.68
   6   2   0   26.88    2.96
  -7  -2   0   18.98    2.56
   7  -2   0   21.54    2.42
  -7   2   0   22.32    2.57
   7   2   0   26.53    2.61
  -8  -2   0    8.28    2.09
  -8   2   0    6.40    1.84
   8   2   0    6.98    1.84
   8  -2   0    5.51    1.79
  -8   2   0    5.99    2.11
  -9  -2   0    3.58    2.10
   9   2   0    0.85    1.79
   9  -2   0   -3.58    1.78
  -9   2   0   -0.62    2.13
  -9   2   0    0.11    1.85
 -10   2   0   28.88    3.75
 -10  -2   0   29.03    3.63
  10   2   0   35.99    3.76
 -10   2   0   30.63    3.97
 -11   2   0    3.90    2.46
 -11   2   0    1.14    2.84
  11   2   0    1.23    2.30
 -11  -2   0    6.72    2.62
   0   3   0    0.23    0.25
   0   3   0    0.30    0.27
  -1   3   0  134.73    9.04
  -1   3   0  129.83    8.71
   1   3   0  131.39    8.73
   1   3   0  128.08    9.07
   2   3   0   90.62    6.43
  -2   3   0   88.68    6.09
  -2   3   0   91.68    6.32
  -3   3   0  107.06    7.32
  -3   3   0  111.90    7.59
   3   3   0  105.69    7.73
  -4   3   0   67.90    4.90
   4   3   0   67.02    5.19
  -4   3   0   71.62    5.03
   5   3   0   74.07    5.57
  -5  -3   0   70.45    5.02
  -5   3   0   74.78    5.41
  -5   3   0   72.78    5.31
  -6  -3   0    9.80    1.70
  -6   3   0    7.78    1.53
   6   3   0    8.62    1.51
  -6   3   0    9.15    1.44
   7   3   0   27.94    2.87
  -7  -3   0   26.96    2.93
  -7   3   0   28.70    2.80
  -7   3   0   27.18    2.89
  -8  -3   0   39.17    4.04
  -8   3   0   36.85    3.97
  -8   3   0   36.65    3.69
   8   3   0   37.03    3.76
  -9   3   0   13.00    2.77
   9   3   0   15.72    2.48
  -9   3   0   14.62    2.54
  -9  -3   0   19.54    2.73
 -10  -3   0   10.32    2.57
  10   3   0   10.02    2.40
 -10   3   0    6.07    2.51
 -10   3   0    8.36    2.88
 -11   3   0   -1.78    2.81
  11   3   0   -1.59    2.16
 -11  -3   0    4.39    2.50
   0   4   0  229.11   15.61
   0   4   0  224.13   15.02
   1   4   0   31.39    2.38
  -1   4   0   30.83    2.30
   1   4   0   30.45    2.25
  -1   4   0   31.06    2.23
   2   4   0  152.17   10.50
  -2   4   0  147.83   10.40
  -2   4   0  148.03   10.02
   2   4   0  152.54   10.09
   3   4   0  220.47   15.49
  -3   4   0  221.60   15.34
  -3   4   0  223.90   14.80
  -4   4   0  134.05    9.39
  -4   4   0  139.09    9.72
   4   4   0  142.01    9.91
  -5   4   0    0.14    0.95
  -5   4   0   -0.22    0.81
   5   4   0    0.19    0.94
  -6   4   0    5.84    1.41
  -6   4   0    7.02    1.36
   6   4   0    6.91    1.42
  -7   4   0    1.96    1.36
  -7  -4   0    4.19    1.70
   7   4   0    1.28    1.34
  -7   4   0    1.00    1.50
  -8   4   0   24.45    2.85
   8   4   0   21.39    2.70
  -8   4   0   26.77    3.04
  -8  -4   0   27.26    3.00
  -9   4   0    1.38    2.00
  -9  -4   0    4.52    2.14
  -9   4   0    2.75    2.28
   9   4   0    3.98    1.70
 -10   4   0    0.69    2.53
  10   4   0    2.27    1.97
 -10   4   0    2.30    2.28
   0   5   0   -0.21    0.44
   0   5   0    1.33    0.50
  -1   5   0   35.37    2.66
   1   5   0   36.03    2.81
   1   5   0   39.81    2.71
  -1   5   0   36.24    2.78
   2   5   0  129.49    9.28
  -2   5   0  129.99    9.19
   2   5   0  137.69    8.93
  -2   5   0  130.78    8.86
   3   5   0    2.89    0.88
  -3   5   0    2.24    0.73
  -3   5   0    3.59    0.77
  -4   5   0    2.48    0.81
  -4   5   0    2.05    0.86
   4   5   0    1.62    0.92
  -5   5   0    9.43    1.40
   5   5   0   14.05    1.67
  -5   5   0   10.19    1.40
   6   5   0   15.61    1.90
  -6   5   0   13.72    1.84
  -6  -5   0   13.56    1.47
  -6   5   0   13.46    1.76
  -7   5   0    0.90    1.39
   7   5   0    0.42    1.23
  -7   5   0   -1.59    1.51
  -8   5   0   53.27    4.92
   8   5   0   50.49    4.61
  -8  -5   0   62.27    4.94
  -8   5   0   47.52    4.83
  -9   5   0   -0.43    2.25
   9   5   0    1.68    1.54
  -9   5   0    0.93    2.04
  -9  -5   0    2.58    2.06
  10   5   0    9.55    2.05
 -10   5   0    7.38    2.97
 -10  -5   0   11.73    2.65
 -10   5   0   11.32    2.79
   0   6   0   59.64    4.17
   0   6   0   59.23    4.36
   1   6   0  109.32    7.76
  -1   6   0  111.55    7.42
  -1   6   0  106.32    7.70
   1   6   0  111.32    7.44
  -2   6   0    9.93    1.02
  -2   6   0    9.96    1.08
   2   6   0    7.47    1.15
   2   6   0   10.32    1.12
   3   6   0    0.77    0.83
  -3   6   0    0.90    0.75
  -3   6   0   -0.26    0.68
  -4   6   0  114.83    7.92
  -4   6   0  114.59    8.18
   4   6   0  113.78    8.35
  -5   6   0    2.22    1.06
   5   6   0    2.89    1.19
  -5   6   0    3.03    1.18
  -6   6   0    1.70    1.36
  -6   6   0    2.37    1.22
   6   6   0    2.43    1.26
  -7   6   0    7.08    1.70
   7   6   0    9.76    1.73
  -7   6   0    9.84    1.90
  -8   6   0   35.60    3.49
  -8  -6   0   29.92    3.34
  -8   6   0   30.70    3.29
   8   6   0   29.46    3.32
  -9   6   0    4.95    2.18
  -9  -6   0    7.79    2.38
  -9   6   0    9.16    2.61
   9   6   0    5.66    1.75
  10   6   0    5.76    1.86
 -10  -6   0    6.36    2.47
 -10   6   0    2.71    2.82
   0   7   0    0.53    0.70
   0   7   0   -0.18    0.64
   1   7   0    0.91    0.77
  -1   7   0    0.26    0.71
   1   7   0    0.30    0.68
  -1   7   0    0.76    0.65
   2   7   0   62.07    4.68
  -2   7   0   62.24    4.58
   2   7   0   60.46    4.41
  -2   7   0   60.71    4.39
  -3   7   0    5.86    0.99
   3   7   0    4.15    1.11
  -3   7   0    5.02    1.00
  -4   7   0   12.40    1.44
  -4   7   0   11.10    1.43
   4   7   0   10.23    1.60
   5   7   0   34.02    3.34
  -5   7   0   36.04    3.22
  -5   7   0   32.32    3.12
   6   7   0   31.60    3.26
  -6   7   0   31.02    2.88
  -6   7   0   28.20    3.12
  -7   7   0   21.89    2.57
  -7   7   0   23.23    2.66
   7   7   0   21.53    2.51
  -8   7   0   14.77    2.57
   8   7   0   15.96    2.26
  -8   7   0   19.29    2.54
  -9   7   0    2.83    2.08
   9   7   0    1.47    1.58
  -9  -7   0    2.97    2.31
  -9   7   0    1.68    2.37
 -10   7   0    2.38    2.83
 -10  -7   0    4.32    2.55
  10   7   0    4.12    1.75
   0   8   0  198.47   13.33
   0   8   0  199.32   13.89
  -1   8   0    7.37    1.15
  -1   8   0    8.40    1.08
   1   8   0    7.96    1.22
   1   8   0    8.26    1.13
   2   8   0   10.40    1.46
  -2   8   0   11.53    1.27
   2   8   0   10.72    1.31
  -2   8   0   10.38    1.35
   3   8   0    2.04    1.11
  -3   8   0    3.95    1.05
   3   8   0    3.46    1.10
  -3   8   0    3.16    1.03
   4   8   0   62.59    5.05
  -4   8   0   60.22    4.75
  -4   8   0   61.62    4.64
   5   8   0    3.87    1.40
  -5   8   0    3.11    1.26
  -5   8   0    4.83    1.40
  -6   8   0   25.45    2.74
  -6   8   0   30.26    2.82
   6   8   0   28.27    3.12
   7   8   0    1.80    1.44
  -7   8   0    2.45    1.62
  -7   8   0   -0.86    1.68
  -8   8   0    0.82    1.82
   8   8   0    1.66    1.53
  -8   8   0   -2.92    2.03
  -9   8   0    2.52    2.55
   9   8   0    4.48    1.88
  -9  -8   0    2.92    2.38
   0   9   0    0.85    0.86
   0   9   0    0.40    0.98
  -1   9   0    0.29    0.97
   1   9   0    0.99    1.02
  -1   9   0    0.36    0.87
   1   9   0    0.64    0.92
  -2   9   0   11.97    1.45
  -2   9   0    9.33    1.31
   2   9   0    8.11    1.33
   2   9   0   10.29    1.54
  -3   9   0    0.33    0.99
   3   9   0    2.00    1.20
   3   9   0   -0.62    1.08
  -3   9   0   -0.27    1.04
   4   9   0   63.28    5.18
  -4   9   0   60.44    4.76
  -4   9   0   62.87    4.92
   5   9   0   21.13    2.66
  -5   9   0   29.68    2.97
  -5   9   0   24.78    2.51
  -6   9   0   37.59    3.61
   6   9   0   29.48    3.45
  -6   9   0   32.72    3.42
   7   9   0    0.83    1.52
  -7   9   0    3.08    1.90
  -7   9   0    2.73    1.68
   8   9   0    1.16    1.63
  -8   9   0    2.70    2.22
  -9   9   0    2.42    2.52
   9   9   0    0.86    1.67
  -9  -9   0    1.84    2.37
   0  10   0  119.96    8.29
   0  10   0  120.44    8.72
   1  10   0    6.52    1.25
  -1  10   0    8.17    1.27
  -1  10   0    6.40    1.36
   1  10   0    7.93    1.47
   2  10   0   19.20    1.93
  -2  10   0   17.85    2.01
  -2  10   0   20.45    1.89
   2  10   0   15.65    2.06
   3  10   0   27.40    2.93
  -3  10   0   27.54    2.43
   3  10   0   23.83    2.67
  -3  10   0   24.27    2.78
   4  10   0   12.11    2.01
  -4  10   0   15.46    1.88
  -4  10   0   13.32    1.89
   5  10   0   -0.06    1.47
  -5  10   0    1.31    1.43
  -5  10   0   -0.80    1.38
  -6  10   0    2.39    1.64
  -6  10   0    0.20    1.68
   6  10   0    1.66    1.54
  -7  10   0    0.59    1.90
  -7  10   0    0.61    1.75
   7  10   0    0.23    1.56
  -8  10   0    0.09    2.15
   8  10   0   -0.68    1.60
   0  11   0    2.17    1.16
   0  11   0    0.89    1.26
   1  11   0   56.32    4.36
  -1  11   0   56.27    4.61
   1  11   0   56.07    4.72
  -1  11   0   57.33    4.30
   2  11   0   42.36    3.81
   2  11   0   40.14    3.46
  -2  11   0   39.41    3.69
  -2  11   0   39.61    3.61
  -3  11   0   12.27    1.67
  -3  11   0   12.30    1.79
   3  11   0    9.29    1.70
   3  11   0    9.05    1.85
  -4  11   0   33.18    3.50
  -4  11   0   36.39    3.60
   4  11   0   35.24    3.70
   5  11   0   -0.70    1.51
  -5  11   0    0.51    1.55
  -5  11   0    0.75    1.52
  -6  11   0   36.48    3.87
   6  11   0   31.27    3.72
  -6  11   0   39.39    3.95
   7  11   0    3.59    1.76
   8  11   0   18.76    2.62
   0  12   0   43.05    4.12
   0  12   0   45.90    3.71
  -1  12   0    8.14    1.44
   1  12   0    3.63    1.57
  -1  12   0    7.36    1.66
   1  12   0    7.44    1.49
   2  12   0   -1.08    1.28
  -2  12   0   -0.68    1.27
   2  12   0    0.50    1.44
  -2  12   0   -0.16    1.42
   3  12   0   20.13    2.20
  -3  12   0   19.43    2.10
   3  12   0   15.15    2.35
  -3  12   0   15.52    2.22
  -4  12   0   59.60    5.03
  -4  12   0   55.70    4.93
   4  12   0   59.38    5.24
  -5  12   0   11.32    2.14
   5  12   0   10.82    2.19
  -6  12   0    6.58    2.07
   6  12   0    6.06    2.00
   7  12   0   14.28    2.48
   0  13   0    0.87    1.54
   0  13   0    0.19    1.37
  -1  13   0   12.75    2.06
  -1  13   0   12.81    1.81
   1  13   0   12.39    2.11
   1  13   0   11.08    1.82
  -2  13   0   34.09    3.87
   2  13   0   39.75    3.53
   2  13   0   37.83    3.85
  -2  13   0   35.36    3.36
   3  13   0    3.77    1.81
  -3  13   0    6.84    1.89
   4  13   0   -0.19    1.71
  -4  13   0    1.37    1.73
  -5  13   0    2.42    1.94
   5  13   0    1.81    1.89
   6  13   0    1.51    1.90
   0  14   0   -0.62    1.66
   0  14   0   -0.94    1.49
   1  14   0   18.48    2.27
   1  14   0   21.66    2.67
  -1  14   0   15.08    2.47
  -2  14   0   -0.71    1.71
   2  14   0    2.21    1.78
   2  14   0    2.01    1.62
   3  14   0   30.29    3.46
  -3  14   0   28.59    3.20
   4  14   0    0.60    1.97
  -4  14   0    0.92    1.95
   5  14   0   13.76    2.62
   0  15   0    0.56    1.86
  -1  15   0    2.45    1.97
   1  15   0    2.99    2.04
   2  15   0   -0.08    1.94
  -2  15   0   -1.16    1.90
   3  15   0   -1.55    2.01
  -3  15   0   -0.23    2.05
   4  15   0    8.80    2.47
   0  16   0    7.81    2.45
   1  16   0    9.69    2.51
  -1  16   0    8.52    2.42
   2  16   0   -3.33    2.06
  -2  16   0   -2.66    2.07
   0   0  -1   -0.02    0.02
   0   0   1   -0.03    0.02
   0   0   1    0.01    0.02
   0   0  -1   -0.03    0.01
   0   0   1   -0.01    0.03
   1   0   1  337.61   22.10
  -1   0   1  354.51   22.23
   1   0   1  320.52   23.06
  -1   0  -1  339.67   22.10
  -1   0   1  340.21   22.12
   1   0  -1  327.46   23.06
  -2   0   1   46.17    3.13
  -2   0   1   43.95    2.98
   2   0  -1   43.34    3.19
   2   0   1   44.57    3.20
  -3   0   1    0.78    0.59
   3   0   1    0.17    0.47
  -3   0   1    1.24    0.26
   3   0  -1   -0.12    0.45
  -3   0  -1    0.11    0.59
   4   0  -1    7.08    0.95
  -4   0   1    5.19    1.02
   4   0   1    6.52    0.96
  -4   0  -1    5.69    1.08
   5   0   1    8.69    1.26
  -5   0   1    9.78    1.42
   5   0  -1    6.84    1.18
  -5   0  -1    6.08    1.32
   6   0   1   59.93    4.54
  -6   0  -1   50.91    4.56
  -6   0   1   53.80    4.58
   6   0  -1   53.86    4.38
   7   0   1   16.01    2.10
   7   0  -1   14.28    2.03
  -7   0  -1   15.72    2.21
  -7   0   1   13.48    2.17
  -8   0   1   22.15    2.89
   8   0   1   28.00    2.95
   8   0  -1   24.16    2.81
  -8   0  -1   22.62    2.92
  -9   0  -1   -0.94    2.05
   9   0  -1    0.65    1.78
   9   0   1   -0.79    1.85
  -9   0   1   -0.03    2.13
 -10   0  -1   -0.29    2.29
  10   0   1   -1.70    2.13
  10   0  -1    0.37    2.03
 -10   0   1    0.04    2.42
 -11   0  -1    9.24    2.87
 -11   0   1    5.42    2.81
  11   0   1    3.74    2.67
  11   0  -1    4.37    2.54
   0   1  -1  148.31   10.07
   0   1  -1  155.90   10.48
   0  -1   1  156.36   10.07
   0   1   1  148.61   10.09
   0   1   1  154.80   10.47
  -1   1   1  132.31    7.40
   1   1  -1  132.45    7.71
  -1   1  -1  104.51    7.38
   1   1   1   96.43    7.71
  -1   1  -1  101.34    7.67
   1   1   1  102.64    7.41
   2   1  -1  238.71   16.57
   2  -1   1  250.94   16.52
  -2  -1   1  239.40   15.84
   2  -1  -1  235.18   16.49
   2   1   1  239.00   16.58
  -2   1  -1  239.60   15.93
   3   1  -1   16.49    1.68
   3  -1   1   15.68    1.54
  -3   1   1   15.97    1.65
   3  -1  -1   19.66    1.55
  -3   1  -1   18.22    1.67
  -3  -1   1   19.71    1.40
  -3  -1   1   20.64    1.86
   3   1   1   20.21    1.79
   4  -1   1  177.68   12.06
  -4   1   1  180.47   11.69
   4   1  -1  180.49   12.12
  -4  -1   1  175.33   11.78
   4   1   1  170.83   12.14
  -4  -1   1  162.76   11.42
   4  -1  -1  168.51   12.03
  -4   1  -1  169.06   11.68
  -5   1   1   58.46    4.63
   5  -1   1   61.59    4.61
  -5  -1  -1   60.48    4.76
   5   1  -1   63.60    4.70
   5  -1  -1   63.71    4.60
   5   1   1   58.80    4.75
  -5  -1   1   58.69    4.76
  -5   1  -1   60.27    4.66
   6   1  -1   86.40    5.71
   6  -1   1   83.21    5.66
  -6   1   1   79.07    5.66
  -6  -1  -1   77.23    5.70
   6  -1  -1   66.61    5.52
  -6  -1   1   61.71    5.61
   6   1   1   67.29    5.74
  -6   1  -1   61.94    5.58
   7   1  -1    7.82    1.63
  -7  -1  -1    7.80    1.79
   7  -1   1    7.65    1.63
  -7   1   1    7.32    1.84
  -7  -1   1    7.28    1.86
   7   1   1    6.51    1.67
  -7   1  -1    5.58    1.76
   7  -1  -1    7.00    1.55
   8  -1   1    8.63    1.98
  -8  -1  -1    6.29    2.09
   8   1  -1   11.05    1.96
  -8   1   1    8.41    2.20
  -8   1  -1    9.76    2.22
  -8  -1   1   11.28    2.23
   8  -1  -1    7.17    1.82
   8   1   1   10.98    2.11
  -9   1   1    3.00    2.27
   9   1  -1    2.33    1.80
   9  -1   1    1.03    1.96
  -9  -1  -1    2.76    2.21
   9  -1  -1    3.30    1.92
  -9   1  -1    2.68    2.20
  -9  -1   1    4.91    2.19
   9   1   1    5.33    2.05
 -10  -1  -1    5.60    2.48
  10  -1   1    3.95    2.48
  10   1  -1    6.82    2.32
 -10   1   1    6.32    2.77
 -10  -1   1   10.87    2.71
  10  -1  -1   10.25    2.58
 -10   1  -1   11.60    2.84
 -10   1  -1   14.57    2.68
  10   1   1    9.26    2.51
 -11  -1  -1    9.41    2.74
 -11   1   1    1.97    2.33
 -11   1   1   -0.05    2.73
  11   1  -1   -2.69    2.18
  11   1   1    0.20    2.38
 -11  -1   1    4.50    2.70
 -11   1  -1    3.42    2.74
 -11   1  -1    2.76    2.53
   0   2   1  384.56   25.46
   0   2   1  379.36   26.41
   0   2  -1  379.60   25.44
   0   2  -1  399.48   26.42
   1   2  -1  265.68   19.75
  -1   2   1  285.69   19.72
  -1   2   1  285.37   19.03
   1   2   1  288.43   19.80
  -1   2  -1  297.64   19.00
   1   2   1  297.98   19.04
  -1   2  -1  296.37   19.75
  -2   2   1 1000.00   65.66
  -2   2   1  970.31   63.30
   2   2  -1  968.55   65.75
  -2   2  -1  979.48   65.68
  -2   2  -1  958.19   63.28
   2   2   1  888.55   65.76
  -3   2   1    5.09    0.78
  -3   2   1    5.86    0.74
   3   2  -1    5.09    0.87
   3   2   1    6.62    0.94
  -3   2  -1    8.69    0.84
   3  -2  -1   10.38    0.99
  -3   2  -1    8.28    0.82
   4   2  -1  149.00   10.44
   4  -2   1  146.88   10.34
  -4   2   1  153.06   10.02
  -4  -2   1  140.48    9.83
  -4   2  -1  154.69   10.03
   4  -2  -1  144.05   10.31
   4   2   1  150.81   10.49
  -4   2  -1  144.68   10.33
  -5   2   1    2.09    1.02
   5   2  -1    1.80    0.94
   5  -2   1    2.28    0.88
   5   2   1    0.23    0.93
  -5  -2   1    1.04    0.53
   5  -2  -1    2.53    0.86
  -5  -2   1    1.62    1.15
  -5   2  -1    1.29    1.00
   6  -2   1   37.16    3.22
  -6   2   1   33.88    3.43
  -6  -2  -1   38.02    3.60
   6   2  -1   39.93    3.48
   6  -2  -1   37.35    3.19
  -6   2  -1   29.00    3.38
   6   2   1   37.37    3.54
  -6  -2   1   35.65    3.57
  -7   2   1   40.01    3.98
  -7  -2  -1   40.94    4.03
   7   2  -1   41.16    3.90
   7  -2   1   39.52    3.76
   7   2   1   37.69    3.84
   7  -2  -1   42.04    3.65
  -7  -2   1   41.51    4.06
  -7   2  -1   38.32    3.95
  -8  -2  -1   17.32    2.49
   8   2  -1   18.12    2.33
   8  -2   1   14.39    2.32
  -8   2   1   16.86    2.61
  -8   2  -1   16.65    2.57
  -8  -2   1   16.84    2.51
   8  -2  -1   14.51    2.28
  -8   2  -1   15.03    2.35
   8   2   1   17.48    2.41
  -9   2   1   -1.18    2.16
  -9  -2  -1    3.12    2.07
   9   2  -1   -0.29    1.73
  -9   2   1    3.00    1.86
  -9  -2   1    5.72    2.23
  -9   2  -1    1.06    2.25
   9   2   1    1.40    1.90
  -9   2  -1    0.38    1.93
   9  -2  -1   -2.14    1.77
  10   2  -1    7.90    2.37
 -10   2   1    8.47    2.88
 -10  -2  -1   11.36    2.70
 -10   2   1   10.88    2.69
 -10   2  -1   11.45    2.90
  10   2   1   10.90    2.53
 -10  -2   1   17.85    2.80
 -10   2  -1    9.13    2.70
  11   2  -1   -0.95    2.20
 -11   2   1    4.11    2.95
 -11  -2  -1    4.02    2.54
 -11   2  -1   -1.38    2.41
 -11  -2   1    8.19    2.72
  11   2   1    3.07    2.40
 -11   2  -1    2.61    2.85
   0   3   1  445.82   30.62
   0   3  -1  449.73   30.63
   0   3   1  441.39   29.51
   0   3  -1  452.96   29.49
   1   3  -1  222.16   14.42
  -1   3   1  220.48   13.87
   1   3  -1  222.52   13.88
  -1   3   1  217.83   14.38
  -1   3  -1  193.79   13.84
   1   3   1  198.10   14.42
   1   3   1  201.98   13.88
  -1   3  -1  198.66   14.39
   2   3  -1   45.74    2.95
  -2   3   1   43.09    2.74
  -2   3   1   42.42    2.79
   2   3   1   35.94    2.95
  -2   3  -1   33.90    2.80
   2   3   1   33.38    2.79
  -2   3  -1   35.52    2.70
  -3   3   1   25.05    2.18
  -3   3   1   23.64    2.10
   3   3  -1   28.19    2.36
  -3   3  -1   29.55    2.14
  -3   3  -1   30.92    2.20
   3   3   1   25.46    2.36
  -4   3   1  260.56   19.02
   4   3  -1  273.60   19.84
  -4   3   1  276.55   19.70
  -4   3  -1  304.61   19.74
   4   3   1  297.24   19.88
  -4   3  -1  301.72   19.03
  -5   3   1   68.53    5.39
  -5   3   1   67.14    5.35
   5   3  -1   65.98    5.55
  -5   3  -1   77.91    5.44
  -5   3  -1   77.77    5.31
  -5  -3   1   71.45    5.05
   5   3   1   83.19    5.67
   6   3  -1   68.98    5.02
  -6   3   1   64.49    5.05
  -6   3   1   68.39    4.96
  -6   3  -1   60.10    4.93
   6   3   1   57.74    5.07
  -6   3  -1   59.62    4.92
  -6  -3   1   63.47    5.16
   7   3  -1    5.98    1.51
  -7  -3  -1    6.39    1.79
  -7   3   1    5.40    1.73
  -7   3   1    5.69    1.50
   7   3   1    5.55    1.58
  -7  -3   1    6.53    1.78
  -7   3  -1    5.07    1.68
  -7   3  -1    9.27    1.66
  -8   3   1   22.95    2.85
  -8   3   1   24.49    2.67
  -8  -3  -1   22.31    2.75
   8   3  -1   24.45    2.62
  -8   3  -1   17.97    2.73
   8   3   1   17.06    2.50
  -8   3  -1   18.67    2.58
  -8  -3   1   18.06    2.71
  -9  -3  -1   30.32    3.25
  -9   3   1   26.22    3.09
  -9   3   1   26.20    3.37
   9   3  -1   26.43    3.02
  -9   3  -1   22.70    3.08
   9   3   1   25.15    3.08
  -9  -3   1   22.55    3.07
  -9   3  -1   19.96    3.26
 -10  -3  -1   13.28    2.71
  10   3  -1   15.55    2.55
 -10   3   1    8.44    2.89
 -10   3   1    6.71    2.47
 -10   3  -1   10.92    2.94
  10   3   1   14.87    2.64
 -10   3  -1    8.22    2.61
 -10  -3   1   14.92    2.75
 -11  -3  -1    6.04    2.57
 -11   3   1   -0.79    2.87
  11   3  -1    1.91    2.19
 -11  -3   1    7.03    2.64
 -11   3  -1    1.47    2.60
 -11   3  -1    1.12    2.84
  11   3   1    3.13    2.33
   0   4   1    1.54    0.40
   0   4  -1    1.08    0.35
   0   4  -1    0.97    0.41
   0   4   1    0.94    0.38
  -1   4   1   21.99    1.61
   1   4  -1   21.29    1.66
  -1   4   1   21.14    1.60
   1   4  -1   22.05    1.59
   1   4   1   18.74    1.58
  -1   4  -1   19.02    1.61
  -1   4  -1   18.16    1.51
   1   4   1   18.19    1.67
  -2   4   1  133.13    8.16
   2   4  -1  139.46    8.54
  -2   4   1  137.86    8.43
   2   4   1  110.79    8.16
  -2   4  -1  111.14    8.44
  -2   4  -1  108.84    8.10
   2   4   1  107.57    8.52
  -3   4   1  506.24   34.25
  -3   4   1  516.31   33.05
   3   4  -1  498.22   34.38
   3   4   1  500.71   34.42
  -3   4  -1  484.10   33.01
  -3   4  -1  492.14   34.28
  -4   4   1    5.46    0.99
   4   4  -1    5.35    1.11
  -4   4   1    5.56    0.92
  -4   4  -1   10.53    1.05
  -5   4   1   19.82    2.01
  -5   4   1   17.81    1.83
   5   4  -1   18.41    1.96
   5   4   1   17.20    1.98
  -5  -4   1   19.23    1.90
  -5   4  -1   17.33    1.82
  -5   4  -1   20.01    2.12
  -6   4   1   61.43    5.52
   6   4  -1   68.78    5.71
  -6   4   1   65.44    5.58
  -6   4  -1   82.64    5.64
  -6  -4   1   79.12    5.19
   6   4   1   76.76    5.76
  -6   4  -1   82.17    5.72
  -7   4   1   19.10    2.35
  -7  -4  -1   18.70    2.43
  -7   4   1   18.52    2.23
   7   4  -1   17.37    2.19
   7   4   1   20.99    2.35
  -7  -4   1   19.63    2.50
  -7   4  -1   21.71    2.36
  -7   4  -1   18.77    2.32
  -8  -4  -1   21.56    2.81
   8   4  -1   25.34    2.67
  -8   4   1   21.56    2.65
  -8   4   1   18.77    2.74
  -8  -4   1   21.70    2.83
   8   4   1   23.38    2.68
  -8   4  -1   20.27    2.76
  -8   4  -1   23.90    2.78
  -9  -4  -1    3.98    2.13
  -9   4   1    0.80    1.93
   9   4  -1    2.19    1.60
  -9   4   1   -0.90    2.21
  -9   4  -1   -2.29    2.08
  -9  -4   1    2.21    2.08
  -9   4  -1   -1.34    1.91
   9   4   1    0.39    1.52
 -10   4   1    2.95    2.65
 -10  -4  -1    9.62    2.50
  10   4  -1    6.82    2.15
 -10   4  -1    6.71    2.77
 -10  -4   1   10.21    2.50
 -10   4  -1    3.92    2.49
  10   4   1    5.55    2.18
   0   5   1  216.36   14.34
   0   5   1  214.84   14.88
   0   5  -1  220.15   14.32
   0   5  -1  211.42   14.89
   1   5  -1   59.68    3.96
  -1   5   1   60.32    3.92
  -1   5   1   60.97    3.80
   1   5  -1   59.44    3.78
   1   5   1   48.59    3.77
  -1   5  -1   49.92    3.93
   1   5   1   48.62    3.96
  -1   5  -1   45.92    3.72
  -2   5   1   17.41    1.71
   2   5  -1   19.98    1.91
   2   5  -1   17.24    1.78
  -2   5   1   17.65    1.77
   2   5   1   21.88    1.80
   2   5   1   25.45    2.03
  -2   5  -1   21.48    1.73
  -2   5  -1   23.16    1.82
  -3   5   1   86.70    5.90
   3   5  -1   84.81    6.22
  -3   5   1   87.23    6.04
   3   5   1   81.33    6.23
  -3   5  -1   82.89    5.84
  -3   5  -1   85.16    6.09
  -4   5   1   41.61    3.14
   4   5  -1   44.29    3.42
  -4   5   1   41.75    3.13
   4   5   1   36.53    3.38
  -4   5  -1   37.96    3.11
  -4   5  -1   34.92    3.16
  -5   5   1   22.51    2.31
   5   5  -1   26.41    2.44
  -5   5   1   23.28    2.23
  -5   5  -1   15.55    1.87
   5   5   1   15.40    1.99
  -5   5  -1   17.81    1.86
  -6   5   1    6.42    1.34
   6   5  -1    8.47    1.46
  -6   5   1    7.71    1.55
  -6  -5   1    5.96    1.10
  -6   5  -1    4.87    1.35
  -6   5  -1    3.81    1.39
   6   5   1    5.39    1.43
  -7   5   1   24.80    2.54
  -7   5   1   18.46    2.54
   7   5  -1   20.36    2.47
  -7  -5   1   26.23    2.77
  -7   5  -1   22.16    2.53
   7   5   1   28.63    2.91
  -7   5  -1   24.06    2.62
  -8   5   1   20.41    2.72
  -8  -5  -1   18.84    2.66
   8   5  -1   17.58    2.40
  -8   5   1   17.64    2.48
  -8   5  -1   18.36    2.59
  -8   5  -1   20.22    2.61
  -8  -5   1   20.72    2.70
   8   5   1   16.62    2.34
  -9   5   1   23.48    3.40
  -9  -5  -1   26.54    3.27
   9   5  -1   22.80    2.87
  -9   5   1   28.36    3.28
   9   5   1   28.22    3.04
  -9   5  -1   29.45    3.43
  -9   5  -1   24.40    3.28
  -9  -5   1   31.06    3.29
 -10  -5  -1   18.97    2.92
  10   5  -1   14.74    2.38
 -10   5   1   16.26    3.38
 -10  -5   1   15.91    2.87
 -10   5  -1   14.69    3.07
 -10   5  -1   17.04    3.27
  10   5   1   19.48    2.81
   0   6   1   66.86    4.50
   0   6  -1   62.40    4.67
   0   6  -1   64.96    4.45
   0   6   1   63.33    4.68
  -1   6   1  105.23    7.70
  -1   6   1  101.16    7.42
   1   6  -1  105.13    7.42
   1   6  -1  107.05    7.76
  -1   6  -1  115.15    7.75
  -1   6  -1  113.82    7.42
   1   6   1  114.43    7.77
   1   6   1  115.79    7.45
  -2   6   1  156.37   11.29
  -2   6   1  157.60   11.70
   2   6  -1  156.67   11.32
   2   6  -1  159.05   11.79
   2   6   1  181.13   11.34
  -2   6  -1  179.07   11.27
  -2   6  -1  181.73   11.75
   2   6   1  176.29   11.83
  -3   6   1   74.50    5.27
   3   6  -1   69.25    5.42
  -3   6   1   72.61    5.14
   3   6   1   70.91    5.19
  -3   6  -1   72.66    5.10
  -3   6  -1   72.82    5.31
   3   6   1   72.97    5.47
  -4   6   1    7.98    1.16
   4   6  -1    6.87    1.27
  -4   6   1    6.82    1.21
  -4   6  -1    7.83    1.20
  -4   6  -1    7.06    1.14
   4   6   1    9.90    1.42
   5   6  -1   23.04    2.29
  -5   6   1   21.02    2.11
  -5   6   1   23.98    2.32
  -5   6  -1   18.96    2.03
  -5   6  -1   19.99    2.10
   5   6   1   20.88    2.28
   6   6  -1   31.60    3.06
  -6   6   1   24.62    2.84
  -6   6   1   27.72    2.70
  -6   6  -1   27.01    2.64
   6   6   1   29.74    3.02
  -6   6  -1   27.17    2.98
  -6  -6   1   30.57    2.66
  -7   6   1   15.46    1.95
   7   6  -1   12.59    1.92
  -7   6   1   11.69    2.08
   7   6   1    9.93    1.82
  -7   6  -1   11.38    1.96
  -7   6  -1   11.20    2.01
  -8   6   1    6.28    2.20
  -8   6   1    7.53    1.91
   8   6  -1    6.58    1.67
   8   6   1    4.90    1.72
  -8  -6   1    5.05    2.05
  -8   6  -1    3.54    2.00
  -8   6  -1    5.88    1.94
   9   6  -1    4.93    1.71
  -9   6   1    3.69    2.47
  -9  -6  -1    8.20    2.36
   9   6   1    2.84    1.62
  -9  -6   1    5.47    2.27
  -9   6  -1    4.33    2.35
  -9   6  -1    3.07    2.19
  10   6  -1    4.31    1.75
 -10   6   1    2.22    2.81
 -10  -6  -1    5.58    2.49
 -10   6  -1    0.87    2.42
 -10   6  -1    0.58    2.69
  10   6   1    4.86    1.83
 -10  -6   1    6.36    2.47
   0   7  -1   89.12    6.16
   0   7  -1   90.71    6.49
   0   7   1   89.24    6.46
   0   7   1   90.90    6.20
  -1   7   1   68.09    5.09
  -1   7   1   66.76    4.89
   1   7  -1   70.20    4.90
   1   7  -1   69.43    5.15
   1   7   1   69.28    4.91
   1   7   1   71.03    5.15
  -1   7  -1   70.64    4.86
  -1   7  -1   73.51    5.13
  -2   7   1    0.47    0.73
  -2   7   1    0.83    0.78
   2   7  -1    1.69    0.85
   2   7  -1    0.94    0.79
   2   7   1    2.38    0.83
  -2   7  -1    3.08    0.75
   2   7   1    2.78    0.92
  -2   7  -1    1.52    0.82
  -3   7   1   18.58    1.99
   3   7  -1   22.45    2.26
  -3   7   1   19.56    2.10
  -3   7  -1   21.10    2.08
   3   7   1   17.27    1.84
   3   7   1   16.51    1.96
  -3   7  -1   20.41    1.96
  -4   7   1  120.03    8.12
  -4   7   1  124.57    7.93
   4   7  -1  123.86    8.36
  -4   7  -1  102.97    8.13
   4   7   1  105.78    8.31
  -4   7  -1  103.65    7.82
  -5   7   1   14.84    1.84
  -5   7   1   14.66    1.78
   5   7  -1   17.68    2.06
   5   7   1   14.60    1.99
  -5   7  -1   16.86    1.83
  -5   7  -1   16.21    1.90
  -6   7   1   28.75    3.04
   6   7  -1   24.22    2.76
  -6   7   1   26.29    2.74
   6   7   1   29.35    3.08
  -6   7  -1   29.73    3.04
  -6   7  -1   28.21    2.66
   7   7  -1    8.87    1.75
  -7   7   1    7.24    1.96
  -7   7   1    8.34    1.77
   7   7   1   10.12    1.80
  -7   7  -1   10.14    1.91
  -7   7  -1    9.55    1.97
  -8   7   1    3.78    1.80
   8   7  -1    2.60    1.54
  -8   7   1    0.63    2.06
  -8   7  -1    4.20    2.03
  -8  -7   1    4.14    2.06
   8   7   1    3.69    1.58
  -8   7  -1    3.65    1.90
   9   7  -1    7.36    1.96
  -9  -7  -1    8.27    2.48
  -9   7   1    6.22    2.62
  -9   7  -1    6.41    2.47
  -9   7  -1    5.30    2.33
   9   7   1    6.63    1.81
  -9  -7   1    5.36    2.39
  10   7  -1    5.54    1.86
 -10  -7  -1    3.67    2.48
 -10   7   1    2.69    2.85
  10   7   1    3.43    1.78
 -10  -7   1    6.10    2.50
 -10   7  -1    3.52    2.83
   0   8   1   71.66    5.07
   0   8   1   72.88    5.28
   0   8  -1   70.44    5.29
   0   8  -1   70.72    5.01
  -1   8   1   79.88    5.73
   1   8  -1   83.81    5.53
  -1   8   1   82.79    5.55
   1   8  -1   89.75    5.88
  -1   8  -1   71.10    5.47
   1   8   1   71.17    5.51
   1   8   1   77.84    5.84
  -1   8  -1   74.64    5.78
  -2   8   1   65.66    5.29
  -2   8   1   63.35    5.10
   2   8  -1   66.43    5.15
   2   8  -1   70.80    5.47
  -2   8  -1   77.62    5.12
  -2   8  -1   81.06    5.39
   2   8   1   75.21    5.16
   2   8   1   75.93    5.46
  -3   8   1   23.74    2.18
  -3   8   1   24.98    2.25
   3   8  -1   23.38    2.39
   3   8   1   16.84    1.88
   3   8   1   14.54    1.99
  -3   8  -1   16.54    1.87
  -3   8  -1   18.11    1.76
   4   8  -1    5.19    1.35
  -4   8   1    6.22    1.25
  -4   8   1    5.11    1.17
   4   8   1    4.73    1.35
  -4   8  -1    3.87    1.14
  -4   8  -1    2.56    1.17
  -5   8   1   22.66    2.47
   5   8  -1   18.06    2.35
  -5   8   1   23.79    2.28
  -5   8  -1   19.14    2.21
  -5   8  -1   22.12    2.17
   5   8   1   22.28    2.47
  -6   8   1   18.34    2.06
  -6   8   1   17.19    2.16
   6   8  -1   15.13    2.13
  -6   8  -1   13.10    1.99
   6   8   1   16.59    2.16
  -6   8  -1   14.20    2.05
   7   8  -1    4.30    1.59
  -7   8   1    5.07    1.71
  -7   8   1    4.62    1.88
   7   8   1    7.09    1.66
  -7   8  -1    7.99    1.84
  -7   8  -1    2.43    1.79
  -8   8   1    5.28    2.29
   8   8  -1    8.79    1.89
  -8  -8   1    9.81    2.27
   8   8   1    6.68    1.77
  -8   8  -1    6.76    2.15
  -8   8  -1    6.65    2.28
  -9  -8  -1    9.46    2.59
  -9   8   1    7.65    2.80
   9   8  -1    6.56    1.90
  -9   8  -1    5.51    2.68
  -9   8  -1    8.51    2.47
   9   8   1    6.96    2.08
  -9  -8   1    8.88    2.55
   0   9   1   76.69    5.73
   0   9   1   78.94    5.46
   0   9  -1   76.98    5.75
   0   9  -1   73.34    5.40
  -1   9   1   12.33    1.51
   1   9  -1   14.18    1.70
  -1   9   1   18.47    1.70
   1   9  -1   14.74    1.51
  -1   9  -1   13.63    1.46
   1   9   1   12.70    1.64
  -1   9  -1   11.82    1.58
   1   9   1   15.11    1.57
   2   9  -1    5.55    1.31
  -2   9   1    5.74    1.15
  -2   9   1    7.18    1.17
   2   9  -1    4.10    1.11
  -2   9  -1    4.00    1.14
  -2   9  -1    2.71    0.99
   2   9   1    2.43    1.18
   2   9   1    3.89    1.11
   3   9  -1   10.05    1.79
  -3   9   1   11.79    1.69
  -3   9   1   12.16    1.69
   3   9   1   19.36    2.07
  -3   9  -1   19.06    1.69
   3   9   1   20.50    1.91
  -3   9  -1   17.90    1.85
  -4   9   1   41.00    3.47
  -4   9   1   42.47    3.50
   4   9  -1   44.44    3.73
  -4   9  -1   37.16    3.52
   4   9   1   35.75    3.66
  -4   9  -1   33.01    3.42
  -5   9   1   59.28    4.92
  -5   9   1   66.37    4.96
   5   9  -1   61.08    5.16
  -5   9  -1   60.81    4.89
   5   9   1   62.18    5.14
  -5   9  -1   59.43    4.99
  -6   9   1   26.12    2.77
  -6   9   1   23.44    2.63
   6   9  -1   24.51    2.81
  -6   9  -1   27.56    2.66
   6   9   1   28.86    2.93
  -6   9  -1   24.18    2.71
  -7   9   1   19.48    2.47
   7   9  -1   17.45    2.43
  -7   9   1   17.01    2.59
  -7   9  -1   20.97    2.58
  -7   9  -1   18.79    2.52
   7   9   1   19.95    2.52
  -8   9   1    5.74    2.32
   8   9  -1    5.89    1.81
   8   9   1    6.57    1.84
  -8   9  -1    5.99    2.23
  -8   9  -1    6.70    2.18
  -9  -9  -1    2.28    2.35
   9   9  -1    1.11    1.65
  -9   9   1   -0.44    2.44
  -9  -9   1   -0.22    2.35
   9   9   1    1.36    1.67
   0  10  -1   13.13    1.54
   0  10  -1   14.19    1.77
   0  10   1   14.50    1.75
   0  10   1   13.01    1.58
  -1  10   1   38.90    3.18
   1  10  -1   36.12    2.91
   1  10  -1   33.86    3.15
  -1  10   1   35.60    3.05
  -1  10  -1   28.63    3.16
   1  10   1   30.25    3.22
   1  10   1   32.01    2.95
  -1  10  -1   30.51    2.99
  -2  10   1   85.48    6.20
  -2  10   1   88.33    5.99
   2  10  -1   90.72    6.35
   2  10  -1   89.76    5.99
  -2  10  -1   77.11    5.92
   2  10   1   77.16    5.94
  -2  10  -1   78.43    6.22
   2  10   1   73.75    6.28
  -3  10   1    2.18    1.25
   3  10  -1    4.39    1.40
  -3  10   1    3.84    1.25
  -3  10  -1   -0.29    1.13
   3  10   1    1.27    1.28
  -3  10  -1    0.32    1.23
   3  10   1    1.45    1.33
  -4  10   1   29.02    2.78
  -4  10   1   27.99    3.07
   4  10  -1   29.45    3.29
  -4  10  -1   30.07    3.11
  -4  10  -1   31.61    3.19
   4  10   1   31.27    3.39
  -5  10   1    6.69    1.67
  -5  10   1    6.86    1.70
   5  10  -1    4.79    1.67
  -5  10  -1    9.14    1.76
  -5  10  -1    7.72    1.60
   5  10   1    8.56    1.82
   6  10  -1    4.20    1.72
  -6  10   1    4.90    1.87
  -6  10   1    6.00    1.75
  -6  10  -1    3.73    1.67
  -6  10  -1    6.14    1.76
   6  10   1    4.51    1.67
   7  10  -1    4.71    1.78
  -7  10   1    1.89    2.02
  -7  10  -1    3.97    1.93
  -7  10  -1    2.60    1.90
   7  10   1    2.23    1.61
  -8  10   1   11.35    2.62
   8  10  -1   14.26    2.28
   8  10   1    8.45    2.12
   0  11  -1   34.70    3.34
   0  11   1   33.05    2.99
   0  11  -1   34.90    3.01
   0  11   1   32.33    3.35
  -1  11   1    8.35    1.52
  -1  11   1    9.18    1.44
   1  11  -1    8.22    1.56
   1  11  -1    9.85    1.39
   1  11   1    3.45    1.30
  -1  11  -1    3.09    1.41
  -1  11  -1    5.83    1.29
   1  11   1    5.78    1.50
   2  11  -1   18.28    2.07
   2  11  -1   15.76    2.25
  -2  11   1   18.96    2.06
  -2  11   1   17.28    2.16
   2  11   1   21.27    2.12
   2  11   1   18.48    2.28
  -2  11  -1   24.02    2.09
  -2  11  -1   21.83    2.25
  -3  11   1   10.63    1.73
   3  11  -1   11.12    1.92
  -3  11   1   11.26    1.80
   3  11   1   12.36    2.01
   3  11   1   14.67    1.89
  -3  11  -1   13.77    1.71
  -3  11  -1   13.69    1.88
  -4  11   1    1.11    1.46
   4  11  -1    3.31    1.61
  -4  11   1    2.43    1.52
  -4  11  -1    5.19    1.64
  -4  11  -1    7.31    1.52
   4  11   1    5.44    1.72
  -5  11   1   10.48    2.01
   5  11  -1   11.43    2.12
  -5  11   1   12.12    2.08
  -5  11  -1   15.64    2.20
   5  11   1   12.87    2.21
  -5  11  -1   17.26    2.09
  -6  11   1   10.87    2.10
   6  11  -1   10.34    2.08
  -6  11   1   11.59    2.07
  -6  11  -1    6.16    2.04
   6  11   1    5.97    1.91
   7  11  -1    7.20    2.00
  -7  11   1    6.91    2.30
   7  11   1    9.89    2.08
  -7  11  -1    5.04    2.16
   8  11  -1    7.66    2.02
   8  11   1    4.07    1.90
   0  12  -1    0.96    1.22
   0  12   1    0.24    1.38
   0  12   1    1.13    1.29
   0  12  -1    3.12    1.46
   1  12  -1   18.83    2.38
  -1  12   1   19.18    2.31
   1  12  -1   19.40    2.11
  -1  12   1   19.68    2.16
   1  12   1   24.19    2.51
  -1  12  -1   19.54    2.08
   1  12   1   23.02    2.26
  -1  12  -1   21.74    2.40
  -2  12   1    1.38    1.46
   2  12  -1    4.29    1.43
  -2  12   1    5.70    1.48
   2  12  -1    1.68    1.52
  -2  12  -1    2.96    1.35
  -2  12  -1    2.80    1.54
   2  12   1    2.38    1.37
   3  12  -1   16.81    2.53
  -3  12   1   22.60    2.50
  -3  12   1   20.17    2.28
  -3  12  -1   25.34    2.57
   3  12   1   21.97    2.69
  -3  12  -1   23.80    2.27
   3  12   1   21.74    2.46
   4  12  -1   11.47    2.23
  -4  12   1   16.71    2.20
  -4  12   1   10.48    2.01
  -4  12  -1   13.71    2.13
   4  12   1   15.98    2.36
   5  12  -1   22.38    2.89
  -5  12   1   29.41    2.88
  -5  12   1   24.28    2.76
   5  12   1   22.97    2.99
  -5  12  -1   21.33    2.79
  -6  12   1    0.02    1.92
   6  12  -1    0.35    1.73
   6  12   1    1.93    1.80
  -6  12  -1    4.99    2.05
   7  12  -1   -0.25    1.76
   7  12   1    1.57    1.78
   0  13   1    6.08    1.79
   0  13   1    6.57    1.60
   0  13  -1    7.60    1.82
   0  13  -1    9.84    1.65
   1  13  -1   14.11    2.29
  -1  13   1   18.86    2.10
  -1  13   1   16.66    2.33
   1  13  -1   16.90    2.08
   1  13   1   16.99    2.43
   1  13   1   21.94    2.21
  -1  13  -1   16.07    2.27
  -1  13  -1   20.65    2.12
   2  13  -1    4.28    1.56
  -2  13   1    1.28    1.63
   2  13  -1    3.08    1.71
  -2  13   1    3.44    1.55
  -2  13  -1    1.01    1.63
   2  13   1    1.70    1.49
   2  13   1    1.28    1.65
   3  13  -1   19.58    2.77
  -3  13   1   18.21    2.58
  -3  13   1   28.55    2.65
  -3  13  -1   22.91    2.69
   3  13   1   22.70    2.59
   3  13   1   24.75    2.94
   4  13  -1    6.12    2.03
  -4  13   1    5.18    1.83
  -4  13   1    3.48    1.81
   4  13   1    6.33    2.06
  -4  13  -1    5.66    1.94
   5  13  -1    4.47    1.97
  -5  13  -1   -0.74    1.81
   5  13   1    1.99    1.96
   6  13  -1   11.55    2.38
   6  13   1    8.20    2.24
   0  14   1    6.77    1.96
   0  14   1    7.07    1.74
   0  14  -1    7.20    1.94
  -1  14   1    1.13    1.78
  -1  14   1    0.95    1.51
   1  14  -1    0.99    1.76
   1  14   1    3.65    1.61
  -1  14  -1    2.32    1.76
   1  14   1    2.88    1.85
  -2  14   1    8.09    1.83
  -2  14   1    7.03    1.99
   2  14  -1    8.88    2.11
   2  14  -1   11.38    1.95
   2  14   1    9.97    1.91
   2  14   1   10.44    2.23
  -2  14  -1    8.78    2.13
   3  14  -1   13.15    2.43
  -3  14   1   13.40    2.35
   3  14   1   12.58    2.49
  -3  14  -1   13.35    2.39
   4  14  -1    7.19    2.21
   4  14   1    6.35    2.19
  -4  14  -1    5.91    2.07
   5  14  -1    8.83    2.31
   5  14   1    7.51    2.33
  -5  14  -1    7.17    2.31
   0  15  -1    2.06    1.92
   0  15   1    3.13    2.07
  -1  15   1    1.74    1.92
   1  15  -1    2.23    1.99
  -1  15  -1    1.16    1.91
   1  15   1    2.22    2.02
   1  15   1    1.39    1.63
  -2  15   1    0.54    1.97
   2  15  -1   -1.08    1.88
   2  15   1   -1.76    1.92
  -2  15  -1    0.98    1.91
   2  15   1    0.11    1.76
   3  15  -1   12.17    2.55
  -3  15   1   16.19    2.50
   3  15   1   11.21    2.57
  -3  15  -1    9.18    2.43
   4  15  -1   10.78    2.48
   4  15   1    8.58    2.47
  -4  15  -1    9.42    2.51
   0  16   1   14.25    2.74
   0  16  -1   11.70    2.59
   1  16  -1    8.56    2.45
  -1  16   1    5.12    2.36
  -1  16  -1    7.16    2.35
   1  16   1    8.40    2.48
   2  16  -1    2.78    2.21
  -2  16   1    0.49    2.22
   2  16   1    4.85    2.41
  -2  16  -1    3.30    2.24
   0   0  -2   35.10    2.42
   0   0   2   34.80    2.35
   0   0   2   34.87    2.33
  -1   0   2   95.51    6.16
   1   0  -2   85.23    6.38
  -1   0   2   92.98    6.14
   1   0   2   95.23    6.40
   1   0   2   93.91    6.11
  -2   0   2  307.61   20.24
   2   0  -2  302.28   21.11
   2   0   2  310.26   21.13
   2   0   2  303.39   20.19
  -2   0   2  314.73   20.37
   3   0   2   79.45    5.82
   3   0  -2   80.38    5.81
  -3   0   2   81.41    5.47
  -3   0   2   87.05    5.68
  -4   0  -2   80.19    5.68
   4   0  -2   79.90    5.70
   4   0   2   79.32    5.72
  -4   0   2   79.31    5.62
  -4   0   2   76.07    5.28
   5   0   2  117.70    8.38
  -5   0   2  112.36    7.72
  -5   0   2  115.94    8.20
  -5   0  -2  121.70    8.26
   5   0  -2  116.08    8.34
   6   0  -2   19.66    1.98
  -6   0  -2   16.23    2.08
  -6   0   2   14.83    2.03
   6   0   2   16.13    2.01
   7   0  -2    3.32    1.38
  -7   0   2    3.34    1.71
   7   0   2    2.84    1.52
  -7   0  -2    2.99    1.67
  -8   0  -2    2.87    1.95
   8   0  -2    4.72    1.67
   8   0   2    2.65    1.77
  -8   0   2    7.26    2.10
  -9   0   2   16.82    2.93
   9   0   2   21.55    2.88
   9   0  -2   21.35    2.72
  -9   0  -2   18.45    2.90
  10   0  -2    4.16    2.10
 -10   0   2   -1.51    2.41
 -10   0  -2    5.55    2.51
  10   0   2    0.83    2.33
 -11   0   2    3.46    2.73
 -11   0  -2    8.86    2.80
  11   0   2    0.24    2.61
  11   0  -2   -0.37    2.40
   0   1   2    5.50    0.51
   0   1   2    5.19    0.49
   0   1  -2    5.24    0.48
   0  -1   2    5.41    0.54
   0   1   2    5.24    0.50
   1   1   2  102.12    7.00
  -1  -1   2  102.55    7.00
   1   1   2  107.53    6.96
  -1   1  -2  105.03    7.26
   1   1   2  105.49    7.30
  -1  -1   2  107.94    7.03
  -1   1  -2  106.39    6.98
   2  -1   2  596.02   39.62
   2   1  -2  554.51   41.36
   2  -1   2  586.80   41.33
  -2   1   2  594.69   39.65
  -2   1   2  592.32   39.83
  -2  -1   2  641.06   39.89
  -2   1  -2  632.65   39.84
   2   1   2  605.62   41.38
   2  -1  -2  611.82   41.29
  -2  -1   2  624.57   39.67
  -3   1   2  435.93   29.22
   3   1  -2  433.43   30.35
  -3   1   2  431.11   29.02
   3  -1   2  435.75   30.31
   3  -1  -2  439.39   30.27
  -3  -1   2  450.63   29.04
  -3  -1   2  452.57   29.29
   3   1   2  438.85   30.37
  -3   1  -2  456.42   29.25
  -4   1   2    7.60    1.11
  -4   1   2    7.20    0.77
   4  -1   2    7.71    1.06
   4   1  -2    7.84    1.10
  -4  -1   2    9.16    1.26
   4  -1  -2   13.13    1.11
   4   1   2    9.56    1.19
  -4   1  -2   10.13    1.21
  -4  -1   2   10.77    0.99
  -5   1   2    9.21    1.38
   5   1  -2   10.88    1.37
   5  -1   2   10.08    1.31
  -5  -1  -2    9.23    1.49
  -5   1  -2    9.03    1.40
  -5  -1   2    9.89    1.51
   5   1   2    8.61    1.40
   5  -1  -2   10.13    1.24
  -5  -1   2    8.93    0.87
  -6  -1  -2    9.34    1.74
   6  -1   2    9.96    1.50
   6   1  -2    8.04    1.44
  -6   1   2   10.59    1.63
  -6   1  -2    5.85    1.54
  -6  -1   2    7.27    1.64
   6   1   2    7.41    1.53
   6  -1  -2    7.65    1.37
  -7  -1  -2   72.63    5.49
   7  -1   2   77.29    5.39
  -7   1   2   74.84    5.49
   7   1   2   58.62    5.36
  -7  -1   2   61.85    5.47
  -7   1  -2   57.94    5.38
   7  -1  -2   59.83    5.20
   8  -1   2   20.87    2.80
  -8  -1  -2   21.89    2.84
  -8   1   2   19.98    2.85
   8   1  -2   22.73    2.67
  -8  -1   2   25.23    3.01
   8   1   2   25.56    2.92
   8  -1  -2   24.39    2.64
  -8   1  -2   22.52    2.83
   9  -1   2    9.53    2.41
  -9   1   2    8.25    2.52
   9   1  -2   10.63    2.18
  -9  -1  -2    9.60    2.44
   9   1   2    9.60    2.37
  -9   1  -2    9.68    2.53
   9  -1  -2    9.99    2.20
  -9  -1   2   11.91    2.53
 -10   1   2    0.77    2.46
  10   1  -2    0.12    1.98
  10  -1   2   -0.45    2.31
 -10  -1  -2    8.55    2.45
 -10   1  -2    2.93    2.51
 -10  -1   2    3.29    2.45
  10   1   2    0.56    2.21
  10  -1  -2    3.92    2.22
 -10   1  -2    1.51    2.21
 -11   1   2    5.95    2.96
 -11  -1  -2    8.47    2.72
  11   1  -2    3.77    2.36
 -11  -1   2    7.93    2.84
 -11   1  -2    5.58    2.86
 -11   1  -2    5.00    2.71
  11   1   2    4.30    2.68
   0   2  -2  122.47    8.21
   0   2   2  126.69    8.25
   0   2   2  121.15    8.54
   0   2  -2  125.54    8.56
  -1   2   2  590.62   37.44
   1   2  -2  605.25   38.85
  -1   2   2  604.95   38.80
  -1   2  -2  555.58   37.39
   1   2   2  560.85   37.44
   1   2   2  504.07   38.89
  -1   2  -2  554.07   38.84
  -2   2   2   18.85    1.72
  -2   2   2   21.19    1.67
   2   2  -2   19.15    1.79
   2   2   2   22.91    1.77
  -2  -2   2   25.34    1.76
  -2   2  -2   25.76    1.78
   2   2   2   23.09    1.97
  -2   2  -2   24.05    1.67
  -3   2   2   60.18    3.95
  -3   2   2   63.26    3.99
   3   2  -2   61.05    4.16
  -3  -2   2   50.18    3.86
  -3   2  -2   54.78    4.06
  -3   2  -2   52.08    3.91
   3   2   2   50.99    4.19
   3  -2  -2   53.38    3.99
   4  -2   2    5.71    0.54
   4  -2   2    5.62    0.91
  -4   2   2    6.28    0.97
   4   2  -2    6.22    1.00
  -4   2  -2    2.85    0.82
   4  -2  -2    4.03    0.80
   4   2   2    8.78    1.15
  -4  -2   2    7.53    0.80
  -4   2  -2    8.49    1.02
  -4  -2   2    3.65    1.09
  -5   2   2   81.38    6.17
   5   2  -2   79.83    6.37
   5  -2   2   72.88    6.25
   5   2   2   95.75    6.50
  -5  -2   2   90.11    5.86
   5  -2  -2   90.23    6.23
  -5   2  -2   93.06    6.22
  -5  -2   2   85.84    6.36
   6   2  -2   21.17    2.34
  -6  -2  -2   23.07    2.52
  -6   2   2   24.38    2.47
   6  -2   2   21.34    2.35
  -6   2  -2   24.15    2.42
  -6  -2   2   23.32    2.53
   6  -2  -2   28.41    2.45
   6   2   2   25.38    2.54
   7   2  -2    0.91    1.27
  -7  -2  -2    3.27    1.68
  -7   2   2    0.77    1.60
   7  -2   2    2.26    1.43
  -7   2  -2    1.31    1.39
  -7  -2   2    1.94    1.63
  -7   2  -2    2.30    1.62
   7   2   2    5.22    1.57
   7  -2  -2    4.47    1.36
   8  -2   2   11.21    2.13
  -8   2   2    8.19    2.23
   8   2  -2   11.66    1.98
  -8  -2  -2   12.73    2.29
   8  -2  -2   10.08    1.97
  -8   2  -2   11.41    2.09
  -8   2  -2   10.04    2.25
   8   2   2   12.72    2.21
  -8  -2   2    8.56    2.20
  -9  -2  -2   18.14    2.82
  -9   2   2   15.82    2.99
   9   2  -2   20.78    2.70
  -9   2   2   17.63    2.69
   9  -2  -2   22.23    2.83
  -9   2  -2   20.02    2.94
   9   2   2   26.04    3.05
  -9  -2   2   23.71    3.05
  -9   2  -2   17.86    2.99
  10   2  -2   -0.63    1.89
 -10   2   2    0.31    2.12
 -10   2   2    1.43    2.64
 -10  -2  -2    4.44    2.40
 -10   2  -2   -0.99    2.41
 -10  -2   2    2.56    2.36
 -10   2  -2    1.37    2.32
  10   2   2    0.34    2.18
  11   2  -2    3.60    2.28
 -11   2   2    5.57    2.95
 -11  -2  -2    6.59    2.61
  11   2   2   -0.50    2.37
 -11   2  -2    3.74    2.60
 -11   2  -2    7.81    2.99
   0   3   2   79.90    5.28
   0   3   2   76.34    5.45
   0   3  -2   79.13    5.48
   0   3  -2   78.47    5.22
   1   3  -2   69.21    5.31
  -1   3   2   69.04    5.26
  -1   3   2   70.19    5.11
   1   3   2   79.85    5.38
  -1   3  -2   78.96    5.06
  -1   3  -2   82.74    5.31
   1   3   2   81.63    5.13
   2   3  -2  138.16    9.73
  -2   3   2  137.79    9.63
  -2   3  -2  137.67    9.29
   2   3   2  142.25    9.37
  -2   3  -2  143.55    9.70
   2   3   2  138.61    9.82
   3   3  -2   79.70    6.63
  -3   3   2   84.73    6.49
  -3   3   2   83.95    6.34
  -3   3  -2  102.36    6.57
  -3   3  -2  104.52    6.32
   3   3   2  103.55    6.75
   4   3  -2   28.76    2.45
  -4   3   2   28.23    2.34
  -4   3   2   31.30    2.25
  -4  -3   2   24.11    2.14
  -4   3  -2   25.52    2.23
  -4   3  -2   24.65    2.27
   4   3   2   21.32    2.50
   5   3  -2   46.26    3.91
   5  -3   2   44.63    3.32
  -5   3   2   43.97    3.82
  -5   3   2   49.52    3.79
  -5  -3   2   54.25    4.12
   5   3   2   54.04    4.06
  -5   3  -2   49.40    3.86
  -5  -3   2   47.19    3.53
  -5   3  -2   52.00    3.79
  -6   3   2   45.63    3.55
  -6   3   2   39.11    3.69
   6   3  -2   39.88    3.64
  -6   3  -2   37.36    3.73
   6   3   2   40.79    3.79
  -6   3  -2   43.50    3.60
  -6  -3   2   40.56    3.90
  -7  -3  -2   59.96    4.64
   7   3  -2   56.71    4.41
  -7   3   2   58.43    4.39
  -7   3   2   49.48    4.53
  -7   3  -2   45.06    4.35
  -7  -3   2   48.31    4.59
   7   3   2   46.47    4.44
  -7   3  -2   40.37    4.52
   8   3  -2    3.05    1.51
  -8  -3  -2    2.50    1.85
  -8   3   2   -0.85    1.87
  -8   3   2    2.12    1.61
   8   3   2    0.31    1.54
  -8   3  -2    3.04    1.70
  -8  -3   2    2.76    1.95
  -8   3  -2    0.29    1.83
  -9   3   2    6.69    2.49
  -9   3   2    8.16    2.18
  -9  -3  -2    8.70    2.34
   9   3  -2    9.39    2.03
  -9   3  -2   11.19    2.42
  -9   3  -2   11.08    2.62
   9   3   2   13.37    2.37
  -9  -3   2   13.07    2.52
  10   3  -2    3.45    1.99
 -10  -3  -2    4.01    2.34
 -10   3   2    1.30    2.63
  10   3   2    1.79    2.18
 -10   3  -2    2.81    2.66
 -10  -3   2    8.01    2.45
 -10   3  -2    0.46    2.36
 -11   3   2    3.42    2.98
 -11  -3  -2   12.71    2.82
  11   3  -2    8.17    2.42
 -11   3  -2    6.00    2.85
 -11   3  -2    4.80    2.97
  11   3   2    8.45    2.67
 -11  -3   2   10.60    2.75
   0   4   2  355.45   25.11
   0   4   2  363.61   24.21
   0   4  -2  369.32   25.13
   0   4  -2  376.59   24.17
   1   4  -2   40.63    3.07
   1   4  -2   41.17    3.20
  -1   4   2   42.18    3.08
  -1   4   2   39.92    3.13
  -1   4  -2   46.78    3.20
   1   4   2   46.37    3.26
  -1   4  -2   45.20    3.01
   1   4   2   48.71    3.10
  -2   4   2   25.95    2.23
  -2   4   2   25.34    2.19
   2   4  -2   26.76    2.35
  -2   4  -2   31.79    2.16
  -2   4  -2   32.21    2.34
   2   4   2   35.00    2.54
   2   4   2   30.94    2.27
  -3   4   2   55.19    4.45
  -3   4   2   55.97    4.39
   3   4  -2   56.73    4.62
  -3   4  -2   68.45    4.54
   3   4   2   69.94    4.75
  -3   4  -2   68.27    4.34
  -4   4   2   34.82    2.88
  -4   4   2   41.22    2.85
   4   4  -2   37.09    3.08
  -4   4  -2   33.39    2.78
   4   4   2   33.54    3.10
  -4   4  -2   31.25    2.91
  -5   4   2   87.81    6.67
   5   4  -2   95.01    7.01
  -5   4   2   95.98    6.80
   5   4   2   92.88    7.04
  -5   4  -2   91.77    6.84
  -5   4  -2   97.79    6.66
  -5  -4   2   96.89    6.51
  -6   4   2   19.51    1.97
   6   4  -2   18.67    2.08
  -6   4   2   17.97    2.09
  -6  -4   2   19.59    1.96
   6   4   2   17.99    2.20
  -6   4  -2   19.01    2.06
  -6   4  -2   17.47    2.06
  -6  -4   2   19.18    2.28
  -7   4   2    6.50    1.72
  -7   4   2    6.32    1.47
   7   4  -2    5.50    1.44
  -7   4  -2    4.53    1.67
  -7   4  -2    4.26    1.55
   7   4   2    3.90    1.53
  -7  -4   2    7.73    1.87
  -8   4   2   -1.49    1.77
   8   4  -2    2.09    1.45
  -8   4   2   -0.06    1.54
  -8  -4  -2    0.59    1.79
  -8   4  -2    0.20    1.86
  -8   4  -2    0.83    1.69
  -8  -4   2    4.13    1.98
   8   4   2    1.69    1.50
  -9   4   2   17.41    2.55
  -9   4   2   11.99    2.72
  -9  -4  -2   14.62    2.61
   9   4  -2   10.77    2.18
   9   4   2   20.17    2.65
  -9  -4   2   19.60    2.72
  -9   4  -2   14.46    2.75
  -9   4  -2   17.62    2.76
 -10   4   2   11.23    3.11
 -10  -4  -2   14.72    2.82
  10   4  -2   15.90    2.60
 -10   4  -2   14.43    3.03
  10   4   2   17.13    2.82
 -10  -4   2   20.90    2.99
 -10   4  -2   13.84    3.14
   0   5   2   20.29    1.67
   0   5   2   19.85    1.65
   0   5  -2   18.01    1.72
   0   5  -2   19.70    1.53
   1   5  -2  120.09    8.65
  -1   5   2  122.81    8.60
  -1   5   2  118.70    8.32
   1   5  -2  119.15    8.28
   1   5   2  128.94    8.68
  -1   5  -2  126.86    8.65
  -1   5  -2  125.63    8.26
   1   5   2  127.21    8.33
  -2   5   2   21.27    2.00
  -2   5   2   21.16    1.92
   2   5  -2   19.95    2.10
   2   5   2   25.37    2.01
  -2   5  -2   25.79    1.85
  -2   5  -2   26.44    2.04
   2   5   2   23.29    2.17
  -3   5   2   64.04    4.66
   3   5  -2   63.25    4.91
  -3   5   2   63.03    4.73
   3   5   2   68.09    5.02
  -3   5  -2   66.02    4.61
  -3   5  -2   68.05    4.82
   3   5   2   68.11    4.74
  -4   5   2   28.16    2.52
   4   5  -2   31.19    2.89
  -4   5   2   30.26    2.64
  -4   5  -2   29.91    2.52
   4   5   2   31.92    2.87
  -4   5  -2   29.59    2.66
  -5   5   2   12.87    1.53
   5   5  -2   11.27    1.68
  -5   5   2   13.45    1.67
   5   5   2   17.28    1.88
  -5  -5   2   13.37    1.52
  -5   5  -2   14.42    1.58
  -5   5  -2   16.43    1.71
  -6   5   2   61.46    5.16
  -6   5   2   62.97    5.17
   6   5  -2   66.27    5.30
  -6   5  -2   67.15    5.06
   6   5   2   72.20    5.42
  -6  -5   2   69.51    4.86
  -6   5  -2   67.11    5.30
  -7   5   2   40.61    3.93
  -7   5   2   43.71    4.23
   7   5  -2   44.75    4.04
  -7   5  -2   43.58    4.01
  -7   5  -2   44.65    4.14
  -7  -5   2   47.61    4.31
   7   5   2   44.54    4.09
   8   5  -2    3.82    1.54
  -8  -5  -2    4.14    1.99
  -8   5   2    1.00    1.67
  -8   5   2    1.78    2.05
  -8   5  -2    5.36    1.87
   8   5   2    3.28    1.61
  -8   5  -2    1.60    1.84
  -8  -5   2    6.22    2.00
   9   5  -2   12.47    2.09
  -9   5   2   10.52    2.68
  -9  -5  -2   13.06    2.55
   9   5   2    7.48    1.95
  -9  -5   2   15.59    2.53
  -9   5  -2   12.78    2.60
  -9   5  -2   11.22    2.54
 -10   5   2    3.49    2.76
  10   5  -2   -1.47    1.56
 -10  -5  -2    2.06    2.32
 -10   5  -2   -0.67    2.63
  10   5   2    1.31    2.04
 -10   5  -2   -0.56    2.41
 -10  -5   2    3.56    2.32
   0   6   2    0.47    0.55
   0   6   2    1.83    0.64
   0   6  -2    1.33    0.65
   0   6  -2    1.14    0.51
  -1   6   2  267.75   19.65
  -1   6   2  274.28   20.37
   1   6  -2  272.38   19.62
   1   6  -2  283.26   20.43
  -1   6  -2  326.02   20.44
  -1   6  -2  307.68   19.61
   1   6   2  324.18   20.47
   1   6   2  315.00   19.68
  -2   6   2    6.78    0.93
  -2   6   2    6.48    0.86
   2   6  -2    3.77    0.92
   2   6   2    7.61    1.07
  -2   6  -2    6.10    0.79
   2   6   2    5.31    0.92
  -2   6  -2    5.47    0.90
  -3   6   2   40.97    3.38
  -3   6   2   41.68    3.45
   3   6  -2   40.37    3.59
   3   6   2   48.34    3.78
  -3   6  -2   47.46    3.49
  -3   6  -2   47.45    3.34
   3   6   2   47.73    3.50
  -4   6   2    0.22    0.94
   4   6  -2    1.10    0.97
  -4   6   2    0.17    0.77
   4   6   2    1.88    1.02
  -4   6  -2    2.18    0.87
  -4   6  -2    2.37    0.98
   5   6  -2  114.82    7.90
  -5   6   2  106.38    7.64
  -5   6   2  112.50    7.58
  -5   6  -2   97.29    7.41
   5   6   2  104.12    7.90
  -5   6  -2  102.97    7.74
  -6   6   2    8.50    1.50
  -6   6   2    9.15    1.72
   6   6  -2   10.28    1.68
  -6  -6   2   11.18    1.41
  -6   6  -2    9.11    1.59
   6   6   2    9.12    1.68
  -6   6  -2    9.03    1.63
   7   6  -2    5.35    1.54
  -7   6   2    6.48    1.83
  -7   6   2    6.32    1.55
  -7   6  -2    6.50    1.75
  -7  -6   2    5.68    1.86
  -7   6  -2    4.63    1.67
   7   6   2    5.95    1.56
   8   6  -2   12.13    1.95
  -8   6   2    8.42    2.35
  -8   6   2   12.42    2.09
  -8  -6   2   15.66    2.44
  -8   6  -2   11.06    2.20
   8   6   2    9.14    1.96
  -8   6  -2   13.34    2.30
  -9  -6  -2    4.00    2.30
  -9   6   2    1.91    2.42
   9   6  -2    2.79    1.66
  -9  -6   2    4.03    2.21
   9   6   2    4.66    1.70
  -9   6  -2    5.65    2.41
  -9   6  -2    4.15    2.21
  10   6  -2    8.18    1.97
 -10  -6  -2   10.41    2.66
 -10   6   2    9.32    3.12
  10   6   2    8.86    2.09
 -10  -6   2   13.00    2.71
 -10   6  -2   10.86    2.93
 -10   6  -2   11.27    2.86
   0   7  -2    0.15    0.59
   0   7   2    0.07    0.70
   0   7   2    0.60    0.67
   0   7  -2   -0.11    0.71
  -1   7   2   51.40    3.93
   1   7  -2   53.83    3.88
  -1   7   2   54.64    4.05
   1   7  -2   57.05    4.16
  -1   7  -2   57.53    3.86
  -1   7  -2   52.27    4.08
   1   7   2   54.03    3.95
   1   7   2   52.68    4.11
  -2   7   2   41.66    3.03
  -2   7   2   40.00    3.03
   2   7  -2   39.60    3.14
   2   7  -2   40.83    3.01
   2   7   2   36.01    2.98
  -2   7  -2   33.81    2.85
  -2   7  -2   33.18    3.08
   2   7   2   36.64    3.24
   3   7  -2  141.72    9.14
  -3   7   2  131.00    8.95
  -3   7   2  136.51    8.71
  -3   7  -2  121.99    9.01
  -3   7  -2  114.93    8.58
   3   7   2  123.40    8.73
   3   7   2  118.40    9.14
   4   7  -2   11.97    1.64
  -4   7   2   11.36    1.37
  -4   7   2   12.01    1.49
  -4   7  -2   11.60    1.50
  -4   7  -2    9.89    1.34
   4   7   2    8.35    1.54
  -5   7   2   12.12    1.69
   5   7  -2   11.98    1.77
  -5   7   2   12.61    1.52
   5   7   2   11.74    1.74
  -5   7  -2    9.02    1.62
  -5   7  -2   10.11    1.49
  -6   7   2   23.96    2.37
   6   7  -2   23.46    2.60
  -6   7   2   22.19    2.51
  -6   7  -2   22.23    2.46
  -6   7  -2   22.26    2.34
  -6  -7   2   22.25    2.23
   6   7   2   23.41    2.56
   7   7  -2   20.44    2.60
  -7   7   2   25.86    2.65
  -7   7   2   21.40    2.75
   7   7   2   29.62    3.09
  -7   7  -2   25.92    2.78
  -7   7  -2   23.31    2.63
   8   7  -2    5.41    1.68
  -8   7   2    6.41    2.24
   8   7   2    2.15    1.56
  -8  -7   2    5.05    2.09
  -8   7  -2    4.36    1.96
  -8   7  -2    2.26    1.98
  -9   7   2    3.85    2.56
   9   7  -2    4.35    1.74
  -9  -7  -2    7.68    2.44
  -9   7  -2    3.03    2.31
  -9   7  -2    3.05    2.34
  -9  -7   2    5.48    2.32
   9   7   2    4.25    1.72
  10   7  -2    1.97    1.73
 -10   7   2    2.70    2.95
 -10  -7  -2    3.55    2.52
 -10   7  -2    2.31    2.70
 -10   7  -2    2.80    2.53
 -10  -7   2    2.18    2.41
  10   7   2    4.46    1.81
   0   8  -2   13.22    1.28
   0   8   2   11.70    1.38
   0   8   2   12.85    1.42
   0   8  -2   13.69    1.49
   1   8  -2   21.71    2.32
  -1   8   2   21.75    2.25
   1   8  -2   21.13    2.11
  -1   8   2   21.75    2.19
  -1   8  -2   25.41    2.15
   1   8   2   26.20    2.21
  -1   8  -2   23.46    2.35
   1   8   2   28.54    2.46
  -2   8   2   61.39    4.57
  -2   8   2   68.18    4.67
   2   8  -2   66.85    4.55
   2   8  -2   68.24    4.80
   2   8   2   54.57    4.52
  -2   8  -2   58.36    4.68
  -2   8  -2   56.81    4.45
   2   8   2   61.15    4.85
  -3   8   2   24.79    2.62
  -3   8   2   26.67    2.48
   3   8  -2   26.74    2.71
   3   8   2   25.78    2.58
  -3   8  -2   26.62    2.42
   3   8   2   26.36    2.79
  -3   8  -2   24.61    2.61
   4   8  -2   31.28    3.10
  -4   8   2   27.99    2.73
  -4   8   2   23.88    2.46
  -4   8  -2   29.93    2.67
  -4   8  -2   28.65    2.82
   4   8   2   27.91    3.10
   5   8  -2   21.20    2.42
  -5   8   2   19.03    2.07
  -5   8   2   20.98    2.22
  -5   8  -2   18.14    2.20
   5   8   2   20.87    2.37
  -5   8  -2   21.43    2.08
   6   8  -2    5.55    1.59
  -6   8   2    7.60    1.78
  -6   8   2    8.32    1.50
   6   8   2    2.62    1.44
  -6  -8   2    3.53    1.33
  -6   8  -2    2.41    1.53
  -6   8  -2    4.38    1.48
  -7   8   2    2.98    1.58
  -7   8   2    3.34    1.89
   7   8  -2    4.91    1.62
  -7   8  -2    2.94    1.77
  -7   8  -2    1.41    1.74
   7   8   2    2.94    1.54
   8   8  -2    7.77    1.87
  -8   8   2   12.85    2.55
  -8   8  -2   10.26    2.34
   8   8   2    8.15    1.86
  -8   8  -2    9.26    2.38
  -8  -8   2   10.25    2.40
  -9   8   2   17.72    3.20
   9   8  -2   19.40    2.44
  -9   8  -2   15.86    2.89
   9   8   2   12.08    2.29
  -9  -8   2   13.50    2.85
   0   9   2   34.73    2.99
   0   9  -2   37.15    3.23
   0   9   2   37.44    3.23
   0   9  -2   37.02    2.92
  -1   9   2   23.98    2.59
   1   9  -2   25.90    2.63
  -1   9   2   22.56    2.46
   1   9  -2   25.15    2.39
  -1   9  -2   26.09    2.65
  -1   9  -2   31.64    2.47
   1   9   2   31.37    2.79
   1   9   2   27.50    2.50
  -2   9   2   32.17    3.03
   2   9  -2   32.89    2.99
   2   9  -2   35.35    3.19
  -2   9   2   33.40    3.02
   2   9   2   37.75    3.33
  -2   9  -2   36.86    2.92
   2   9   2   36.77    3.00
  -2   9  -2   34.48    3.17
   3   9  -2   61.05    4.55
  -3   9   2   56.39    4.21
  -3   9   2   60.04    4.28
   3   9   2   49.57    4.22
  -3   9  -2   50.88    4.11
  -3   9  -2   49.39    4.37
   3   9   2   49.96    4.52
  -4   9   2    5.65    1.36
  -4   9   2    4.67    1.46
   4   9  -2    4.12    1.51
  -4   9  -2   10.85    1.42
   4   9   2   12.12    1.80
  -4   9  -2   10.79    1.58
  -5   9   2    2.68    1.44
   5   9  -2    3.91    1.48
  -5   9   2    2.14    1.31
  -5   9  -2    1.15    1.26
  -5   9  -2    0.13    1.34
   5   9   2    1.68    1.40
   6   9  -2    6.83    1.74
  -6   9   2    9.80    1.70
  -6   9   2   10.01    1.93
  -6   9  -2    5.94    1.65
  -6   9  -2    4.23    1.70
   6   9   2    5.59    1.66
   7   9  -2   21.36    2.72
  -7   9   2   27.56    3.03
  -7   9  -2   23.76    2.74
  -7   9  -2   25.10    2.90
   7   9   2   23.03    2.76
   8   9  -2    7.06    1.90
  -8   9   2    6.01    2.42
   8   9   2    7.90    1.88
  -8   9  -2    7.22    2.28
  -8  -9   2    9.60    2.39
   9   9  -2    0.57    1.66
  -9   9   2   -0.26    2.53
  -9   9  -2   -1.31    2.20
  -9  -9   2    1.61    2.39
   9   9   2    2.54    1.88
   0  10  -2    0.12    1.14
   0  10   2    1.80    1.14
   0  10  -2    2.37    0.97
   0  10   2    1.21    1.09
  -1  10   2   70.40    5.15
   1  10  -2   74.59    5.10
  -1  10   2   72.48    5.39
   1  10  -2   70.18    5.42
   1  10   2   66.97    5.10
  -1  10  -2   67.15    5.38
   1  10   2   67.10    5.42
  -1  10  -2   69.06    5.03
  -2  10   2   23.09    2.61
   2  10  -2   28.52    2.54
  -2  10   2   26.55    2.66
   2  10  -2   27.23    2.80
   2  10   2   21.34    2.41
  -2  10  -2   24.59    2.47
   2  10   2   23.25    2.53
  -2  10  -2   18.40    2.26
   3  10  -2   28.59    3.01
  -3  10   2   28.29    2.93
  -3  10   2   27.46    3.00
   3  10   2   27.74    2.88
  -3  10  -2   28.13    2.79
  -3  10  -2   26.35    2.97
   3  10   2   30.38    3.16
  -4  10   2    7.91    1.59
   4  10  -2    5.42    1.63
  -4  10   2    5.01    1.46
   4  10   2    8.00    1.71
  -4  10  -2    7.54    1.40
  -4  10  -2    7.51    1.63
  -5  10   2   23.26    2.43
   5  10  -2   16.58    2.40
  -5  10   2   19.79    2.29
   5  10   2   18.45    2.47
  -5  10  -2   17.38    2.34
  -5  10  -2   21.81    2.20
   6  10  -2    1.83    1.62
  -6  10   2    6.75    1.92
   6  10   2    5.31    1.70
  -6  10  -2    3.46    1.75
  -7  10   2    8.13    2.24
   7  10  -2    5.61    1.85
   7  10   2    7.98    1.87
  -7  10  -2    8.12    2.11
  -8  10   2    4.03    2.43
   8  10  -2    4.41    1.87
  -8  10  -2   11.49    2.44
   8  10   2    7.19    1.93
   0  11  -2    5.33    1.26
   0  11  -2    3.80    1.41
   0  11   2    5.35    1.30
   0  11   2    5.50    1.42
  -1  11   2   34.53    3.20
  -1  11   2   30.07    3.12
   1  11  -2   30.73    3.15
   1  11  -2   32.88    2.85
   1  11   2   29.23    3.20
  -1  11  -2   32.58    2.81
  -1  11  -2   27.64    3.20
   1  11   2   30.19    2.93
  -2  11   2   23.14    2.21
   2  11  -2   16.72    2.26
  -2  11   2   18.85    2.20
   2  11  -2   19.33    2.15
  -2  11  -2   20.01    2.28
   2  11   2   23.92    2.50
   2  11   2   22.59    2.40
  -2  11  -2   24.90    2.51
  -3  11   2   24.32    2.45
   3  11  -2   19.67    2.50
  -3  11   2   21.75    2.40
  -3  11  -2   28.40    2.73
   3  11   2   25.64    2.78
  -3  11  -2   22.16    2.50
   3  11   2   25.97    2.51
   4  11  -2    2.41    1.61
  -4  11   2    4.73    1.55
  -4  11   2    5.75    1.66
   4  11   2    5.86    1.75
  -4  11  -2    5.20    1.67
   5  11  -2   13.17    2.22
  -5  11   2   12.57    2.03
  -5  11   2   14.69    2.20
  -5  11  -2   14.97    2.22
   5  11   2   12.71    2.25
   6  11  -2    5.29    1.86
  -6  11   2    4.99    2.02
  -6  11  -2    1.86    1.87
   6  11   2    4.58    1.79
  -7  11   2   24.66    2.99
   7  11  -2   21.58    2.84
   7  11   2   20.60    2.76
  -7  11  -2   18.60    2.87
   8  11  -2    0.62    1.76
  -8  11   2    2.28    2.50
   8  11   2    1.31    1.77
   0  12  -2    7.17    1.64
   0  12   2    9.03    1.55
   0  12  -2    7.46    1.46
   0  12   2    6.72    1.68
  -1  12   2   30.28    3.24
   1  12  -2   31.32    3.19
  -1  12   2   28.98    2.79
   1  12  -2   27.88    2.76
  -1  12  -2   23.39    2.71
   1  12   2   25.77    2.77
  -1  12  -2   27.39    2.73
   1  12   2   25.62    2.84
   2  12  -2   14.52    1.88
   2  12  -2   13.70    2.09
  -2  12   2   18.31    2.08
  -2  12   2   18.24    2.00
   2  12   2   12.07    2.11
   2  12   2   11.43    1.85
  -2  12  -2   11.41    1.98
  -3  12   2    9.08    1.80
   3  12  -2    7.51    1.79
  -3  12   2    8.37    1.71
   3  12   2    6.01    1.82
  -3  12  -2    5.35    1.72
   3  12   2    6.37    1.68
  -4  12   2   12.05    1.99
   4  12  -2    9.84    2.10
  -4  12   2   14.04    2.06
  -4  12  -2   11.13    2.05
   4  12   2   10.34    2.15
   5  12  -2   13.78    2.49
  -5  12   2   16.23    2.46
  -5  12  -2   20.82    2.60
   5  12   2   21.27    2.71
  -6  12   2   15.27    2.49
   6  12  -2   11.02    2.28
  -6  12  -2    8.59    2.29
   6  12   2    9.53    2.17
   7  12  -2    1.50    1.80
  -7  12   2    1.30    2.30
   7  12   2    0.98    1.78
  -7  12  -2    1.74    2.18
   0  13  -2   23.23    2.67
   0  13   2   23.17    2.42
   0  13   2   21.63    2.65
   1  13  -2   15.48    1.95
   1  13  -2   12.83    2.13
  -1  13   2   14.47    1.96
  -1  13   2   15.62    2.19
   1  13   2   14.79    2.29
  -1  13  -2   12.22    2.14
   1  13   2   16.73    2.00
  -2  13   2    5.39    1.70
   2  13  -2    5.17    1.79
   2  13  -2    7.14    1.62
  -2  13   2    5.51    1.68
   2  13   2    3.66    1.77
  -2  13  -2    2.86    1.72
   2  13   2    2.50    1.53
   3  13  -2    0.76    1.65
  -3  13   2    3.31    1.71
  -3  13   2    3.27    1.77
  -3  13  -2    4.78    1.78
   3  13   2    6.73    1.77
   3  13   2    5.96    1.94
  -4  13   2    8.89    2.02
   4  13  -2    7.16    2.09
   4  13   2   12.30    2.33
  -4  13  -2   11.82    2.20
   5  13  -2    1.66    1.84
  -5  13   2    2.95    2.03
   5  13   2    1.70    1.92
  -5  13  -2    2.24    1.95
   6  13  -2    6.36    2.11
   6  13   2    6.38    2.11
  -6  13  -2    6.04    2.28
   0  14   2    7.01    2.01
   0  14  -2    4.58    1.83
   0  14   2    7.73    1.74
  -1  14   2    6.12    1.70
   1  14  -2    7.53    1.93
  -1  14   2    6.50    2.01
   1  14   2    6.40    2.00
   1  14   2    5.82    1.71
  -1  14  -2    5.50    1.84
   2  14  -2   14.87    2.58
  -2  14   2   14.33    2.54
  -2  14   2   19.64    2.44
   2  14   2   27.48    2.60
  -2  14  -2   22.22    2.75
   2  14   2   24.52    2.94
   3  14  -2    0.92    1.82
  -3  14   2    4.63    1.90
  -3  14   2    4.23    1.95
  -3  14  -2    1.60    1.93
   3  14   2    1.92    1.76
   3  14   2    0.36    1.98
   4  14  -2    2.28    1.99
   4  14   2    3.10    2.04
  -4  14  -2    2.37    1.97
   5  14  -2   12.87    2.58
   5  14   2   17.07    2.84
  -5  14  -2   16.04    2.67
   0  15  -2    2.68    1.91
   0  15   2    1.53    2.02
   0  15   2    3.35    1.72
  -1  15   2    8.13    2.23
  -1  15   2    9.84    1.98
   1  15  -2    7.82    2.22
  -1  15  -2    9.86    2.26
   1  15   2    9.14    2.33
   1  15   2    9.83    1.99
   2  15  -2    4.37    2.06
  -2  15   2    6.00    2.12
   2  15   2    5.40    1.90
   2  15   2    6.18    2.33
  -2  15  -2    5.45    2.13
   3  15  -2   10.78    2.46
   3  15   2   14.94    2.30
  -3  15  -2    5.87    2.32
   3  15   2   12.38    2.68
   4  15  -2   12.84    2.64
  -4  15  -2   12.60    2.68
   4  15   2   15.64    2.84
   0  16  -2    3.61    2.16
   0  16   2    5.11    2.42
   1  16  -2    0.62    2.11
  -1  16   2   -0.42    2.16
   1  16   2    4.42    2.32
  -1  16  -2    1.70    2.10
   2  16  -2    8.08    2.39
   2  16   2   11.45    2.26
  -2  16  -2   11.67    2.52
   2  16   2    9.97    2.70
   0   0  -3    1.23    0.28
   0   0   3    0.92    0.24
  -1   0   3   99.32    6.39
  -1   0   3   99.64    6.39
   1   0   3   96.19    6.64
   1   0  -3   91.66    6.60
   1   0   3   93.27    6.38
   1   0   3   96.17    6.36
   2   0  -3   58.73    4.23
  -2   0   3   60.16    4.11
   2   0   3   57.92    4.25
  -2   0   3   61.52    4.06
   2   0   3   60.65    3.99
   3   0   3   97.97    6.89
  -3   0   3   98.22    6.52
  -3   0   3   95.71    6.65
   3   0  -3   95.47    6.85
   3   0   3   98.97    6.43
   4   0  -3    5.10    0.85
  -4   0   3    3.35    0.93
  -4   0   3    6.20    0.68
   4   0   3    6.04    0.98
   5   0   3    5.79    1.18
  -5   0  -3    5.33    1.31
  -5   0   3    5.44    1.23
   5   0  -3    4.79    1.04
  -5   0   3    6.30    0.72
  -6   0   3    8.68    1.66
   6   0  -3    8.17    1.38
  -6   0  -3    7.40    1.63
   6   0   3    9.98    1.60
   7   0   3  194.07   13.34
  -7   0   3  180.97   12.92
   7   0  -3  181.23   13.16
  -7   0  -3  183.90   12.93
  -8   0   3    3.01    1.97
   8   0  -3    6.77    1.68
   8   0   3    5.86    1.94
  -8   0  -3    2.64    1.95
   9   0   3    0.30    1.95
  -9   0   3    0.65    2.15
   9   0  -3   -0.72    1.71
  -9   0  -3    0.69    2.12
  10   0  -3    0.39    1.96
  10   0   3    0.10    2.37
 -10   0   3    4.06    2.52
 -10   0  -3    3.03    2.42
 -11   0   3    0.98    2.76
 -11   0  -3    6.37    2.72
  11   0   3   -2.38    2.59
 -11   0  -3    2.46    2.51
   0   1   3  104.86    7.27
   0   1   3  104.17    7.03
   0  -1   3  104.66    6.99
   0   1   3  105.20    7.03
   0   1  -3  106.75    7.29
   0  -1   3  107.75    7.05
  -1   1   3  177.78   11.30
   1   1  -3  178.37   11.70
   1  -1   3  183.67   11.26
  -1   1   3  184.99   11.27
   1   1   3  163.55   11.24
  -1   1  -3  161.73   11.71
  -1  -1   3  164.83   11.28
   1   1   3  164.94   11.73
  -1  -1   3  165.35   11.29
   1   1   3  159.37   11.28
  -2   1   3    2.35    0.49
   2  -1   3    3.01    0.40
   2   1  -3    2.69    0.50
  -2   1   3    2.47    0.45
   2  -1   3    3.62    0.54
  -2  -1   3    3.78    0.59
  -2   1  -3    3.93    0.56
  -2  -1   3    3.17    0.50
  -2   1  -3    3.95    0.52
   2  -1  -3    3.97    0.42
   2   1   3    3.85    0.39
   2   1   3    4.30    0.62
   3  -1   3  130.88    8.64
  -3   1   3  129.28    8.72
  -3   1   3  125.27    8.83
   3  -1   3  123.76    9.14
   3   1  -3  121.80    9.16
   3   1   3  137.15    9.22
  -3   1  -3  139.88    8.89
   3  -1  -3  135.84    9.08
  -3  -1   3  128.66    8.73
  -3  -1   3  138.46    8.91
   4   1  -3    6.20    0.98
  -4   1   3    5.48    1.02
   4  -1   3    6.18    0.96
  -4   1   3    6.83    0.76
   4   1   3    6.31    1.07
   4  -1  -3    8.49    0.92
  -4  -1   3    7.35    1.16
  -4   1  -3    6.43    1.09
  -4  -1   3    8.06    0.82
  -5   1   3   35.80    2.64
   5   1  -3   43.86    3.20
  -5   1   3   39.39    3.23
   5  -1   3   43.06    3.13
  -5  -1   3   33.48    2.67
  -5   1  -3   28.46    3.18
   5   1   3   38.09    3.27
  -5  -1   3   33.71    3.32
   5  -1  -3   33.85    2.95
  -6  -1  -3    6.36    1.55
  -6   1   3    4.65    1.45
   6   1  -3    7.04    1.31
   6  -1   3    6.31    1.35
  -6   1  -3    3.06    1.40
   6   1   3    4.45    1.40
  -6  -1   3    3.56    1.49
   6  -1  -3    4.22    1.17
  -7  -1  -3   14.86    2.16
  -7   1   3   13.48    2.15
   7  -1   3   14.92    2.07
   7   1  -3   15.79    1.96
  -7  -1   3   12.81    2.18
   7  -1  -3   10.74    1.79
   7   1   3   16.38    2.24
  -7   1  -3   11.76    2.08
   8   1  -3    1.37    1.51
  -8  -1  -3    5.87    1.98
   8  -1   3    4.59    1.89
  -8   1   3    5.71    2.12
   8   1   3    3.36    1.83
  -8   1  -3    3.28    1.91
   8  -1  -3    4.27    1.58
  -8  -1   3   -0.88    1.85
  -9   1   3   29.85    3.60
  -9  -1  -3   28.63    3.44
   9  -1   3   29.81    3.62
   9   1  -3   33.51    3.66
  -9   1  -3   27.96    3.52
   9   1   3   32.04    3.62
  -9  -1   3   30.88    3.58
   9  -1  -3   32.77    3.39
  10   1  -3    6.12    2.17
 -10  -1  -3    4.47    2.41
  10  -1   3   -0.63    2.42
 -10   1   3    5.49    2.70
  10  -1  -3    0.77    2.10
 -10  -1   3    4.07    2.58
  10   1   3    3.07    2.33
 -10   1  -3    2.68    2.31
 -10   1  -3    2.58    2.48
 -11   1   3    1.33    2.89
  11   1  -3   -0.02    2.15
 -11  -1  -3    3.81    2.54
 -11  -1   3    0.74    2.65
 -11   1  -3    3.81    2.73
 -11   1  -3   -0.08    2.56
  11   1   3   -0.69    2.57
   0   2   3   23.49    1.75
   0   2   3   22.52    1.80
   0  -2   3   25.69    1.84
   0   2  -3   23.15    1.80
   0   2   3   24.60    1.75
   1   2  -3  155.29   12.45
   1  -2   3  161.81   12.00
  -1   2   3  155.44   11.97
  -1   2   3  154.28   12.39
   1   2   3  207.45   12.55
   1   2   3  205.48   12.03
  -1   2  -3  202.12   11.95
  -1   2  -3  209.61   12.48
  -2   2   3    8.14    0.68
  -2   2   3    7.07    0.74
   2   2  -3    5.50    0.71
   2  -2   3    6.93    0.69
  -2   2   3    6.63    0.69
   2   2   3    7.27    0.87
   2   2   3    5.96    0.73
  -2   2  -3    6.66    0.65
  -2  -2   3    5.43    0.75
  -2  -2   3    6.44    0.83
  -2   2  -3    6.04    0.71
  -3   2   3  242.45   15.46
   3  -2   3  250.31   14.84
  -3   2   3  229.02   14.88
   3   2  -3  239.85   15.61
  -3   2   3  229.41   14.98
  -3   2  -3  212.93   15.53
  -3  -2   3  205.95   14.91
   3  -2  -3  214.83   15.46
  -3  -2   3  223.13   15.09
  -3   2  -3  215.68   14.95
   3   2   3  207.32   15.62
   4  -2   3   20.33    1.88
  -4   2   3   18.89    1.85
   4   2  -3   20.44    1.99
   4  -2   3   18.79    1.38
  -4   2  -3   20.24    1.90
  -4  -2   3   15.80    1.66
   4  -2  -3   18.98    1.68
  -4  -2   3   17.70    1.85
   4   2   3   15.53    1.79
  -4   2  -3   17.48    1.67
   5  -2   3    2.64    0.98
  -5   2   3    3.08    1.08
   5   2  -3    4.56    1.02
  -5   2  -3    2.70    1.06
  -5   2  -3    2.86    0.99
  -5  -2   3    3.09    0.72
   5  -2  -3    3.16    0.85
   5   2   3    1.49    1.08
  -5  -2   3    1.97    1.19
   6   2  -3    4.49    1.21
  -6   2   3    6.32    1.47
   6  -2   3    5.60    1.32
   6  -2  -3    4.71    1.13
  -6   2  -3    4.31    1.39
  -6  -2   3    3.82    1.52
  -6   2  -3    4.55    1.31
   6   2   3    4.65    1.44
  -7  -2  -3   30.14    3.23
   7   2  -3   30.48    3.38
  -7   2   3   28.07    3.21
   7  -2   3   29.17    3.19
  -7   2  -3   37.97    3.47
  -7  -2   3   36.62    3.75
   7  -2  -3   36.25    3.18
  -7   2  -3   34.96    3.26
   7   2   3   40.13    3.60
   8   2  -3    9.05    1.87
  -8  -2  -3   12.06    2.23
   8  -2   3   10.03    2.16
  -8   2   3    9.43    2.31
  -8   2  -3   10.21    2.12
  -8   2  -3    9.06    2.17
   8   2   3   12.82    2.24
  -8  -2   3    9.16    2.27
   8  -2  -3   11.59    1.93
  -9   2   3    2.30    2.32
  -9  -2  -3    7.82    2.22
  -9   2   3    1.87    1.81
   9   2  -3    2.23    1.70
  -9  -2   3    1.10    2.09
   9   2   3    0.24    1.98
  -9   2  -3   -2.50    2.09
   9  -2  -3    0.82    1.81
  -9   2  -3   -0.63    2.02
  10   2  -3    3.37    2.03
 -10  -2  -3    4.37    2.38
 -10   2   3    3.64    2.65
 -10   2  -3    3.53    2.46
  10   2   3   -0.68    2.21
 -10   2  -3    4.27    2.57
 -10  -2   3    6.63    2.49
  11   2  -3    5.85    2.37
 -11  -2  -3   14.20    2.85
 -11   2   3   10.33    3.12
 -11  -2   3   11.27    2.93
  11   2   3    6.11    2.71
 -11   2  -3    7.41    2.83
 -11   2  -3    7.95    3.10
   0   3  -3  100.03    6.84
   0   3   3  104.33    7.15
   0   3  -3  104.25    7.17
   1   3  -3  384.78   26.22
  -1   3   3  377.81   26.16
  -1   3  -3  382.59   25.20
   1   3   3  392.98   25.28
  -1   3  -3  388.34   26.23
   1   3   3  368.36   26.28
  -2   3   3    3.90    0.64
   2   3  -3    3.28    0.62
  -2   3   3    3.38    0.49
  -2  -3   3    4.41    0.73
   2   3   3    4.94    0.79
  -2   3  -3    4.31    0.64
   2   3   3    3.78    0.62
  -2   3  -3    4.92    0.51
   3   3  -3   74.49    5.75
  -3   3   3   76.88    5.60
  -3   3   3   73.01    5.51
  -3  -3   3   81.01    5.52
  -3   3  -3   85.92    5.72
   3   3   3   83.89    5.87
  -3   3  -3   83.50    5.45
  -4   3   3   24.31    2.09
  -4   3   3   21.36    2.17
   4  -3   3   22.60    1.91
   4   3  -3   24.31    2.33
  -4   3  -3   28.27    2.25
   4   3   3   26.85    2.53
  -4   3  -3   26.42    2.21
  -4  -3   3   27.80    2.18
  -4  -3   3   25.03    2.55
  -5   3   3  145.64    9.26
   5  -3   3  138.23    8.86
   5   3  -3  144.13    9.59
  -5   3   3  145.14    9.43
   5   3   3  128.98    9.69
  -5   3  -3  126.88    9.16
  -5  -3   3  120.29    9.37
  -5  -3   3  124.75    9.02
  -5   3  -3  125.36    9.49
  -6   3   3   24.22    2.50
   6   3  -3   28.92    2.82
  -6   3   3   27.52    2.67
  -6   3  -3   26.21    2.52
   6   3   3   26.39    2.73
  -6  -3   3   21.79    2.64
  -6  -3   3   25.17    2.24
  -6   3  -3   27.81    2.83
  -7   3   3    5.60    1.47
  -7   3   3    5.67    1.81
   7   3  -3    7.74    1.52
   7   3   3    7.42    1.72
  -7   3  -3    5.21    1.60
  -7   3  -3    7.70    1.78
  -7  -3   3    7.81    1.88
  -8   3   3    8.56    1.83
  -8  -3  -3    7.05    2.08
   8   3  -3    7.52    1.70
  -8   3   3    5.11    2.10
  -8   3  -3    4.98    1.90
  -8  -3   3    7.69    2.08
  -8   3  -3    4.28    2.07
   8   3   3    8.57    2.04
  -9   3   3    6.84    2.48
  -9   3   3    7.52    2.06
  -9  -3  -3   13.53    2.39
   9   3  -3    9.66    1.97
  -9  -3   3    9.84    2.39
  -9   3  -3    4.25    2.23
   9   3   3    6.56    2.19
  -9   3  -3    2.21    2.30
 -10  -3  -3    6.67    2.44
  10   3  -3    2.42    1.94
 -10   3   3    1.48    2.64
 -10   3  -3    2.93    2.47
  10   3   3    6.08    2.41
 -10   3  -3    3.67    2.68
 -10  -3   3    5.60    2.40
 -11   3   3    4.71    3.11
 -11  -3  -3   10.39    2.81
  11   3  -3    8.48    2.39
  11   3   3    8.96    2.78
 -11  -3   3   13.53    2.87
 -11   3  -3    8.24    3.11
 -11   3  -3    6.74    2.96
   0   4  -3   43.85    3.05
   0   4   3   45.35    3.24
   0   4  -3   46.43    3.27
   0   4   3   42.47    3.15
   1   4  -3  288.22   19.33
  -1   4   3  272.43   18.62
  -1   4   3  283.29   19.27
  -1   4  -3  278.83   19.33
   1   4   3  278.10   19.38
   1   4   3  282.98   18.63
  -1   4  -3  282.65   18.54
  -2   4   3   18.11    1.38
  -2   4   3   16.17    1.56
   2   4  -3   19.26    1.59
   2   4   3   16.57    1.73
  -2   4  -3   14.62    1.51
   2   4   3   15.24    1.53
  -2   4  -3   14.34    1.34
  -3   4   3  135.82    8.60
  -3   4   3  133.56    8.79
   3   4  -3  129.65    8.95
  -3   4  -3  121.13    8.49
   3   4   3  118.99    8.60
   3   4   3  118.09    9.01
  -3   4  -3  125.98    8.89
  -4   4   3   15.07    1.74
  -4   4   3   18.42    1.79
   4   4  -3   17.96    2.08
   4   4   3   20.99    2.05
  -4  -4   3   21.41    1.91
  -4   4  -3   20.55    1.87
  -4   4  -3   22.22    2.00
   5  -4   3   11.83    1.10
   5   4  -3   11.66    1.51
  -5   4   3   12.77    1.33
  -5   4   3   10.98    1.50
  -5   4  -3    9.78    1.37
   5   4   3   11.08    1.61
  -5   4  -3   10.30    1.43
  -5  -4   3   10.66    1.31
  -5  -4   3    7.87    1.58
   6   4  -3    6.33    1.33
  -6   4   3    4.86    1.47
  -6   4   3    6.64    1.24
  -6   4  -3    4.88    1.34
  -6  -4   3    9.35    1.73
   6   4   3    6.66    1.54
  -6  -4   3    6.19    1.08
  -6   4  -3    3.03    1.35
  -7   4   3   51.35    4.96
   7   4  -3   59.51    4.85
  -7   4   3   62.08    4.90
   7   4   3   61.18    5.09
  -7  -4   3   61.44    5.17
  -7   4  -3   63.83    5.03
  -7   4  -3   59.51    4.95
  -8  -4  -3   -0.39    1.82
   8   4  -3    1.62    1.42
  -8   4   3    2.11    1.97
  -8   4   3    1.47    1.55
   8   4   3    0.99    1.50
  -8  -4   3    1.77    1.86
  -8   4  -3   -2.08    1.77
  -8   4  -3    1.06    1.78
   9   4  -3   10.92    1.98
  -9   4   3    9.24    2.64
  -9  -4  -3    9.33    2.40
  -9   4  -3    7.92    2.39
  -9   4  -3    4.42    2.35
  -9  -4   3    9.52    2.42
   9   4   3   10.56    2.29
 -10  -4  -3   11.50    2.62
  10   4  -3    7.12    2.12
 -10   4   3    8.96    3.04
  10   4   3    7.56    2.48
 -10   4  -3    8.53    2.84
 -10  -4   3   11.46    2.61
 -10   4  -3    7.50    2.70
   0   5  -3   26.81    2.19
   0   5   3   28.36    2.19
   0   5  -3   27.89    2.00
   0   5   3   26.19    2.14
   1   5  -3  203.45   13.31
   1   5  -3  203.06   12.78
  -1   5   3  193.58   12.81
  -1   5   3  199.22   13.24
  -1   5  -3  189.06   13.29
   1   5   3  174.61   13.30
  -1   5  -3  188.17   12.72
   1   5   3  183.27   12.80
   2   5  -3    8.30    1.00
  -2   5   3   10.97    1.06
  -2   5   3    8.69    0.96
  -2   5  -3    7.10    0.77
   2   5   3    6.54    0.94
  -2   5  -3    6.87    0.96
   2   5   3    6.16    1.02
   3   5  -3   38.88    2.99
  -3   5   3   37.43    2.84
  -3   5   3   38.33    2.76
  -3   5  -3   32.80    2.91
   3   5   3   34.20    3.08
  -3   5  -3   33.86    2.68
   3   5   3   33.89    2.89
  -4   5   3    4.02    0.84
   4   5  -3    4.74    1.10
  -4   5   3    4.66    1.07
  -4   5  -3    4.87    0.90
  -4  -5   3    4.22    1.00
   4   5   3    4.15    1.13
  -4   5  -3    5.50    1.04
   5   5  -3  249.85   17.59
  -5   5   3  244.85   17.39
  -5   5   3  234.40   16.88
   5   5   3  261.20   17.66
  -5   5  -3  257.54   16.82
  -5   5  -3  254.11   17.50
  -5  -5   3  253.84   16.77
  -6   5   3   10.14    1.80
  -6   5   3    8.42    1.49
   6   5  -3   11.43    1.70
  -6  -5   3   13.86    1.51
  -6  -5   3   15.99    2.04
  -6   5  -3   14.78    1.84
  -6   5  -3   12.74    1.67
   6   5   3   13.14    1.84
  -7   5   3    5.07    1.81
   7   5  -3    7.27    1.60
  -7   5   3    6.07    1.53
  -7   5  -3    7.57    1.70
  -7   5  -3    8.46    1.81
  -7  -5   3    8.56    1.99
   7   5   3    9.76    1.82
  -8   5   3    3.85    2.02
   8   5  -3    5.30    1.57
  -8   5   3    4.48    1.66
   8   5   3    3.83    1.65
  -8  -5   3    7.66    2.09
  -8   5  -3    5.74    1.94
  -8   5  -3    2.95    1.90
   9   5  -3    2.92    1.63
  -9   5   3    1.27    2.31
  -9  -5  -3    5.20    2.21
  -9  -5   3    6.17    2.20
  -9   5  -3    3.14    2.22
   9   5   3    1.21    1.59
  -9   5  -3    0.74    2.20
 -10  -5  -3    7.74    2.59
  10   5  -3    4.43    1.85
 -10   5   3    4.51    2.88
 -10   5  -3    6.81    2.71
 -10   5  -3    7.29    2.76
  10   5   3    5.94    2.28
   0   6   3    3.61    0.69
   0   6   3    3.00    0.72
   0   6  -3    3.17    0.58
   0   6  -3    2.87    0.75
  -1   6   3   45.46    3.35
   1   6  -3   45.16    3.26
  -1   6   3   46.22    3.39
   1   6  -3   46.44    3.48
   1   6   3   46.06    3.34
  -1   6  -3   45.42    3.21
  -1   6  -3   45.29    3.46
   1   6   3   43.63    3.48
  -2   6   3   77.68    5.68
  -2   6   3   74.12    5.55
   2   6  -3   81.70    5.81
   2   6   3   84.66    5.93
  -2   6  -3   79.52    5.45
   2   6   3   80.70    5.59
  -2   6  -3   80.84    5.78
  -3   6   3   52.73    4.17
   3   6  -3   52.07    4.34
  -3   6   3   49.53    4.15
  -3   6  -3   57.85    4.28
   3   6   3   61.45    4.52
  -3   6  -3   63.67    4.06
   3   6   3   60.30    4.24
  -4   6   3   25.56    2.39
   4   6  -3   25.40    2.72
  -4   6   3   24.39    2.58
  -4   6  -3   30.53    2.46
   4   6   3   28.88    2.82
  -4   6  -3   28.59    2.58
  -5   6   3   -0.20    0.90
  -5   6   3   -0.36    1.16
   5   6  -3    0.59    1.10
  -5  -6   3    1.15    1.00
  -5   6  -3   -0.27    1.00
  -5   6  -3   -0.01    1.07
   5   6   3    0.89    1.12
   6   6  -3   34.73    3.28
  -6   6   3   33.78    3.11
  -6   6   3   31.13    3.36
  -6   6  -3   31.03    3.19
  -6  -6   3   32.93    2.94
   6   6   3   33.01    3.36
  -6   6  -3   31.71    3.30
  -7   6   3   63.71    5.67
  -7   6   3   68.93    5.49
   7   6  -3   67.26    5.54
  -7   6  -3   63.61    5.47
   7   6   3   70.02    5.60
  -7   6  -3   70.74    5.70
  -7  -6   3   79.47    5.84
  -8   6   3    5.75    2.26
   8   6  -3    4.61    1.61
  -8  -6   3    3.92    2.00
   8   6   3    4.75    1.66
  -8   6  -3    5.80    1.96
  -8   6  -3    1.94    1.90
  -9  -6  -3    9.61    2.48
   9   6  -3    9.18    2.02
  -9   6   3    8.97    2.72
  -9  -6   3   11.17    2.43
  -9   6  -3    7.60    2.46
  -9   6  -3    7.42    2.42
   9   6   3    6.50    1.88
 -10  -6  -3    3.34    2.42
 -10   6   3   -0.84    2.75
  10   6  -3    1.50    1.60
 -10  -6   3    5.33    2.44
 -10   6  -3    0.13    2.51
 -10   6  -3   -1.01    2.49
  10   6   3    1.17    1.71
   0   7  -3    3.80    0.90
   0   7   3    4.58    0.86
   0   7  -3    4.82    0.72
   0   7   3    4.50    0.91
   1   7  -3  143.98    9.54
  -1   7   3  141.44    9.16
   1   7  -3  142.55    9.10
  -1   7   3  144.45    9.47
   1   7   3  121.95    9.13
  -1   7  -3  126.18    9.04
  -1   7  -3  128.52    9.51
   1   7   3  129.65    9.55
  -2   7   3  114.66    8.38
  -2   7   3  112.90    8.18
   2   7  -3  117.47    8.51
   2   7   3  121.75    8.61
   2   7   3  121.03    8.18
  -2   7  -3  125.23    8.50
  -2   7  -3  120.82    8.05
  -3   7   3   14.55    1.60
   3   7  -3   18.85    1.83
  -3   7   3   16.60    1.78
   3   7   3   13.99    1.74
   3   7   3   14.49    1.64
  -3   7  -3   14.54    1.61
  -3   7  -3   13.29    1.39
   4   7  -3   12.52    1.64
  -4   7   3   12.63    1.36
  -4   7   3   13.44    1.59
   4   7   3    9.08    1.60
  -4   7  -3    9.55    1.31
  -4   7  -3    9.91    1.49
  -5   7   3   65.53    4.96
  -5   7   3   64.41    5.02
   5   7  -3   75.30    5.30
  -5   7  -3   61.35    4.82
  -5   7  -3   64.02    5.17
  -5  -7   3   64.27    4.92
   5   7   3   61.19    5.22
  -6   7   3    1.62    1.19
  -6   7   3   -0.61    1.48
   6   7  -3    2.03    1.35
  -6  -7   3    1.62    1.16
  -6   7  -3    2.45    1.33
  -6   7  -3    1.06    1.38
   6   7   3    2.31    1.35
  -7   7   3    1.54    1.85
  -7   7   3    0.52    1.40
   7   7  -3    0.40    1.35
   7   7   3    1.38    1.39
  -7   7  -3    1.16    1.60
  -7   7  -3   -0.56    1.52
  -7  -7   3    1.79    1.76
  -8   7   3   24.63    3.10
   8   7  -3   20.47    2.65
   8   7   3   23.08    2.83
  -8   7  -3   21.76    2.95
  -8   7  -3   24.84    2.87
  -8  -7   3   25.16    3.02
  -9   7   3   19.57    3.36
   9   7  -3   22.76    2.77
  -9  -7  -3   24.60    3.20
   9   7   3   24.03    2.92
  -9  -7   3   22.97    3.14
  -9   7  -3   26.46    3.38
  -9   7  -3   26.99    3.33
  10   7  -3    2.67    1.72
 -10  -7  -3    3.08    2.54
 -10   7   3   -1.20    2.87
 -10  -7   3    2.64    2.39
 -10   7  -3   -0.48    2.50
  10   7   3    2.61    1.76
   0   8   3    4.62    0.97
   0   8   3    3.50    1.00
   0   8  -3    4.38    0.81
   0   8  -3    3.68    0.99
   1   8  -3   29.28    2.38
  -1   8   3   32.04    2.51
  -1   8   3   30.08    2.51
   1   8  -3   30.79    2.64
   1   8   3   25.99    2.68
   1   8   3   24.40    2.42
  -1   8  -3   27.22    2.35
  -1   8  -3   23.36    2.51
  -2   8   3   44.59    3.70
   2   8  -3   46.16    3.86
  -2   8   3   44.60    3.68
   2   8   3   51.09    3.72
  -2   8  -3   49.62    3.57
   2   8   3   49.90    4.03
  -2   8  -3   49.24    3.83
  -3   8   3  195.01   13.63
   3   8  -3  199.10   13.80
  -3   8   3  189.95   13.23
  -3   8  -3  198.36   13.10
   3   8   3  192.37   13.87
   3   8   3  195.26   13.23
  -3   8  -3  195.11   13.70
  -4   8   3   48.90    4.08
   4   8  -3   51.42    4.25
  -4   8   3   46.89    3.94
   4   8   3   54.87    4.36
  -4   8  -3   47.95    3.86
  -4   8  -3   46.95    4.08
  -5   8   3    1.75    1.15
  -5   8   3    1.73    1.42
   5   8  -3    2.22    1.35
  -5   8  -3    3.42    1.21
   5   8   3    3.54    1.40
  -5   8  -3    4.97    1.42
  -6   8   3    1.24    1.62
   6   8  -3    0.51    1.41
  -6   8   3    2.91    1.29
   6   8   3   -0.02    1.31
  -6   8  -3   -0.25    1.29
  -6   8  -3    2.08    1.50
  -6  -8   3    1.80    1.27
  -7   8   3   29.69    3.10
   7   8  -3   27.72    2.98
   7   8   3   27.26    3.03
  -7   8  -3   29.67    3.16
  -7   8  -3   26.15    2.89
  -8   8   3    3.25    2.35
   8   8  -3    5.87    1.77
  -8   8  -3    5.46    2.19
  -8  -8   3    8.07    2.30
   9   8  -3    1.85    1.66
  -9   8   3   -0.88    2.51
   9   8   3    2.13    1.69
  -9  -8   3    1.79    2.24
  -9   8  -3   -1.03    2.26
   0   9   3   27.79    2.70
   0   9  -3   27.19    2.65
   0   9  -3   27.16    2.40
   0   9   3   27.35    2.68
   1   9  -3   47.22    3.85
   1   9  -3   45.01    3.57
  -1   9   3   43.30    3.78
  -1   9   3   42.37    3.67
   1   9   3   45.59    3.64
  -1   9  -3   49.23    3.53
  -1   9  -3   47.44    3.82
   1   9   3   56.66    4.01
  -2   9   3   44.73    4.05
  -2   9   3   49.34    4.05
   2   9  -3   49.61    4.21
   2   9   3   51.99    4.01
   2   9   3   57.17    4.39
  -2   9  -3   54.90    4.22
  -2   9  -3   55.65    3.90
  -3   9   3   80.39    6.11
   3   9  -3   81.74    6.28
  -3   9   3   81.71    6.05
   3   9   3   81.29    5.99
  -3   9  -3   83.20    6.19
  -3   9  -3   83.37    5.87
   3   9   3   84.19    6.38
  -4   9   3    5.39    1.27
  -4   9   3    5.57    1.44
   4   9  -3    5.32    1.47
  -4   9  -3    5.83    1.23
   4   9   3    5.01    1.53
  -4   9  -3    6.08    1.46
   5   9  -3    3.41    1.52
  -5   9   3    5.44    1.59
  -5   9   3    5.21    1.39
  -5   9  -3    6.03    1.35
   5   9   3    4.70    1.54
  -5   9  -3    4.13    1.54
  -6   9   3   -1.20    1.63
   6   9  -3    0.11    1.42
   6   9   3    0.32    1.41
  -6   9  -3    1.28    1.41
  -6  -9   3    0.22    1.34
  -6   9  -3   -0.11    1.51
  -7   9   3    2.62    2.03
   7   9  -3    4.30    1.67
   7   9   3    2.77    1.60
  -7   9  -3    3.69    1.89
   8   9  -3    5.04    1.80
  -8   9   3    5.03    2.41
   8   9   3    2.62    1.64
  -8  -9   3    2.21    2.18
  -8   9  -3    2.27    2.10
  -9   9   3   14.53    3.16
   9   9  -3   13.21    2.34
  -9   9  -3   15.34    2.91
   9   9   3   12.59    2.32
  -9  -9   3   15.29    2.86
   0  10   3    9.57    1.46
   0  10  -3   10.37    1.57
   0  10   3   10.32    1.52
   0  10  -3    9.38    1.30
   1  10  -3   14.39    1.72
  -1  10   3   18.27    1.68
  -1  10  -3    9.74    1.34
   1  10   3    9.73    1.66
   1  10   3   11.52    1.56
  -1  10  -3    9.57    1.59
  -2  10   3    4.28    1.27
  -2  10   3    5.95    1.28
   2  10  -3    4.52    1.37
   2  10   3    2.58    1.24
  -2  10  -3    4.22    1.33
   2  10   3    4.39    1.38
  -2  10  -3    3.44    1.06
  -3  10   3   48.55    4.34
  -3  10   3   49.29    4.34
   3  10  -3   53.15    4.62
   3  10   3   58.11    4.34
   3  10   3   56.74    4.68
  -3  10  -3   55.83    4.55
  -3  10  -3   58.74    4.25
   4  10  -3    2.94    1.47
  -4  10   3    4.08    1.53
  -4  10   3    3.76    1.31
  -4  10  -3    0.37    1.14
   4  10   3    1.20    1.38
   4  10   3    1.85    1.48
  -4  10  -3    1.97    1.43
  -5  10   3   38.07    3.87
  -5  10   3   38.85    3.79
   5  10  -3   41.18    4.06
  -5  10  -3   40.72    3.96
   5  10   3   46.05    4.05
   6  10  -3    9.76    2.05
  -6  10   3    9.71    2.19
  -6  10  -3   13.98    2.22
  -6 -10   3   13.21    1.98
   6  10   3   12.12    2.08
   7  10  -3   11.92    2.27
  -7  10   3   15.38    2.67
  -7  10  -3   14.07    2.44
   7  10   3   16.12    2.35
   8  10  -3    2.37    1.75
  -8  10   3   -0.57    2.33
  -8  10  -3    0.67    2.15
  -8 -10   3    2.36    2.24
   8  10   3    0.38    1.60
   0  11  -3   -0.01    1.04
   0  11   3    1.29    1.19
   0  11   3   -2.00    1.16
   0  11  -3    1.85    1.33
   1  11  -3   57.75    5.20
   1  11  -3   64.76    4.90
  -1  11   3   62.02    5.22
  -1  11   3   58.88    5.06
  -1  11  -3   70.90    4.85
  -1  11  -3   71.05    5.30
   1  11   3   68.82    4.94
   1  11   3   69.83    5.31
  -2  11   3    8.84    1.58
  -2  11   3    9.24    1.57
   2  11  -3    7.33    1.63
  -2  11  -3    8.87    1.38
   2  11   3    7.93    1.56
   2  11   3    7.23    1.66
  -2  11  -3    7.76    1.63
  -3  11   3   13.52    1.95
   3  11  -3   10.71    1.95
  -3  11   3   16.09    1.94
   3  11   3   15.56    2.14
  -3  11  -3   13.45    1.98
   3  11   3   13.65    1.91
  -4  11   3   12.52    2.04
  -4  11   3   15.93    2.01
   4  11  -3   11.13    2.06
   4  11   3   16.43    2.31
  -4  11  -3   14.32    2.12
   5  11  -3   15.49    2.32
  -5  11   3   17.56    2.35
  -5  11  -3   10.04    2.14
   5  11   3   12.21    2.23
   6  11  -3   18.46    2.66
  -6  11   3   19.58    2.67
   6  11   3   21.12    2.69
  -6 -11   3   18.38    2.45
  -6  11  -3   19.95    2.70
  -7  11   3    0.75    2.13
   7  11  -3    1.44    1.76
   7  11   3    1.79    1.72
  -7  11  -3    2.67    2.07
   8  11  -3    1.50    1.80
  -8  11   3   -1.28    2.43
  -8 -11   3    3.84    2.41
  -8  11  -3   -1.87    2.18
   8  11   3    0.68    1.72
   0  12   3   59.50    4.83
   0  12  -3   65.40    4.81
   0  12   3   64.50    5.30
   0  12  -3   64.39    5.20
  -1  12   3   19.13    2.18
  -1  12   3   17.18    2.20
   1  12  -3   15.03    2.19
   1  12  -3   19.40    2.06
   1  12   3   18.98    2.34
   1  12   3   19.19    2.10
  -1  12  -3   18.26    2.24
  -2  12   3    0.91    1.42
  -2  12   3    0.79    1.45
   2  12  -3    0.15    1.41
   2  12   3    0.48    1.51
  -2  12  -3   -0.75    1.38
   2  12   3    1.16    1.35
  -3  12   3   26.83    2.55
   3  12  -3   18.97    2.57
  -3  12   3   25.21    2.58
   3  12   3   22.15    2.81
  -3  12  -3   23.24    2.62
   3  12   3   21.29    2.48
   4  12  -3    0.85    1.63
  -4  12   3    2.21    1.71
   4  12   3   -0.01    1.67
  -4  12  -3   -0.10    1.65
   5  12  -3    1.75    1.70
  -5  12   3    1.66    1.85
  -5  12  -3    5.67    1.95
   5  12   3    1.31    1.77
  -6  12   3    7.45    2.29
   6  12  -3    7.58    2.13
   6  12   3    7.58    2.10
  -6  12  -3    6.59    2.24
  -6 -12   3    9.16    2.08
  -7  12   3    4.84    2.58
   7  12  -3   10.83    2.35
  -7  12  -3   13.32    2.61
   7  12   3   11.57    2.28
   0  13  -3    3.80    1.61
   0  13   3    2.14    1.64
   0  13   3   -1.12    1.39
   1  13  -3    5.43    1.79
  -1  13   3   13.31    1.84
  -1  13   3   12.23    2.01
   1  13   3    9.11    1.98
   1  13   3    8.36    1.73
  -1  13  -3    7.65    1.89
  -2  13   3   12.80    1.98
   2  13  -3   10.44    2.01
  -2  13   3   11.00    1.99
   2  13   3    8.95    2.13
  -2  13  -3    7.76    1.97
   2  13   3    8.18    1.76
  -3  13   3    4.29    1.69
  -3  13   3    4.06    1.74
   3  13  -3    1.17    1.67
   3  13   3    3.00    1.65
  -3  13  -3    4.87    1.83
   3  13   3    1.81    1.84
  -4  13   3    7.14    1.98
   4  13  -3    3.64    1.87
   4  13   3    9.09    2.16
  -4  13  -3    4.73    1.96
  -5  13   3   29.34    3.12
   5  13  -3   23.12    3.13
  -5  13  -3   24.40    3.12
   5  13   3   26.43    3.23
   6  13  -3    5.24    2.12
  -6  13   3    7.67    2.42
  -6 -13   3    8.91    2.19
   6  13   3    6.37    2.14
  -6  13  -3    4.38    2.27
   0  14  -3    8.61    2.04
   0  14   3    9.92    2.19
   0  14   3   10.61    1.86
  -1  14   3   14.97    2.01
  -1  14   3   12.65    2.26
   1  14  -3   10.41    2.12
   1  14   3   12.86    2.34
  -1  14  -3   12.07    2.18
   1  14   3   11.20    1.99
  -2  14   3   -1.33    1.67
   2  14  -3   -0.35    1.69
  -2  14   3   -0.42    1.56
   2  14   3   -0.54    1.58
  -2  14  -3    0.35    1.77
   2  14   3   -0.77    1.87
   3  14  -3   -0.34    1.73
  -3  14   3   -0.38    1.82
   3  14   3    2.96    1.79
  -3  14  -3   -0.03    1.85
   3  14   3    0.97    1.99
   4  14  -3    6.10    2.10
  -4  14   3    7.33    2.07
   4  14   3    6.44    2.28
  -4  14  -3    5.22    2.15
   5  14  -3   -0.39    1.86
  -5  14  -3    0.15    2.08
   5  14   3    1.16    2.05
   0  15   3    4.36    2.12
   0  15   3    3.49    1.80
   0  15  -3    2.49    1.89
  -1  15   3    4.58    2.11
  -1  15   3    5.33    1.81
   1  15  -3    3.93    1.97
   1  15   3    5.33    2.20
  -1  15  -3    2.56    1.90
   1  15   3    5.69    1.83
  -2  15   3   18.68    2.51
   2  15  -3   20.23    2.83
   2  15   3   18.66    3.01
   2  15   3   19.85    2.53
  -2  15  -3   18.37    2.72
   3  15  -3    0.61    1.90
   3  15   3    3.15    1.94
  -3  15  -3   -0.07    2.02
   3  15   3    1.84    2.19
   4  15  -3    1.26    2.05
  -4  15  -3    1.20    2.16
   4  15   3    0.35    2.22
   0  16   3    1.56    1.86
   0  16  -3    2.37    2.11
   0  16   3    1.00    2.20
   1  16  -3    7.90    2.37
  -1  16  -3    7.35    2.33
   1  16   3    9.98    2.15
   1  16   3    8.72    2.65
   2  16  -3    7.62    2.29
   2  16   3    6.80    2.12
   2  16   3    4.39    2.50
  -2  16  -3    3.84    2.21
   0   0   4   76.18    5.04
   0   0  -4   75.82    5.18
   0   0   4   73.06    5.00
   1   0   4   33.26    2.25
  -1   0   4   33.24    2.25
   1   0   4   31.74    2.23
   1   0   4   33.29    2.34
  -1   0   4   33.83    2.29
   1   0  -4   30.15    2.26
   2   0  -4   96.21    7.08
  -2   0   4  105.73    6.87
  -2   0   4  102.81    6.83
   2   0   4  102.17    6.76
   2   0   4  102.97    7.12
   3   0   4   33.60    2.61
  -3   0   4   34.36    2.59
   3   0  -4   31.97    2.55
  -3   0   4   33.00    2.44
   3   0   4   33.66    2.29
  -4   0   4  130.40    8.88
  -4   0   4  136.54    9.11
   4   0  -4  130.24    9.32
   4   0   4  134.34    9.40
   5   0  -4   74.96    5.73
  -5   0  -4   76.25    5.77
  -5   0   4   78.68    5.77
   5   0   4   84.05    5.91
  -5   0   4   77.03    5.35
  -6   0  -4   27.49    2.79
   6   0  -4   29.86    2.72
   6   0   4   28.98    3.09
  -6   0   4   28.30    2.79
  -7   0  -4    1.53    1.55
   7   0  -4    1.94    1.25
  -7   0   4   -0.79    1.56
   7   0   4   -0.83    1.49
   8   0  -4   34.64    3.52
  -8   0   4   33.22    3.63
   8   0   4   41.74    4.01
  -8   0  -4   33.03    3.51
   9   0  -4    2.50    1.76
  -9   0  -4    1.45    2.14
  -9   0   4    1.30    2.24
   9   0   4   -0.34    2.06
  10   0  -4    7.31    2.20
 -10   0   4    6.75    2.76
  10   0   4    5.63    2.67
 -10   0  -4    6.77    2.54
 -11   0   4    4.98    2.87
 -11   0  -4    3.96    2.55
  11   0   4   -6.01    2.63
 -11   0  -4    4.76    2.69
   0   1  -4   41.67    2.94
   0  -1   4   42.12    2.79
   0   1   4   41.08    2.85
   0   1   4   42.31    2.91
   0  -1   4   42.54    2.90
   0   1   4   40.93    2.87
  -1   1   4   59.82    4.54
   1   1  -4   58.98    4.67
  -1   1   4   59.02    4.54
   1  -1   4   59.99    4.53
  -1   1  -4   72.52    4.71
   1   1   4   72.42    4.52
   1   1   4   71.57    4.54
  -1  -1   4   74.01    4.53
  -1  -1   4   75.68    4.59
   1   1   4   70.50    4.72
   2  -1   4  353.31   23.14
  -2   1   4  344.83   23.18
  -2   1   4  345.00   23.27
   2  -1   4  356.92   24.16
   2   1  -4  336.71   24.13
   2   1   4  366.59   23.14
   2   1   4  360.39   23.28
   2  -1  -4  341.62   24.06
   2   1   4  353.62   24.18
  -2   1  -4  347.48   24.15
  -2  -1   4  353.92   23.21
  -2  -1   4  362.03   23.29
   3  -1   4   57.63    4.55
   3   1  -4   54.89    4.56
  -3   1   4   55.46    4.41
   3  -1   4   57.48    4.22
  -3   1   4   57.01    4.33
   3  -1  -4   68.31    4.46
   3   1   4   72.30    4.69
  -3   1  -4   66.57    4.48
  -3  -1   4   71.20    4.51
  -3  -1   4   72.56    4.38
   4  -1   4   23.24    2.04
  -4   1   4   21.87    2.15
  -4   1   4   23.98    1.84
   4   1  -4   22.25    2.06
   4  -1   4   23.37    1.54
   4  -1  -4   20.06    1.87
  -4  -1   4   20.71    1.83
   4   1   4   18.65    2.11
  -4  -1   4   18.01    1.95
  -4   1  -4   20.53    1.96
   5  -1   4   26.81    2.45
  -5   1   4   26.54    2.05
  -5   1   4   24.70    2.61
   5   1  -4   26.25    2.48
  -5  -1   4   25.35    2.40
   5  -1  -4   21.50    2.18
  -5  -1   4   23.75    2.06
   5   1   4   26.00    2.57
  -5   1  -4   22.91    2.30
   6  -1   4    9.99    1.56
  -6  -1  -4    8.97    1.63
  -6   1   4    9.23    1.64
   6   1  -4   10.52    1.46
   6   1   4    5.33    1.55
  -6   1  -4    4.77    1.49
  -6  -1   4    4.92    1.61
   6  -1  -4    7.34    1.27
   7  -1   4   14.35    2.28
   7   1  -4   14.92    2.09
  -7   1   4   12.42    2.29
  -7  -1  -4   13.84    2.31
   7  -1  -4   24.73    2.38
  -7   1  -4   23.11    2.48
   7   1   4   24.37    2.62
  -7  -1   4   22.57    2.52
  -8  -1  -4   41.46    4.08
  -8   1   4   34.67    3.67
   8   1  -4   37.29    3.66
   8  -1   4   34.44    3.71
   8  -1  -4   34.42    3.53
  -8   1  -4   33.95    3.59
  -8  -1   4   35.53    3.72
   8   1   4   40.76    4.21
  -9  -1  -4    7.27    2.23
  -9   1   4    4.50    2.41
   9   1  -4    6.39    1.88
   9  -1   4    3.12    2.25
  -9   1  -4    3.93    2.28
  -9   1  -4    2.39    2.13
  -9  -1   4    5.00    2.32
   9   1   4    6.95    2.36
   9  -1  -4    4.58    1.92
  10  -1   4    6.45    2.77
 -10   1   4    8.69    2.85
 -10  -1  -4   10.21    2.65
  10   1  -4    9.15    2.25
 -10   1  -4    5.27    2.51
 -10   1  -4   10.18    2.69
  10   1   4    5.63    2.54
 -10  -1   4    3.70    2.60
 -11   1   4   23.66    3.66
 -11  -1  -4   26.76    3.39
 -11   1  -4   15.25    3.43
 -11  -1   4   16.48    3.45
  11   1   4   17.55    3.50
 -11   1  -4   16.12    3.38
   0   2   4  209.58   14.01
   0   2  -4  208.51   14.53
   0   2   4  215.41   13.98
   0   2   4  210.52   14.53
   0  -2   4  212.83   14.03
   1  -2   4  361.48   25.39
   1   2  -4  345.31   26.39
  -1   2   4  345.12   25.45
  -1   2   4  347.04   25.37
   1   2   4  413.66   26.46
  -1  -2   4  405.18   25.44
   1   2   4  407.30   25.46
  -1   2  -4  398.55   26.42
   1   2   4  415.58   25.37
  -1  -2   4  416.78   25.45
   2  -2   4   42.40    3.04
  -2   2   4   41.54    3.05
   2   2  -4   40.58    3.18
  -2   2   4   38.89    3.07
  -2  -2   4   46.89    3.16
   2   2   4   45.65    3.33
  -2  -2   4   44.27    3.18
   2   2   4   46.23    3.10
  -2   2  -4   46.71    3.02
  -2   2  -4   45.22    3.19
   3  -2   4   24.28    1.70
  -3   2   4   27.04    1.75
   3   2  -4   26.06    2.02
  -3   2   4   24.04    1.95
  -3   2   4   25.59    1.85
  -3  -2   4   21.46    1.91
  -3   2  -4   17.83    1.87
  -3  -2   4   17.11    1.87
   3   2   4   18.25    2.10
  -3   2  -4   18.91    1.88
  -4   2   4   90.43    5.42
  -4   2   4   89.79    5.24
   4  -2   4   89.53    5.08
  -4  -2   4   66.78    5.24
  -4  -2   4   68.59    5.50
   4  -2  -4   63.31    5.36
  -4   2  -4   67.81    5.34
   4   2   4   71.41    5.67
  -4   2  -4   69.68    5.51
   5  -2   4  108.85    8.09
  -5   2   4  112.71    7.89
   5   2  -4  114.28    8.11
  -5  -2   4  109.40    7.63
   5  -2  -4  111.34    7.95
  -5   2  -4  112.20    7.89
  -5   2  -4  117.38    8.11
   5   2   4  115.18    8.28
  -5  -2   4  110.09    8.01
   6   2  -4   96.72    7.39
  -6   2   4   98.04    7.32
   6  -2   4   92.03    7.43
  -6  -2   4  107.05    7.48
  -6  -2   4   97.68    6.86
  -6   2  -4  107.65    7.36
   6   2   4  111.09    7.68
  -6   2  -4  100.95    7.46
   6  -2  -4   98.88    7.28
  -7  -2  -4    0.86    1.58
  -7   2   4    2.51    1.66
   7  -2   4    1.49    1.49
   7   2  -4    1.50    1.26
  -7   2  -4   -0.47    1.54
  -7   2  -4    1.90    1.48
   7  -2  -4    2.15    1.23
  -7  -2   4   -0.32    1.62
   7   2   4    0.88    1.56
  -8   2   4   11.25    2.34
   8   2  -4   12.42    1.97
  -8  -2  -4   15.68    2.39
   8  -2  -4    9.42    1.85
  -8   2  -4   10.81    2.29
  -8  -2   4    9.05    2.29
   8   2   4   12.55    2.35
  -8   2  -4   11.52    2.26
  -9  -2  -4   20.31    2.73
   9   2  -4   15.15    2.25
  -9   2   4   16.83    2.38
  -9   2   4   12.33    2.76
   9  -2  -4   10.46    2.26
  -9  -2   4   13.41    2.64
   9   2   4   10.49    2.56
  -9   2  -4    9.30    2.62
  -9   2  -4   11.33    2.66
  10   2  -4    5.17    2.04
 -10  -2  -4    5.38    2.38
 -10   2   4    1.49    2.65
 -10   2  -4    0.85    2.38
 -10  -2   4    7.11    2.63
  10   2   4    0.54    2.34
 -10   2  -4    3.10    2.55
 -11   2   4    7.08    3.16
 -11  -2  -4   11.71    2.85
  11   2   4    7.75    2.86
 -11   2  -4    6.71    2.93
 -11   2  -4   13.30    3.08
 -11  -2   4   13.42    2.99
   0  -3   4    1.57    0.55
   0   3   4    2.16    0.41
   0   3   4    2.01    0.45
   0   3  -4    1.80    0.42
   1   3  -4  134.26    8.51
  -1   3   4  125.08    8.41
  -1   3   4  128.98    8.20
   1  -3   4  131.79    8.27
  -1  -3   4  119.28    8.28
   1   3   4  107.12    8.55
   1   3   4  117.51    8.19
  -1   3  -4  113.60    8.49
  -2   3   4  149.41   10.07
   2  -3   4  151.75    9.81
   2   3  -4  143.02   10.17
  -2  -3   4  144.83    9.86
   2   3   4  150.27    9.82
  -2   3  -4  146.64   10.19
  -2   3  -4  145.61    9.72
   2   3   4  139.29   10.28
  -3   3   4  173.46   12.03
   3  -3   4  169.90   11.61
   3   3  -4  162.39   12.16
   3   3   4  178.58   11.74
  -3   3  -4  178.84   11.63
  -3   3  -4  173.65   12.14
  -3  -3   4  181.05   11.72
   3   3   4  178.99   12.29
  -3  -3   4  174.47   11.81
  -4   3   4    2.19    0.63
   4   3  -4    3.05    0.86
  -4   3   4    1.52    0.88
  -4   3  -4    3.99    0.85
  -4  -3   4    5.32    1.16
   4   3   4    5.13    1.09
  -4   3  -4    5.25    0.93
  -4  -3   4    4.49    0.87
  -5   3   4   60.39    4.52
   5   3  -4   64.39    4.78
  -5   3   4   60.76    4.63
   5  -3   4   62.08    4.15
  -5  -3   4   61.44    4.41
  -5   3  -4   58.79    4.57
  -5  -3   4   56.16    4.82
  -5   3  -4   64.85    4.75
   5   3   4   57.57    4.89
  -6   3   4  100.89    7.34
   6   3  -4  109.83    7.53
  -6   3   4  106.93    7.36
   6   3   4   97.54    7.65
  -6  -3   4   98.89    7.48
  -6   3  -4   97.17    7.47
  -6   3  -4  100.82    7.31
  -6  -3   4   96.35    6.95
  -7   3   4   49.13    4.26
   7   3  -4   44.39    4.22
  -7   3   4   40.79    4.41
  -7   3  -4   54.94    4.52
   7   3   4   58.70    4.64
  -7  -3   4   53.99    4.62
  -7   3  -4   49.46    4.54
  -8   3   4    3.77    2.07
  -8  -3  -4    4.13    1.99
  -8   3   4    4.23    1.54
   8   3  -4    4.63    1.55
  -8   3  -4    2.71    1.89
   8   3   4    1.72    1.81
  -8  -3   4    3.12    1.99
  -8   3  -4    3.97    1.87
  -9  -3  -4    8.91    2.29
  -9   3   4    5.02    2.44
   9   3  -4    6.67    1.85
   9   3   4    7.88    2.27
  -9   3  -4    2.71    2.30
  -9   3  -4    3.33    2.25
  -9  -3   4    8.23    2.38
  10   3  -4   10.75    2.27
 -10  -3  -4   10.28    2.61
 -10   3   4    6.76    2.84
 -10   3  -4    8.34    2.80
 -10  -3   4   11.41    2.68
 -10   3  -4    9.06    2.79
  10   3   4    5.08    2.45
  11   3  -4    2.30    2.15
  11   3   4    1.55    2.55
   0   4   4  244.69   15.97
   0   4  -4  229.24   15.87
   0   4   4  238.66   16.55
   0   4  -4  249.82   16.57
  -1   4   4   81.00    5.45
   1   4  -4   79.59    5.64
  -1   4   4   74.69    5.54
   1   4   4   76.81    5.71
  -1   4  -4   81.74    5.31
  -1   4  -4   80.27    5.63
   1   4   4   82.32    5.45
  -2   4   4    5.06    0.53
   2   4  -4    4.84    0.73
  -2   4   4    5.28    0.75
   2   4   4    2.25    0.77
   2   4   4    2.70    0.68
  -2  -4   4    1.79    0.77
  -2   4  -4    3.54    0.49
  -2   4  -4    3.30    0.70
  -3   4   4   38.47    3.16
  -3   4   4   38.84    3.03
   3   4  -4   39.62    3.27
   3   4   4   42.90    3.14
   3   4   4   43.08    3.41
  -3   4  -4   44.28    2.98
  -3  -4   4   40.14    3.19
  -3   4  -4   42.95    3.21
  -4   4   4   35.38    2.69
  -4   4   4   32.98    2.90
   4  -4   4   31.71    2.64
   4   4  -4   35.41    3.05
  -4  -4   4   34.50    2.84
  -4   4  -4   36.07    2.96
   4   4   4   35.48    3.16
  -4   4  -4   32.45    2.70
  -5   4   4   12.38    1.71
   5   4  -4   13.61    1.74
  -5   4   4   13.05    1.50
   5  -4   4   13.20    1.50
  -5  -4   4   19.55    1.90
   5   4   4   19.90    2.02
  -5   4  -4   17.51    1.78
  -5   4  -4   20.74    2.07
  -5  -4   4   19.40    2.03
   6   4  -4    3.61    1.22
  -6   4   4    4.56    1.13
  -6   4   4    1.83    1.43
   6   4   4    5.29    1.48
  -6  -4   4    6.79    1.11
  -6  -4   4    6.46    1.63
  -6   4  -4    6.94    1.43
  -6   4  -4    7.32    1.44
   7   4  -4    5.08    1.37
  -7   4   4    1.65    1.71
  -7   4   4    4.69    1.33
  -7  -4   4    5.17    1.79
  -7   4  -4    3.16    1.57
  -7   4  -4    2.23    1.58
   7   4   4    5.10    1.61
  -8  -4  -4    9.84    2.23
  -8   4   4    9.54    2.33
  -8   4   4    9.18    1.84
   8   4  -4    8.06    1.75
   8   4   4   13.18    2.10
  -8   4  -4    9.76    2.17
  -8   4  -4    7.02    2.15
  -8  -4   4   13.49    2.31
  -9   4   4   36.94    3.99
  -9  -4  -4   39.44    3.89
   9   4  -4   36.22    3.80
  -9   4  -4   32.69    3.79
  -9   4  -4   32.71    3.88
  -9  -4   4   37.06    3.80
   9   4   4   31.87    3.73
 -10   4   4    8.32    3.02
 -10  -4  -4   10.34    2.58
  10   4  -4    7.39    2.06
  10   4   4    8.81    2.60
 -10   4  -4    7.04    2.67
 -10  -4   4    9.32    2.56
   0   5  -4   28.20    2.18
   0   5  -4   28.15    1.96
   0   5   4   26.05    2.16
   0   5   4   24.15    2.13
  -1   5   4   34.37    2.80
  -1   5   4   37.14    2.76
   1   5  -4   40.65    2.89
  -1   5  -4   37.23    2.60
   1   5   4   35.90    2.91
   1   5   4   36.74    2.79
  -1   5  -4   38.40    2.90
  -2   5   4   51.47    3.68
   2   5  -4   53.47    3.85
  -2   5   4   49.95    3.64
   2   5   4   50.15    3.92
  -2   5  -4   49.12    3.77
  -2   5  -4   49.36    3.48
   2   5   4   50.27    3.68
  -3   5   4  215.96   14.74
   3   5  -4  222.43   15.32
  -3   5   4  224.62   15.16
  -3   5  -4  217.06   14.61
  -3   5  -4  214.61   15.28
  -3  -5   4  219.05   14.77
   3   5   4  221.14   15.43
   3   5   4  223.56   14.76
   4   5  -4   33.55    3.29
  -4   5   4   37.28    2.95
  -4   5   4   33.65    3.15
  -4   5  -4   36.30    3.12
   4   5   4   41.23    3.40
  -4   5  -4   39.37    2.94
  -4  -5   4   40.30    3.11
  -5   5   4    0.66    1.14
   5  -5   4    0.19    0.75
   5   5  -4    0.25    1.01
  -5   5   4    1.46    0.84
   5   5   4    2.15    1.18
  -5   5  -4    2.67    0.99
  -5  -5   4    2.01    1.01
  -5   5  -4    2.96    1.13
  -5  -5   4    1.17    1.24
   6   5  -4   14.38    1.93
  -6   5   4   12.76    2.03
  -6   5   4   14.69    1.76
  -6   5  -4   16.93    1.85
  -6  -5   4   15.07    2.15
  -6   5  -4   21.03    2.13
  -6  -5   4   18.88    1.79
   6   5   4   15.53    2.08
  -7   5   4   36.49    3.25
   7   5  -4   37.27    3.28
  -7   5   4   34.18    3.57
  -7   5  -4   25.59    2.85
  -7  -5   4   30.07    3.18
  -7   5  -4   21.77    2.96
   7   5   4   30.13    3.33
   8   5  -4   11.22    1.83
  -8   5   4   10.17    2.37
  -8   5  -4    8.75    2.19
  -8  -5   4   11.71    2.30
   8   5   4    8.34    1.92
  -8   5  -4    7.97    2.09
  -9  -5  -4   10.82    2.46
  -9   5   4    2.93    2.51
   9   5  -4    7.12    1.82
   9   5   4    6.68    1.91
  -9   5  -4    5.75    2.43
  -9   5  -4    6.47    2.36
  -9  -5   4    9.74    2.37
 -10   5   4    0.99    2.79
  10   5  -4    5.39    1.85
 -10  -5  -4    6.31    2.51
 -10   5  -4    2.88    2.54
 -10   5  -4    1.99    2.57
 -10  -5   4   10.41    2.57
  10   5   4    6.51    2.31
   0   6  -4    8.35    1.05
   0   6   4    9.54    1.05
   0   6   4    8.30    0.99
   0   6  -4   10.57    1.08
   1   6  -4   93.32    6.33
  -1   6   4   96.88    6.24
  -1   6   4   99.95    6.11
  -1   6  -4   82.13    6.29
   1   6   4   82.38    6.07
   1   6   4   81.15    6.34
  -1   6  -4   81.27    5.93
   2   6  -4    2.29    0.84
  -2   6   4    2.60    0.63
  -2   6   4    2.02    0.81
  -2   6  -4    2.65    0.82
   2   6   4    2.30    0.85
  -2   6  -4    1.51    0.56
   2   6   4    1.70    0.83
  -3   6   4   30.62    2.78
   3   6  -4   32.96    2.89
  -3   6   4   32.91    2.59
   3   6   4   34.47    2.79
  -3   6  -4   29.56    2.78
  -3   6  -4   31.89    2.52
   3   6   4   36.95    3.04
   4   6   4   30.51    3.00
  -4   6  -4   28.76    2.46
  -4  -6   4   25.97    2.68
  -4   6  -4   29.62    2.69
   5   6  -4   40.54    3.50
  -5   6   4   42.12    3.14
  -5   6   4   36.44    3.46
  -5   6  -4   34.53    3.32
   5   6   4   34.45    3.49
  -5   6  -4   34.62    3.17
  -5  -6   4   38.03    3.25
   6   6  -4   20.60    2.40
  -6   6   4   20.61    2.42
  -6   6   4   21.11    2.18
  -6   6  -4   24.53    2.29
  -6   6  -4   22.08    2.43
  -6  -6   4   23.32    2.46
   6   6   4   22.44    2.49
  -6  -6   4   22.97    2.54
   7   6  -4    8.29    1.63
  -7   6   4    7.83    1.99
  -7   6  -4    4.61    1.60
   7   6   4    6.26    1.73
  -7   6  -4    5.30    1.77
  -7  -6   4   10.11    2.05
  -8   6   4   -1.61    1.97
   8   6  -4    1.99    1.50
  -8   6  -4    1.33    1.89
  -8  -6   4    6.10    2.07
   8   6   4    2.06    1.58
  -8   6  -4    0.91    1.83
  -9   6   4   16.33    3.03
  -9  -6  -4   13.33    2.75
   9   6  -4   15.36    2.36
  -9   6  -4   15.81    2.88
  -9   6  -4   15.49    2.78
   9   6   4   16.30    2.41
  -9  -6   4   20.41    2.82
 -10   6   4    6.71    3.07
  10   6  -4   10.12    2.10
 -10  -6  -4   10.32    2.79
 -10  -6   4   11.86    2.69
  10   6   4    9.55    2.47
 -10   6  -4    5.73    2.86
   0   7  -4   31.40    2.61
   0   7  -4   30.75    2.33
   0   7   4   30.93    2.58
   0   7   4   27.79    2.55
  -1   7   4   57.34    4.18
   1   7  -4   57.30    4.32
   1   7  -4   56.16    4.05
  -1   7   4   56.88    4.20
  -1   7  -4   57.19    3.98
   1   7   4   56.04    4.35
  -1   7  -4   57.76    4.33
   1   7   4   55.46    4.14
   2   7  -4   90.01    5.92
  -2   7   4   92.65    5.72
  -2   7   4   90.81    5.74
  -2   7  -4   66.62    5.80
   2   7   4   76.48    5.65
   2   7   4   71.87    5.97
  -2   7  -4   70.95    5.46
   3   7  -4   45.23    4.32
  -3   7   4   45.24    4.16
  -3   7   4   44.23    4.09
   3   7   4   67.43    4.55
   3   7   4   63.24    4.22
  -3   7  -4   61.71    4.29
  -3   7  -4   62.71    3.97
  -4   7   4    5.78    1.10
   4   7  -4    4.30    1.32
  -4   7   4    4.95    1.33
   4   7   4    8.52    1.43
   4   7   4   14.49    1.70
  -4   7  -4    9.92    1.15
  -4   7  -4    7.13    1.36
  -5   7   4    7.03    1.27
   5   7  -4    6.17    1.52
  -5   7   4    5.67    1.56
  -5   7  -4    9.34    1.61
   5   7   4   10.62    1.65
  -5   7  -4   12.09    1.42
  -5  -7   4   11.66    1.55
  -6   7   4    4.41    1.25
  -6   7   4    2.37    1.63
   6   7  -4    4.13    1.50
   6   7   4    6.87    1.63
  -6   7  -4    4.58    1.38
  -6   7  -4    5.23    1.60
  -6  -7   4    5.39    1.40
   7   7  -4   37.64    3.82
  -7   7   4   35.84    3.67
  -7  -7   4   41.02    4.15
  -7   7  -4   36.85    3.86
  -7   7  -4   35.63    3.94
   7   7   4   40.33    3.74
  -8   7   4   16.99    2.89
   8   7  -4   15.95    2.36
  -8   7  -4   18.21    2.71
   8   7   4   18.30    2.51
  -8   7  -4   18.79    2.59
  -8  -7   4   22.19    2.79
  -9   7   4    3.40    2.60
   9   7  -4    5.19    1.71
  -9  -7   4    5.14    2.29
   9   7   4    1.52    1.62
  -9   7  -4    1.12    2.26
  10   7  -4    0.18    1.64
 -10   7   4    0.42    2.91
 -10  -7  -4   -0.92    2.48
  10   7   4    1.91    1.77
 -10  -7   4    3.86    2.42
 -10   7  -4   -1.42    2.59
   0   8   4   49.08    3.83
   0   8  -4   48.54    3.82
   0   8   4   48.20    3.73
   0   8  -4   48.53    3.53
  -1   8   4   27.25    2.46
   1   8  -4   28.03    2.35
   1   8  -4   29.26    2.54
  -1   8   4   28.62    2.43
  -1   8  -4   24.58    2.17
  -1   8  -4   23.09    2.44
   1   8   4   23.35    2.38
   1   8   4   27.63    2.59
  -2   8   4   11.99    1.55
   2   8  -4   10.10    1.60
  -2   8   4   12.74    1.46
   2   8   4   14.67    1.74
  -2   8  -4   18.18    1.72
   2   8   4   17.17    1.67
  -2   8  -4   18.73    1.69
  -3   8   4   21.24    2.17
   3   8  -4   26.00    2.63
  -3   8   4   24.62    2.45
  -3   8  -4   20.42    2.09
  -3   8  -4   19.38    2.10
   3   8   4   26.43    2.62
   3   8   4   17.40    2.01
  -4   8   4   38.31    3.41
  -4   8   4   39.56    3.70
   4   8  -4   39.14    3.73
   4   8   4   47.10    3.67
  -4   8  -4   40.71    3.35
  -4   8  -4   42.08    3.67
   4   8   4   44.54    3.82
  -5   8   4   45.48    4.03
   5   8  -4   50.75    4.36
  -5   8   4   52.48    4.33
  -5   8  -4   50.52    4.00
   5   8   4   49.18    4.33
  -5  -8   4   48.80    4.06
  -5   8  -4   48.48    4.25
  -6   8   4   13.79    2.19
   6   8  -4   15.05    2.10
  -6  -8   4   12.51    1.81
   6   8   4   16.00    2.11
  -6   8  -4   13.45    1.83
  -6   8  -4   12.00    2.07
   7   8  -4    3.86    1.64
  -7   8   4    3.57    2.01
   7   8   4    5.39    1.65
  -7   8  -4    4.29    1.90
  -7  -8   4    5.54    2.00
  -8   8   4    5.80    2.34
   8   8  -4    6.02    1.79
  -8  -8   4    3.02    2.17
  -8   8  -4    0.52    2.03
   8   8   4    6.61    1.91
  -9   8   4    4.89    2.81
   9   8  -4    6.61    1.94
  -9   8  -4    8.63    2.67
   9   8   4    7.54    1.97
  -9  -8   4   11.00    2.52
   0   9   4   48.53    3.80
   0   9  -4   47.46    3.57
   0   9   4   50.52    3.93
   0   9  -4   45.77    3.95
  -1   9   4  101.38    7.46
   1   9  -4   99.21    7.74
   1   9  -4  107.68    7.37
  -1   9   4  103.59    7.67
  -1   9  -4  108.98    7.74
   1   9   4  109.25    7.44
   1   9   4  111.38    7.81
  -1   9  -4  109.18    7.27
  -2   9   4  135.65    9.29
   2   9  -4  134.03    9.67
  -2   9   4  131.85    9.54
   2   9   4  133.34    9.28
   2   9   4  140.28    9.80
  -2   9  -4  130.61    9.62
  -2   9  -4  134.75    9.11
  -3   9   4   20.27    2.10
  -3   9   4   19.11    1.95
   3   9  -4   14.57    1.91
   3   9   4   12.34    1.90
  -3   9  -4   12.93    1.83
   3   9   4   12.56    1.77
  -3   9  -4   15.42    1.55
  -4   9   4   16.49    1.94
  -4   9   4   15.60    1.68
   4   9  -4   14.81    1.93
   4   9   4   10.93    1.89
   4   9   4   12.16    1.86
  -4   9  -4   12.39    1.53
  -4   9  -4   11.90    1.84
   5   9  -4    1.22    1.46
  -5   9   4    4.05    1.28
  -5   9   4    2.44    1.59
  -5   9  -4    2.39    1.44
   5   9   4    2.10    1.44
  -5  -9   4    2.72    1.42
  -6   9   4    5.11    1.92
   6   9  -4    5.08    1.70
  -6   9  -4    4.26    1.80
  -6  -9   4    6.22    1.58
   6   9   4    8.00    1.78
   7   9  -4   11.00    2.13
  -7   9   4   11.03    2.38
  -7   9  -4   11.92    2.29
   7   9   4   13.39    2.16
  -7  -9   4   11.84    2.34
   8   9  -4   14.35    2.42
  -8   9   4   16.75    3.02
  -8  -9   4   19.72    2.90
   8   9   4   17.41    2.45
  -8   9  -4   20.37    2.91
  -9   9   4    2.97    2.80
   9   9  -4    2.85    1.83
   9   9   4    1.29    1.74
  -9   9  -4    3.57    2.50
  -9  -9   4    4.60    2.43
   0  10   4    8.00    1.41
   0  10  -4    5.85    1.42
   0  10   4   10.28    1.44
   0  10  -4    7.56    1.15
   1  10  -4   43.78    3.33
  -1  10   4   45.55    3.57
  -1  10   4   46.34    3.50
   1  10  -4   46.49    3.58
   1  10   4   32.83    3.34
  -1  10  -4   37.28    3.53
  -1  10  -4   37.63    3.17
   1  10   4   35.10    3.66
   2  10  -4   20.85    2.33
  -2  10   4   21.72    2.21
  -2  10   4   22.51    2.46
   2  10   4   22.44    2.42
   2  10   4   19.37    2.18
  -2  10  -4   22.45    2.32
  -2  10  -4   24.91    2.32
  -3  10   4   10.95    1.70
  -3  10   4   10.48    1.53
   3  10  -4   11.47    1.76
   3  10   4    9.60    1.62
  -3  10  -4    7.32    1.63
   3  10   4    9.73    1.81
  -4  10   4   34.47    3.17
   4  10  -4   32.93    3.43
  -4  10   4   33.35    3.35
   4  10   4   29.25    3.20
  -4  10  -4   28.21    3.21
   4  10   4   34.10    3.57
   5  10  -4   38.99    4.05
  -5  10   4   41.39    4.12
  -5 -10   4   43.76    3.88
   5  10   4   46.24    4.15
  -5  10  -4   39.93    3.92
  -6  10   4    5.06    2.02
   6  10  -4    7.08    1.93
   6  10   4    7.72    1.86
  -6 -10   4    8.60    1.76
  -6  10  -4    5.49    1.92
  -7  10   4    4.08    2.24
   7  10  -4    5.43    1.85
  -7  10  -4    4.51    2.04
   7  10   4    5.17    1.85
  -8  10   4   13.21    2.90
   8  10  -4   10.51    2.28
   8  10   4   10.97    2.22
  -8 -10   4   14.25    2.75
  -8  10  -4   18.46    2.86
   0  11  -4    2.41    1.05
   0  11   4    1.17    1.27
   0  11  -4    2.15    1.39
   0  11   4    4.16    1.42
  -1  11   4   32.18    3.37
   1  11  -4   31.88    3.12
  -1  11   4   32.44    3.43
   1  11  -4   29.60    3.27
  -1  11  -4   37.10    3.31
   1  11   4   38.11    3.15
   1  11   4   39.34    3.56
   2  11  -4   28.08    3.01
  -2  11   4   26.00    2.58
  -2  11   4   23.56    2.51
   2  11   4   35.45    3.38
   2  11   4   26.68    2.79
  -2  11  -4   24.63    2.66
  -3  11   4    5.43    1.45
   3  11  -4    4.75    1.57
  -3  11   4    5.94    1.60
  -3  11  -4    5.73    1.61
   3  11   4    3.70    1.48
   3  11   4    4.94    1.68
   4  11  -4   10.62    1.97
  -4  11   4   11.10    1.96
   4  11   4   13.99    2.19
   4  11   4    9.49    1.91
  -4  11  -4   12.25    2.04
   5  11  -4   14.17    2.48
  -5  11   4   22.87    2.68
  -5  11  -4   23.02    2.68
   5  11   4   22.58    2.72
   6  11  -4    1.14    1.76
  -6  11   4    2.00    2.05
  -6 -11   4    4.85    1.78
   6  11   4    5.94    1.86
  -6  11  -4    5.01    1.98
   7  11  -4    8.43    2.19
  -7  11   4    6.21    2.47
   7  11   4   14.33    2.27
  -7  11  -4   10.54    2.43
   8  11  -4    1.57    1.88
  -8  11   4    1.07    2.54
  -8  11  -4    0.34    2.28
   8  11   4    1.51    1.72
  -8 -11   4    4.79    2.43
   0  12  -4    1.87    1.45
   0  12   4    0.33    1.42
   0  12   4    0.66    1.34
   1  12  -4   13.51    2.20
  -1  12   4   17.40    2.20
  -1  12   4   15.35    2.20
   1  12   4   28.89    2.57
  -1  12  -4   21.61    2.41
   1  12   4   23.97    2.49
  -2  12   4    8.59    1.74
   2  12  -4    5.72    1.68
  -2  12   4    8.07    1.70
   2  12   4    8.25    1.91
   2  12   4    9.91    1.72
  -2  12  -4    9.76    1.82
  -3  12   4    9.12    1.80
  -3  12   4   11.86    1.93
   3  12  -4    8.61    1.86
   3  12   4    9.05    1.83
   3  12   4   12.95    2.15
  -3  12  -4   10.23    1.95
  -4  12   4   17.78    2.37
   4  12  -4   13.88    2.23
   4  12   4   10.69    2.03
   4  12   4   12.12    2.32
  -4  12  -4   13.53    2.27
  -5  12   4   11.00    2.23
   5  12  -4    8.94    2.10
  -5  12  -4    5.29    2.07
   5  12   4    8.96    2.14
  -6  12   4   -0.28    2.10
   6  12  -4    1.82    1.85
   6  12   4    0.18    1.76
  -6 -12   4    0.78    1.76
  -6  12  -4    1.60    2.05
  -7  12   4    8.61    2.66
   7  12  -4    8.77    2.27
  -7  12  -4    8.63    2.53
   7  12   4   10.27    2.25
   0  13   4   -0.94    1.56
   0  13  -4    0.46    1.48
   0  13   4   -0.69    1.41
   1  13  -4    8.11    1.83
  -1  13   4    9.59    1.78
  -1  13   4    9.69    1.92
   1  13   4    6.98    1.93
   1  13   4    9.14    1.80
  -1  13  -4    7.46    1.88
  -2  13   4    1.98    1.67
   2  13  -4    2.62    1.62
  -2  13   4    2.58    1.67
   2  13   4    3.46    1.85
  -2  13  -4    2.88    1.71
   2  13   4    4.17    1.61
   3  13  -4   15.97    2.42
  -3  13   4   22.87    2.51
   3  13   4   17.73    2.37
   3  13   4   22.90    2.84
  -3  13  -4   16.49    2.49
  -4  13   4   11.92    2.17
   4  13  -4    6.47    2.01
   4  13   4   11.18    2.35
  -4  13  -4    5.40    2.04
   5  13  -4   18.74    2.85
  -5  13   4   26.46    3.05
  -5  13  -4   21.92    2.99
   5  13   4   21.67    3.00
  -5 -13   4   24.58    2.98
   6  13  -4   16.22    2.73
  -6  13   4   21.24    2.94
   6  13   4   20.05    2.85
  -6  13  -4   13.45    2.77
  -6 -13   4   14.41    2.56
   0  14   4   11.58    1.98
   0  14  -4   10.39    2.09
   0  14   4   11.45    2.26
  -1  14   4   17.06    2.25
   1  14  -4   16.44    2.37
  -1  14   4   17.21    2.52
   1  14   4   17.01    2.27
  -1  14  -4   15.72    2.38
   1  14   4   17.90    2.64
  -2  14   4    6.41    1.97
   2  14  -4    6.24    1.93
  -2  14  -4    5.67    1.97
   2  14   4    4.75    1.73
   2  14   4    3.30    2.07
  -3  14   4    3.27    1.96
   3  14  -4    1.47    1.75
   3  14   4    3.76    1.86
   3  14   4   10.19    2.33
  -3  14  -4    4.05    1.97
   4  14  -4    1.39    1.92
  -4  14   4    0.76    1.95
   4  14   4    4.84    2.19
  -4  14  -4    4.25    2.10
   5  14  -4   -0.11    1.88
  -5  14   4    1.58    2.18
  -5 -14   4    3.06    2.14
  -5  14  -4    2.05    2.15
   5  14   4    0.76    2.08
   0  15  -4   13.50    2.46
   0  15   4   17.36    2.71
   0  15   4   17.70    2.33
   1  15  -4    6.39    2.03
  -1  15   4    9.29    1.90
   1  15   4    6.42    2.35
   1  15   4    5.14    1.87
  -1  15  -4    6.00    2.03
   2  15  -4   -0.04    1.85
  -2  15   4    0.66    1.84
  -2  15  -4    1.72    1.98
   2  15   4    0.38    2.12
   2  15   4    2.10    1.80
   3  15  -4    4.81    2.08
  -3  15   4    6.36    2.22
   3  15   4   13.65    2.66
  -3  15  -4    6.32    2.27
   3  15   4    7.84    2.09
   4  15  -4    6.56    2.28
  -4  15  -4    8.76    2.47
   4  15   4   11.27    2.65
   0  16  -4   -1.63    1.87
   0  16   4   -1.33    1.82
  -1  16   4    1.15    1.84
   1  16  -4    0.51    1.99
   1  16   4   -2.17    2.20
   1  16   4   -0.32    1.78
  -1  16  -4   -0.54    2.00
   0   0   5    0.46    0.25
   0   0   5   -0.04    0.33
   1   0  -5  190.05   13.36
   1   0   5  191.77   12.91
  -1   0   5  197.85   12.93
   1   0   5  192.91   12.90
   1   0   5  202.65   13.43
  -1   0  -5  192.72   13.42
  -1   0   5  198.99   12.94
   2   0   5  150.13    9.79
  -2   0   5  150.13    9.86
   2   0  -5  139.14   10.20
   2   0   5  150.22   10.26
  -2   0   5  149.51    9.87
   3   0   5  136.05    8.94
   3   0   5  136.09    9.46
  -3   0   5  135.42    9.05
  -3   0   5  138.96    9.13
   3   0  -5  128.64    9.39
   4   0   5  127.58    8.29
   4   0  -5  122.67    8.81
  -4   0   5  128.69    8.63
  -4   0   5  124.42    8.45
   4   0   5  122.97    8.91
  -5   0   5   -1.82    1.03
   5   0   5    0.49    1.00
  -5   0   5    0.85    0.66
   5   0  -5   -0.03    0.76
   6   0  -5  147.11   10.05
  -6   0  -5  140.18    9.89
   6   0   5  140.70   10.18
  -6   0   5  137.88    9.88
  -6   0   5  134.67    9.42
  -7   0   5   -0.63    1.64
  -7   0  -5   -2.03    1.48
   7   0  -5    0.51    1.17
   7   0   5    0.48    1.51
   8   0  -5   24.46    2.64
  -8   0   5   22.68    3.01
  -8   0  -5   24.84    2.91
   8   0   5   22.17    2.97
   9   0  -5    6.05    1.88
   9   0   5    8.44    2.53
  -9   0  -5    6.07    2.29
  -9   0   5    6.52    2.45
 -10   0   5    3.30    2.61
  10   0   5    0.13    2.51
 -10   0  -5    4.25    2.42
 -11   0  -5    2.08    2.64
 -11   0  -5    3.31    2.58
 -11   0   5    2.62    2.91
  11   0   5   -2.93    2.82
   0   1   5  923.62   59.90
   0  -1   5  895.02   59.72
   0   1   5  926.21   62.11
   0   1  -5  900.52   62.14
   0  -1   5  913.20   59.85
   0   1   5  898.03   59.70
  -1   1   5   45.07    3.41
   1  -1   5   46.34    3.40
  -1   1   5   46.12    3.40
   1   1  -5   47.12    3.48
   1  -1   5   45.00    3.33
   1   1   5   50.55    3.39
  -1  -1   5   54.03    3.37
  -1   1  -5   50.65    3.52
   1   1   5   53.19    3.52
   1   1   5   52.31    3.39
  -1  -1   5   55.23    3.48
   2   1  -5   26.99    1.74
  -2   1   5   25.55    1.73
   2  -1   5   25.28    1.65
  -2   1   5   26.13    1.76
  -2   1  -5   19.38    1.75
   2  -1  -5   19.05    1.57
  -2  -1   5   19.51    1.71
   2   1   5   20.90    1.73
  -2  -1   5   21.15    1.78
   2   1   5   19.62    1.61
   2   1   5   17.60    1.75
   3  -1   5    6.00    0.82
   3  -1   5    6.16    0.58
  -3   1   5    5.46    0.79
   3   1  -5    7.19    0.81
  -3   1   5    5.70    0.74
   3  -1  -5    4.53    0.59
  -3  -1   5    3.36    0.78
  -3  -1   5    4.25    0.76
   3   1   5    3.92    0.54
   3   1   5    4.75    0.83
   4  -1   5  206.65   13.95
  -4   1   5  210.25   14.24
   4   1  -5  202.42   14.71
  -4   1   5  204.05   14.08
   4  -1   5  207.83   14.76
  -4  -1   5  220.36   14.12
  -4   1  -5  219.63   14.29
   4  -1  -5  206.84   14.63
   4   1   5  221.52   14.82
  -4  -1   5  220.18   14.29
   5   1  -5   51.90    4.04
  -5   1   5   52.18    3.76
  -5   1   5   53.92    4.16
   5  -1   5   51.53    4.15
   5  -1  -5   51.92    3.94
  -5   1  -5   51.66    4.23
  -5  -1   5   49.35    4.22
  -5  -1   5   53.52    3.79
   5   1   5   51.14    4.23
  -6   1   5   36.02    3.61
  -6   1   5   32.59    2.93
   6   1  -5   37.01    3.47
   6  -1   5   35.59    3.54
  -6  -1   5   39.30    3.78
   6   1   5   44.24    3.81
  -6   1  -5   39.96    3.76
   6  -1  -5   42.00    3.28
  -6  -1   5   42.97    3.00
   7   1  -5    2.39    1.29
   7  -1   5    1.40    1.57
  -7   1   5    0.29    1.62
  -7  -1  -5    2.55    1.64
  -7   1  -5    2.69    1.64
  -7  -1   5    0.74    1.68
   7   1   5    2.97    1.65
   7  -1  -5    3.13    1.25
   8   1  -5    6.75    1.65
  -8  -1  -5    7.92    2.11
   8  -1   5    5.41    2.04
  -8   1   5    2.53    2.10
   8   1   5    8.30    2.16
  -8  -1   5    4.60    2.09
   8  -1  -5    4.66    1.55
  -8   1  -5    6.84    2.09
  -9  -1  -5   17.34    2.63
   9   1  -5   13.82    2.24
  -9   1   5    9.99    2.72
   9  -1   5    9.47    2.66
  -9   1  -5   10.75    2.61
  -9   1  -5   12.77    2.62
  -9  -1   5   14.18    2.73
   9   1   5   15.22    2.73
 -10   1   5   43.66    4.56
 -10  -1  -5   49.12    4.83
 -10   1  -5   34.78    4.20
 -10   1  -5   40.55    4.55
 -10  -1   5   39.36    4.38
  10   1   5   37.49    4.48
 -11  -1  -5    8.19    2.71
 -11   1   5    6.90    3.12
 -11  -1   5    7.28    2.93
  11   1   5    2.77    2.90
 -11   1  -5    7.38    2.96
 -11   1  -5   10.15    2.92
   0   2  -5   25.51    1.91
   0   2   5   24.16    1.88
   0   2   5   27.06    1.92
   0   2   5   25.85    1.89
   0  -2   5   24.40    1.97
  -1   2   5  152.73   10.08
  -1   2   5  156.82   10.08
   1   2  -5  151.37   10.43
   1  -2   5  154.01   10.08
   1   2   5  149.31   10.03
   1   2   5  145.80   10.06
  -1  -2   5  151.51   10.12
  -1  -2   5  153.66   10.03
   1   2   5  148.12   10.47
  -1   2  -5  148.48   10.44
  -2   2   5  275.64   19.07
  -2   2   5  268.10   19.12
   2  -2   5  273.39   19.04
   2   2  -5  265.71   19.81
   2   2   5  298.06   19.13
   2   2   5  296.22   19.91
  -2   2  -5  287.15   19.84
   2   2   5  296.71   19.02
  -2  -2   5  304.08   19.15
  -2  -2   5  307.55   19.14
  -2   2  -5  301.23   19.07
  -3   2   5   20.51    1.92
  -3   2   5   20.30    2.02
   3  -2   5   21.29    1.79
  -3   2   5   21.94    1.76
   3   2  -5   20.29    2.01
  -3  -2   5   27.94    2.02
  -3   2  -5   26.08    2.01
  -3   2  -5   25.08    2.00
  -3  -2   5   24.99    2.13
   3   2   5   28.00    2.28
   4  -2   5   25.95    1.79
   4   2  -5   28.55    2.27
  -4   2   5   24.81    2.24
  -4   2   5   23.81    2.03
  -4   2  -5   22.05    2.20
   4   2   5   20.10    2.40
  -4   2  -5   20.00    2.21
  -4  -2   5   21.54    2.16
   4  -2  -5   21.59    1.91
  -4  -2   5   23.52    2.08
  -5   2   5    7.02    1.32
   5  -2   5    7.71    0.82
  -5   2   5    4.78    0.94
   5   2  -5    7.47    1.17
  -5   2  -5    7.65    1.31
  -5  -2   5    6.84    1.44
   5   2   5    9.03    1.52
  -5   2  -5    7.01    1.27
  -5  -2   5    7.90    1.07
   5  -2  -5   10.25    1.09
   6   2  -5   56.56    5.02
  -6   2   5   58.66    5.11
   6  -2   5   61.89    5.16
  -6   2  -5   65.32    5.19
  -6  -2   5   65.06    4.66
  -6  -2   5   64.59    5.33
   6  -2  -5   69.76    4.93
  -6   2  -5   72.93    5.23
   6   2   5   72.91    5.38
   7   2  -5   26.69    2.51
  -7   2   5   25.27    2.75
   7   2   5   21.87    2.75
  -7  -2   5   20.92    2.70
  -7   2  -5   24.47    2.75
   7  -2  -5   21.74    2.34
  -7   2  -5   21.74    2.63
  -8   2   5   20.43    2.78
  -8  -2  -5   23.73    2.76
   8   2  -5   26.01    2.54
   8   2   5   17.41    2.73
  -8   2  -5   16.29    2.65
  -8  -2   5   14.17    2.64
   8  -2  -5   17.01    2.27
  -8   2  -5   14.73    2.51
  -9  -2  -5    7.41    2.28
  -9   2   5    4.60    2.44
   9   2  -5    6.98    1.86
  -9   2  -5    6.94    2.41
  -9  -2   5    7.33    2.42
  -9   2  -5    6.05    2.41
   9   2   5    7.84    2.41
  10   2  -5    0.74    1.91
 -10  -2  -5    3.54    2.36
 -10   2   5    0.67    2.60
 -10   2  -5    1.70    2.42
 -10   2  -5    3.70    2.56
  10   2   5   -1.60    2.29
 -10  -2   5    2.45    2.49
 -11  -2  -5    3.22    2.57
 -11   2   5    3.79    3.03
 -11   2  -5   -2.39    2.59
 -11  -2   5    3.00    2.73
 -11   2  -5    5.19    2.83
  11   2   5   -2.90    2.54
   0   3   5  241.41   15.70
   0   3   5  225.25   16.28
   0   3   5  241.94   15.66
   0  -3   5  238.26   15.73
   0   3  -5  235.21   16.27
  -1   3   5   65.89    4.58
   1  -3   5   72.03    4.60
  -1   3   5   74.53    4.57
   1   3  -5   72.81    4.68
  -1   3   5   69.65    4.55
   1   3   5   61.34    4.75
  -1  -3   5   58.68    4.51
   1   3   5   61.92    4.51
  -1  -3   5   60.17    4.62
  -1   3  -5   61.35    4.68
  -2   3   5   28.37    1.80
   2   3  -5   27.15    2.05
  -2   3   5   25.26    2.01
  -2   3   5   27.71    2.00
   2  -3   5   27.16    2.03
  -2  -3   5   22.65    2.10
  -2   3  -5   22.13    2.02
   2   3   5   23.97    2.00
   2   3   5   21.86    2.25
  -2  -3   5   20.02    2.09
  -2   3  -5   22.06    1.77
  -3   3   5   25.87    1.67
   3  -3   5   25.79    1.82
  -3   3   5   24.47    1.92
  -3   3   5   24.03    2.00
   3   3  -5   24.88    2.00
   3   3   5   17.58    1.90
  -3   3  -5   17.24    1.91
  -3  -3   5   17.44    1.85
   3   3   5   18.90    2.00
  -3  -3   5   16.72    1.97
  -3   3  -5   17.61    1.75
   4   3  -5  121.17    8.43
  -4   3   5  118.31    8.11
   4  -3   5  117.86    7.88
  -4   3   5  122.74    8.21
  -4  -3   5  113.46    8.06
  -4   3  -5  113.57    8.37
  -4   3  -5  119.64    8.03
   4   3   5  116.66    8.55
  -4  -3   5  113.18    8.27
   5  -3   5    8.05    0.85
  -5   3   5    9.02    1.10
  -5   3   5    6.27    1.37
   5   3  -5    8.37    1.29
   5   3   5   11.15    1.68
  -5   3  -5   12.67    1.41
  -5   3  -5    8.38    1.36
  -5  -3   5   10.15    1.61
  -5  -3   5   10.14    1.23
  -6   3   5    6.50    1.49
  -6   3   5    2.07    1.01
   6   3  -5    4.02    1.19
  -6  -3   5    3.91    1.03
  -6   3  -5    5.19    1.37
  -6   3  -5    4.26    1.36
  -6  -3   5    4.92    1.59
   6   3   5    4.43    1.47
   7   3  -5   20.00    2.30
  -7   3   5   22.22    2.62
  -7   3   5   27.12    2.70
  -7   3  -5   22.92    2.57
  -7   3  -5   23.41    2.65
   7   3   5   19.29    2.68
  -7  -3   5   22.92    2.71
  -8   3   5   24.31    3.34
  -8  -3  -5   23.88    3.27
   8   3  -5   34.39    3.59
  -8   3  -5   35.00    3.82
   8   3   5   39.82    3.97
  -8   3  -5   39.22    3.49
  -8  -3   5   41.16    4.06
  -9  -3  -5    6.85    2.25
   9   3  -5    2.80    1.70
  -9   3   5    0.72    2.30
  -9   3  -5    2.98    2.24
   9   3   5    3.25    2.21
  -9  -3   5    4.02    2.27
  -9   3  -5    2.26    2.19
 -10   3   5    1.31    2.70
  10   3  -5    5.50    1.93
 -10  -3  -5    7.49    2.48
 -10   3  -5   -3.62    2.36
 -10   3  -5    3.63    2.63
  10   3   5   -0.33    2.31
 -10  -3   5    6.94    2.49
   0   4   5    7.42    0.85
   0   4   5    7.79    0.84
   0   4  -5    7.57    0.86
   0  -4   5    7.92    1.05
  -1   4   5    3.45    0.69
  -1   4   5    3.46    0.50
   1   4  -5    3.35    0.65
   1  -4   5    4.12    0.85
  -1  -4   5    5.50    0.93
  -1   4  -5    5.66    0.71
   1   4   5    6.40    0.85
   1   4   5    6.11    0.74
   2   4  -5  268.01   18.10
   2  -4   5  267.21   17.45
  -2   4   5  251.19   17.44
  -2   4   5  243.53   17.96
  -2   4  -5  269.18   17.31
   2   4   5  248.02   18.18
  -2  -4   5  262.16   17.49
   2   4   5  278.37   17.46
  -2   4  -5  271.19   18.11
  -3   4   5   18.09    1.52
  -3   4   5   18.75    1.95
   3  -4   5   17.12    1.77
   3   4  -5   18.52    1.91
   3   4   5   20.76    1.93
  -3   4  -5   17.84    1.55
  -3  -4   5   18.93    1.80
   3   4   5   19.14    2.10
  -3   4  -5   20.46    1.86
  -3  -4   5   16.53    1.74
  -4   4   5   42.95    3.22
   4  -4   5   42.70    2.94
  -4   4   5   42.59    2.93
   4   4  -5   47.49    3.37
  -4  -4   5   33.81    3.10
  -4   4  -5   36.78    3.24
  -4  -4   5   29.90    3.35
  -4   4  -5   36.68    2.95
   4   4   5   30.67    3.35
  -5   4   5    9.19    1.49
   5   4  -5   10.84    1.48
   5  -4   5   10.83    1.05
  -5   4   5   12.20    1.22
  -5   4  -5    8.12    1.42
   5   4   5    7.98    1.57
  -5   4  -5    8.35    1.30
  -5  -4   5   10.55    1.36
  -5  -4   5    8.32    1.62
   6   4  -5    2.46    1.13
  -6   4   5    3.00    1.41
  -6   4   5    2.84    0.97
  -6  -4   5   -0.16    1.41
   6   4   5    0.67    1.34
  -6   4  -5    0.21    1.24
  -6  -4   5    1.64    0.98
  -6   4  -5   -1.28    1.15
  -7   4   5    4.35    1.26
  -7   4   5    3.73    1.80
   7   4  -5    3.67    1.34
  -7   4  -5    4.02    1.60
   7   4   5    1.29    1.56
  -7  -4   5    6.47    1.93
  -7   4  -5    3.42    1.63
   8   4  -5   54.74    4.56
  -8   4   5   45.73    5.00
  -8   4  -5   50.79    4.97
  -8   4  -5   49.96    5.06
   8   4   5   54.52    4.92
  -8  -4   5   54.74    5.07
  -9   4   5   12.57    2.86
  -9  -4  -5   10.76    2.58
   9   4  -5   15.85    2.22
  -9   4  -5    8.92    2.59
   9   4   5   11.64    2.52
  -9   4  -5   10.36    2.53
  -9  -4   5   14.24    2.60
 -10  -4  -5    7.28    2.54
  10   4  -5    7.60    1.99
 -10   4   5    2.88    2.86
 -10   4  -5    2.47    2.54
  10   4   5    3.63    2.41
 -10  -4   5    9.32    2.60
 -10   4  -5    4.25    2.58
   0   5  -5  170.65   11.15
   0   5   5  159.24   11.11
   0   5  -5  155.61   10.61
   0   5   5  154.31   10.71
  -1   5   5   33.39    2.96
   1   5  -5   37.64    3.08
  -1   5   5   33.70    3.01
  -1   5  -5   44.50    3.11
   1   5   5   46.15    3.03
  -1   5  -5   43.57    2.77
   1   5   5   45.45    3.23
  -2   5   5   48.89    3.76
   2   5  -5   50.85    3.86
  -2   5   5   47.74    3.66
  -2  -5   5   52.82    3.89
  -2   5  -5   55.26    3.87
   2   5   5   49.15    4.03
  -2   5  -5   51.01    3.51
   2   5   5   55.40    3.78
  -3   5   5   11.50    1.35
  -3   5   5   11.60    1.25
   3  -5   5   13.69    1.41
   3   5  -5   12.07    1.36
   3   5   5    9.80    1.44
  -3   5  -5   12.90    1.30
   3   5   5   11.94    1.34
  -3  -5   5   10.25    1.41
  -3   5  -5   10.65    1.34
   4   5  -5  150.96   10.43
   4  -5   5  154.54    9.91
  -4   5   5  151.60   10.05
  -4   5   5  147.40   10.18
  -4   5  -5  143.61    9.84
   4   5   5  140.75   10.51
  -4  -5   5  139.08   10.00
  -4   5  -5  140.99   10.35
  -5   5   5   13.07    1.71
   5   5  -5   13.55    1.71
  -5   5   5   14.09    1.38
   5  -5   5   13.59    1.34
  -5   5  -5   10.87    1.39
  -5  -5   5   12.49    1.82
   5   5   5   13.17    1.83
  -5   5  -5    7.99    1.55
  -5  -5   5   11.65    1.56
  -6   5   5   27.59    2.71
   6   5  -5   29.52    3.03
  -6   5   5   29.94    3.24
   6   5   5   30.01    3.33
  -6  -5   5   32.60    2.79
  -6   5  -5   31.04    3.10
  -6  -5   5   28.66    2.96
  -6   5  -5   27.61    2.60
   7   5  -5   16.05    1.97
  -7   5   5   11.11    2.20
   7   5   5   10.89    2.08
  -7   5  -5   13.48    2.14
  -7   5  -5   14.80    2.00
  -7  -5   5   13.66    2.27
  -8   5   5   29.29    3.24
   8   5  -5   28.37    2.94
  -8   5  -5   23.90    2.88
  -8  -5   5   24.06    3.04
   8   5   5   24.17    2.93
  -8   5  -5   21.62    3.04
  -9   5   5    9.57    2.84
   9   5  -5   13.72    2.19
  -9  -5  -5   10.98    2.60
  -9   5  -5   14.99    2.84
   9   5   5   15.92    2.61
  -9   5  -5   13.68    2.63
  -9  -5   5   18.85    2.76
 -10  -5  -5    3.37    2.51
 -10   5   5    2.07    2.90
  10   5  -5    2.31    1.82
 -10  -5   5    9.06    2.53
  10   5   5    5.34    2.32
 -10   5  -5    4.32    2.71
   0   6   5    0.60    0.60
   0   6   5    0.73    0.69
   0   6  -5    0.58    0.71
   0   6  -5    0.64    0.45
  -1   6   5   23.73    1.95
  -1   6   5   21.50    1.74
   1   6  -5   21.46    1.90
  -1   6  -5   18.15    1.87
   1   6   5   16.75    1.83
  -1   6  -5   17.38    1.51
   1   6   5   16.97    2.00
  -2   6   5  186.61   12.98
   2   6  -5  188.41   13.12
  -2   6   5  184.13   12.64
  -2   6  -5  186.22   13.11
  -2   6  -5  189.60   12.47
   2   6   5  185.49   13.22
   2   6   5  193.64   12.66
  -3   6   5   20.14    1.64
   3   6  -5   20.46    2.05
  -3   6   5   17.74    1.70
   3   6   5   15.47    1.82
  -3   6  -5   13.48    1.66
   3   6   5   14.91    1.64
  -3  -6   5   15.79    1.79
  -3   6  -5   14.86    1.57
  -4   6   5   26.17    2.43
   4  -6   5   24.57    2.62
   4   6  -5   25.46    2.91
  -4   6   5   28.28    2.80
  -4  -6   5   31.47    2.78
   4   6   5   30.51    2.83
   4   6   5   32.08    3.09
  -4   6  -5   31.13    2.46
  -4   6  -5   30.26    2.74
   5  -6   5   53.42    4.35
   5   6  -5   59.61    4.85
  -5   6   5   53.91    4.44
  -5   6   5   51.59    4.66
   5   6   5   67.18    4.95
  -5   6  -5   62.53    4.42
  -5  -6   5   65.69    4.60
  -5   6  -5   58.90    4.72
  -5  -6   5   63.19    4.90
  -6   6   5   40.67    3.75
   6   6  -5   48.95    3.75
  -6  -6   5   37.20    3.87
  -6   6  -5   30.48    3.60
  -6  -6   5   35.04    3.27
  -6   6  -5   34.14    3.38
   6   6   5   37.35    3.70
   7   6  -5    6.02    1.61
  -7   6   5    6.53    2.02
   7   6   5    6.88    1.76
  -7   6  -5    8.53    1.69
  -7   6  -5    6.94    1.85
  -7  -6   5    8.20    2.02
   8   6  -5   38.28    3.97
  -8   6   5   37.05    4.01
  -8   6  -5   40.85    4.46
  -8  -6   5   47.23    4.45
  -8   6  -5   43.74    4.48
   8   6   5   40.43    4.02
  -9   6   5    2.02    2.56
   9   6  -5    5.89    1.80
   9   6   5    4.85    1.85
  -9   6  -5    7.01    2.49
  -9  -6   5    8.27    2.34
 -10  -6  -5    6.43    2.68
  10   6  -5    9.37    2.07
 -10   6   5    7.16    3.12
  10   6   5    8.89    2.46
 -10  -6   5    8.61    2.62
 -10   6  -5    5.29    2.89
   0   7  -5  123.49    8.40
   0   7   5  126.22    8.56
   0   7   5  125.09    8.85
   0   7  -5  125.91    8.87
   1   7  -5   61.99    4.67
  -1   7   5   58.88    4.50
  -1   7   5   56.22    4.52
   1   7   5   66.13    4.74
  -1   7  -5   61.22    4.63
  -1   7  -5   63.35    4.24
   1   7   5   63.29    4.48
  -2   7   5   28.10    2.76
   2   7  -5   28.90    2.90
  -2   7   5   26.39    2.57
  -2   7  -5   34.30    2.44
   2   7   5   36.40    2.78
   2   7   5   36.12    3.06
  -2   7  -5   34.81    2.80
  -3   7   5   14.79    1.56
  -3   7   5   13.28    1.61
   3   7  -5   11.54    1.59
  -3   7  -5   13.90    1.62
  -3   7  -5   13.99    1.28
   3   7   5   14.70    1.78
   3   7   5   13.50    1.59
  -4   7   5   96.78    7.32
  -4   7   5   89.57    7.27
   4   7  -5   99.44    7.63
   4   7   5  115.47    7.76
  -4   7  -5  101.00    7.55
   4   7   5  106.55    7.34
  -4   7  -5  108.19    7.07
  -4  -7   5  106.72    7.34
   5  -7   5   11.32    1.59
  -5   7   5   13.81    1.51
  -5   7   5   14.61    1.92
   5   7  -5   13.30    1.86
  -5  -7   5   13.44    1.73
  -5   7  -5   12.77    1.51
   5   7   5   12.80    1.87
  -5   7  -5   10.00    1.77
  -6   7   5   33.01    3.59
   6   7  -5   33.56    3.49
  -6  -7   5   35.59    3.21
  -6   7  -5   32.11    3.27
  -6  -7   5   39.19    3.78
  -6   7  -5   33.04    3.56
   6   7   5   35.57    3.53
  -7   7   5    0.39    1.86
   7   7  -5    2.21    1.45
   7   7   5    1.52    1.49
  -7   7  -5    0.86    1.67
  -7  -7   5    0.21    1.75
  -8   7   5    9.74    2.54
   8   7  -5   11.05    1.96
  -8   7  -5    7.61    2.27
  -8  -7   5    9.61    2.29
   8   7   5    9.06    1.97
  -9   7   5    6.19    2.81
   9   7  -5    8.32    1.91
  -9   7  -5    7.06    2.57
   9   7   5    6.80    1.94
  -9  -7   5    9.81    2.48
 -10  -7  -5    6.49    2.78
 -10   7   5    5.75    3.16
  10   7  -5    2.46    1.79
 -10  -7   5   10.90    2.66
  10   7   5    6.52    2.33
   0   8  -5    0.73    0.95
   0   8  -5   -0.70    0.61
   0   8   5    0.62    0.93
   0   8   5    0.31    0.82
  -1   8   5   20.26    2.29
  -1   8   5   18.36    2.21
   1   8  -5   20.87    2.31
  -1   8  -5   24.73    2.30
   1   8   5   25.63    2.48
  -1   8  -5   23.66    1.89
   1   8   5   22.87    2.25
  -2   8  -5   23.59    2.40
  -2   8  -5   23.19    2.05
   2   8   5   24.03    2.70
   2   8   5   23.30    2.42
  -3   8   5   16.53    1.87
   3   8  -5   14.89    1.88
  -3   8   5   16.82    1.63
  -3   8  -5   17.12    1.87
   3   8   5   15.83    1.99
  -3   8  -5   17.41    1.84
   3   8   5   16.56    1.83
  -4   8   5   45.24    4.17
  -4   8   5   44.56    4.00
   4   8  -5   51.04    4.31
  -4   8  -5   55.72    3.85
  -4  -8   5   49.58    4.19
   4   8   5   56.65    4.25
  -4   8  -5   50.21    4.21
   4   8   5   56.82    4.43
  -5   8   5   33.34    3.53
   5   8  -5   35.30    3.56
  -5   8  -5   35.38    3.42
   5   8   5   33.29    3.52
  -5  -8   5   39.95    3.34
   6   8  -5   21.90    2.70
  -6   8   5   25.24    2.82
  -6  -8   5   24.36    2.75
   6   8   5   26.48    2.85
  -6  -8   5   23.76    2.51
  -6   8  -5   29.20    2.91
  -7   8   5    2.32    1.98
   7   8  -5   -0.67    1.47
   7   8   5    1.95    1.55
  -7  -8   5    1.33    1.89
  -7   8  -5    3.32    1.85
  -8   8   5    0.26    2.23
   8   8  -5    1.06    1.64
  -8   8  -5    4.08    2.17
   8   8   5    1.72    1.65
  -8  -8   5    6.30    2.20
  -9   8   5    2.99    2.69
   9   8  -5    1.42    1.72
  -9   8  -5    1.86    2.43
   9   8   5    3.39    1.73
  -9  -8   5    3.92    2.33
   0   9   5  153.65   10.64
   0   9   5  150.21   10.23
   0   9  -5  142.46   10.60
   0   9  -5  150.65   10.06
   1   9  -5   55.22    4.39
  -1   9   5   53.40    4.29
  -1   9   5   50.21    4.24
   1   9   5   54.95    4.50
  -1   9  -5   56.69    3.97
   1   9   5   58.42    4.22
  -1   9  -5   56.34    4.37
   2   9  -5   10.13    1.70
  -2   9   5   16.89    1.78
  -2   9   5   13.02    1.58
   2   9   5   13.24    1.72
   2   9   5   16.57    1.94
  -2   9  -5   13.31    1.77
  -2   9  -5   15.34    1.38
  -3   9   5   13.76    1.71
   3   9  -5   12.17    1.69
  -3   9   5   12.85    1.42
   3   9   5    7.98    1.65
  -3   9  -5    6.72    1.56
   3   9   5    6.10    1.50
  -4   9   5    6.66    1.24
   4   9  -5    5.41    1.52
  -4   9   5    7.67    1.61
  -4   9  -5    3.86    1.45
  -4  -9   5    3.18    1.45
   4   9   5    3.92    1.48
   4   9   5    3.24    1.49
  -5   9   5   27.45    2.89
   5   9  -5   23.19    2.87
  -5  -9   5   31.24    3.09
   5   9   5   32.18    3.37
  -5   9  -5   33.13    3.17
  -6   9   5    8.16    2.12
   6   9  -5    7.55    1.90
  -6   9  -5    9.85    2.01
   6   9   5   11.02    1.95
  -6  -9   5    9.46    1.76
  -7   9   5    9.07    2.39
   7   9  -5    7.33    2.00
   7   9   5    9.48    2.01
  -7   9  -5    9.12    2.21
  -7  -9   5   16.70    2.47
   8   9  -5    2.71    1.75
  -8   9   5    2.03    2.40
   8   9   5    2.04    1.78
  -8   9  -5   -0.37    2.10
  -8  -9   5    1.21    2.09
  -9   9   5    3.71    2.82
   9   9  -5    1.36    1.84
  -9  -9   5    4.00    2.40
   9   9   5    4.13    1.88
  -9   9  -5   -0.95    2.46
   0  10  -5    2.65    0.94
   0  10   5    1.35    1.14
   0  10  -5    4.19    1.31
   0  10   5    3.50    1.26
   1  10  -5   71.63    5.69
  -1  10   5   73.39    5.47
  -1  10   5   68.77    5.59
   1  10   5   77.44    5.79
   1  10   5   74.46    5.41
  -1  10  -5   76.79    5.72
   2  10  -5   25.22    2.75
  -2  10   5   26.64    2.69
  -2  10   5   22.55    2.41
   2  10   5   23.97    2.58
   2  10   5   25.31    2.64
  -2  10  -5   24.16    2.49
   3  10  -5    2.12    1.39
  -3  10   5    3.16    1.24
  -3  10   5    2.25    1.45
   3  10   5    5.07    1.45
  -3  10  -5    3.59    1.46
   3  10   5    7.17    1.60
  -4  10   5   10.28    1.87
   4  10  -5    9.06    1.79
   4  10   5    8.57    1.82
   4  10   5   10.90    1.84
  -4  10  -5    8.73    1.80
  -5  10   5    6.82    1.89
   5  10  -5    5.98    1.75
  -5 -10   5    6.44    1.72
   5  10   5    6.53    1.79
  -5  10  -5    6.70    1.82
   6  10  -5   42.36    4.08
  -6  10   5   37.90    3.67
  -6  10  -5   35.17    3.99
   6  10   5   38.21    3.93
  -6 -10   5   33.47    3.57
   7  10  -5   11.14    2.22
  -7  10   5   12.22    2.62
  -7  10  -5   10.33    2.35
  -7 -10   5   12.83    2.50
   7  10   5   12.74    2.23
  -8  10   5   -0.11    2.49
   8  10  -5    3.64    1.89
   8  10   5    2.09    1.74
  -8 -10   5    1.06    2.24
  -8  10  -5    2.82    2.29
   0  11  -5   57.38    4.66
   0  11   5   62.34    4.80
   0  11   5   51.31    4.42
   1  11  -5    3.56    1.37
  -1  11   5    3.68    1.41
  -1  11   5    3.28    1.32
   1  11   5    1.32    1.31
  -1  11  -5    2.09    1.37
   1  11   5    2.50    1.36
  -2  11   5   13.02    1.83
  -2  11   5   14.50    1.77
   2  11  -5   12.08    1.84
   2  11   5   11.39    1.75
  -2  11  -5    8.50    1.78
   2  11   5   11.08    1.94
  -3  11   5   37.51    3.86
   3  11  -5   39.38    3.72
   3  11   5   39.97    4.02
  -3  11  -5   37.35    3.67
   3  11   5   37.76    3.50
  -4  11   5   28.97    2.82
   4  11  -5   22.60    2.78
   4  11   5   22.63    2.70
   4  11   5   31.89    3.13
  -4  11  -5   26.19    2.89
  -5  11   5   14.07    2.35
   5  11  -5   12.83    2.28
   5  11   5   14.52    2.36
  -5  11  -5   15.55    2.34
  -5 -11   5   17.37    2.33
  -6  11   5    5.04    2.17
   6  11  -5    5.86    2.01
   6  11   5    9.33    2.05
  -6  11  -5    6.67    2.14
  -6 -11   5    9.11    1.97
  -7  11   5    1.05    2.29
   7  11  -5    0.30    1.81
  -7  11  -5   -1.03    2.05
  -7 -11   5    4.99    2.17
   7  11   5    4.50    1.89
   8  11  -5    7.17    2.22
  -8  11   5    4.93    2.85
  -8 -11   5   15.01    2.86
  -8  11  -5   12.80    2.78
   8  11   5   10.60    2.22
   0  12   5   -0.03    1.40
   0  12  -5    0.80    1.44
   0  12   5   -1.41    1.33
   1  12  -5    9.16    1.77
  -1  12   5   10.09    1.82
  -1  12   5    9.46    1.79
  -1  12  -5    8.32    1.83
   1  12   5   11.07    1.78
   1  12   5   14.13    2.05
  -2  12   5   28.46    2.77
   2  12  -5   19.59    2.63
  -2  12   5   28.97    2.74
   2  12   5   29.51    2.89
   2  12   5   30.29    3.05
  -2  12  -5   25.79    2.83
  -3  12   5   26.15    2.72
   3  12  -5   20.74    2.72
   3  12   5   21.39    2.55
  -3  12  -5   25.40    2.75
   3  12   5   30.84    3.07
  -4  12   5   14.81    2.29
   4  12  -5   10.25    2.03
   4  12   5    8.36    1.99
   4  12   5   11.44    2.24
  -4  12  -5   11.15    2.14
  -5  12   5   -0.58    1.93
   5  12  -5    0.80    1.73
   5  12   5    5.52    1.95
  -5  12  -5    5.20    2.00
  -5 -12   5    4.00    1.89
  -6  12   5    5.59    2.33
   6  12  -5    1.63    1.85
  -6 -12   5    4.40    1.87
  -6  12  -5    3.61    2.16
   6  12   5    4.06    1.89
   7  12  -5   10.21    2.39
  -7  12   5   11.84    2.79
   7  12   5    9.93    2.34
  -7 -12   5   13.78    2.64
  -7  12  -5   11.85    2.64
   0  13   5    6.58    1.65
   0  13  -5    5.75    1.69
   0  13   5    4.00    1.73
  -1  13   5    4.81    1.80
  -1  13   5    3.75    1.59
   1  13  -5    4.24    1.67
   1  13   5    4.09    1.61
   1  13   5    2.87    1.80
  -1  13  -5    4.99    1.74
  -2  13   5    8.67    1.98
   2  13  -5    8.25    1.85
   2  13   5    9.67    2.16
   2  13   5    9.78    1.84
  -2  13  -5    5.68    1.87
   3  13  -5   16.08    2.52
  -3  13   5   22.66    2.61
  -3  13  -5   21.03    2.69
   3  13   5   22.48    2.56
   3  13   5   25.49    2.96
  -4  13   5    3.35    2.01
   4  13  -5    1.94    1.80
   4  13   5    8.58    2.18
   4  13   5    6.07    1.86
  -4  13  -5    4.79    1.99
  -5  13   5    4.13    2.23
   5  13  -5    2.59    1.92
  -5 -13   5    4.77    2.09
   5  13   5    4.72    2.06
  -5  13  -5    5.51    2.15
   6  13  -5    2.71    1.98
  -6  13   5   -0.73    2.26
  -6  13  -5    3.36    2.27
  -6 -13   5    3.11    1.99
   6  13   5    0.01    1.91
   0  14   5    8.84    1.91
   0  14   5   10.89    2.18
   0  14  -5    7.88    1.94
  -1  14   5    4.27    1.73
   1  14  -5    4.00    1.73
  -1  14  -5    1.92    1.77
   1  14   5    2.67    1.71
   1  14   5    3.62    2.01
  -2  14   5    8.37    2.11
   2  14  -5    7.78    1.97
   2  14   5    9.77    2.34
   2  14   5    5.20    1.84
  -2  14  -5    8.33    2.11
  -3  14   5    4.05    2.03
   3  14  -5    2.62    1.79
  -3  14  -5    2.43    1.92
   3  14   5    1.96    1.84
   3  14   5    2.60    2.08
   4  14  -5    2.86    1.92
  -4  14   5    3.83    2.10
   4  14   5    2.97    1.86
   4  14   5    3.85    2.17
  -4  14  -5    3.80    2.14
  -4 -14   5    4.18    2.21
   5  14  -5    5.51    2.24
  -5  14   5    9.63    2.59
  -5  14  -5   10.37    2.50
   5  14   5   16.30    2.68
  -5 -14   5   11.19    2.47
   0  15   5   -0.89    1.64
   0  15  -5   -3.75    1.68
   0  15   5   -0.38    1.96
  -1  15   5    6.25    1.89
   1  15  -5    3.58    1.88
  -1  15  -5    4.81    1.92
   1  15   5    4.58    2.26
   1  15   5    4.27    1.84
   2  15  -5   -1.25    1.79
  -2  15   5   -0.58    1.77
   2  15   5    3.26    2.24
   2  15   5    1.43    1.81
  -2  15  -5    0.67    1.99
   3  15  -5    5.27    2.10
  -3  15   5    9.17    2.36
   3  15   5   10.51    2.25
  -3  15  -5    5.43    2.28
   3  15   5    9.65    2.61
  -4  15   5   12.35    2.55
   4  15  -5    9.75    2.42
  -4  15  -5   10.32    2.55
  -4 -15   5   12.13    2.70
   4  15   5   11.39    2.72
   0  16  -5    3.13    2.07
   0  16   5    3.83    1.99
  -1  16   5   -0.31    1.90
   1  16  -5    0.02    1.91
   1  16   5    0.41    1.89
  -1  16  -5   -0.49    1.98
   0   0  -6  894.10   61.42
   0   0   6  886.79   59.05
   0   0   6  916.55   59.21
  -1   0   6    4.87    0.56
  -1   0   6    4.94    0.66
  -1   0  -6    5.09    0.58
   1   0   6    5.42    0.52
   1   0   6    5.21    0.61
   1   0  -6    5.35    0.55
  -2   0   6   22.98    1.87
   2   0   6   24.54    1.93
   2   0   6   22.69    1.86
  -2   0   6   25.89    1.97
   2   0  -6   22.95    1.83
   2   0   6   25.23    1.82
   3   0   6   54.19    3.61
  -3   0   6   54.68    3.82
   3   0  -6   48.14    3.82
   3   0   6   54.14    3.92
  -3   0   6   52.54    3.77
   4   0   6   46.21    3.12
  -4   0   6   42.51    3.34
  -4   0   6   45.08    3.55
   4   0   6   47.65    3.59
   4   0  -6   43.69    3.44
  -5   0   6  134.01    9.19
  -5   0   6  128.63    8.90
   5   0  -6  128.34    9.31
   5   0   6  135.56    9.49
   6   0   6   28.44    2.96
  -6   0   6   26.06    2.68
   6   0  -6   28.51    2.72
  -6   0   6   25.11    2.35
  -6   0  -6   23.57    2.65
  -7   0   6   -1.66    1.63
   7   0   6   -0.89    1.46
  -7   0  -6   -1.51    1.50
   7   0  -6   -0.22    1.15
   8   0   6    6.45    2.14
  -8   0  -6    6.78    2.07
   8   0  -6    7.47    1.69
  -8   0   6    6.62    2.24
   9   0   6    3.62    2.39
  -9   0   6    4.32    2.44
  -9   0  -6    3.24    2.19
 -10   0   6    1.85    2.65
  10   0   6   -3.39    2.52
 -10   0  -6    0.89    2.38
 -10   0  -6    1.89    2.40
 -11   0  -6    0.98    2.62
  11   0   6   -5.27    2.83
 -11   0  -6    5.25    2.71
 -11   0   6    2.20    2.90
   0  -1   6    7.71    0.87
   0   1   6    9.35    0.88
   0  -1  -6    8.10    0.74
   0  -1   6    8.32    0.74
   0   1   6    6.61    0.78
  -1   1   6   93.21    6.00
  -1   1   6   92.03    5.95
   1   1  -6   90.55    6.12
   1  -1   6   90.01    5.87
   1  -1   6   90.58    5.97
  -1   1  -6   85.02    6.16
   1   1   6   85.62    5.93
  -1  -1   6   87.29    6.01
   1   1   6   85.69    6.15
   1   1   6   85.36    5.93
  -1  -1   6   85.41    5.91
   2  -1   6   84.10    5.56
  -2   1   6   83.52    5.61
  -2   1   6   78.63    5.60
   2   1  -6   79.64    5.74
  -2  -1   6   85.94    5.65
  -2  -1   6   84.59    5.59
  -2   1  -6   79.70    5.79
   2   1   6   81.97    5.82
   2   1   6   79.46    5.57
   2   1   6   82.68    5.53
   3  -1   6    6.19    0.63
   3  -1   6    6.47    0.85
  -3   1   6    6.02    0.81
  -3   1   6    5.76    0.83
   3   1  -6    5.86    0.75
  -3  -1   6    3.73    0.80
  -3   1  -6    3.39    0.74
   3   1   6    3.23    0.81
   3  -1  -6    3.94    0.56
   3   1   6    3.33    0.55
  -3  -1   6    3.57    0.81
   4   1  -6   75.85    6.01
   4  -1   6   77.35    5.59
  -4   1   6   76.16    5.77
   4  -1   6   80.77    6.10
  -4   1   6   73.71    5.88
   4  -1  -6   87.70    5.90
  -4  -1   6   91.37    5.98
  -4  -1   6   85.66    5.79
   4   1   6   91.45    6.18
   4   1   6   93.45    5.61
  -5   1   6    1.36    1.14
  -5   1   6    2.21    0.82
   5  -1   6    0.52    1.01
   5   1  -6    2.10    0.85
   5  -1   6    1.34    0.41
   5  -1  -6    0.92    0.75
  -5   1  -6    1.29    1.13
   5   1   6    1.68    1.14
  -5  -1   6    1.36    0.80
  -5  -1   6    1.91    1.21
   6   1  -6   84.61    6.34
  -6   1   6   83.67    6.36
  -6   1   6   77.76    5.88
   6  -1   6   80.85    6.46
  -6  -1   6   86.52    5.90
   6   1   6   91.61    6.58
   6  -1  -6   84.17    6.18
  -6  -1   6   88.43    6.44
  -6   1  -6   83.33    6.39
   7  -1   6    6.67    1.84
  -7  -1  -6    7.49    1.87
   7   1  -6    7.24    1.51
  -7   1   6    6.72    1.94
   7   1   6    8.58    1.96
   7  -1  -6   10.32    1.53
  -7   1  -6    6.75    1.81
  -7  -1   6    8.71    2.02
  -8   1   6    1.53    2.09
   8   1  -6    5.99    1.57
  -8  -1  -6    5.25    1.97
   8  -1   6    6.30    2.12
  -8  -1   6    2.80    2.06
   8  -1  -6    2.50    1.50
  -8   1  -6    3.72    2.00
   8   1   6    6.17    2.13
  -8   1  -6    4.81    2.00
  -9   1   6    2.28    2.36
   9  -1   6    0.73    2.32
  -9  -1  -6    6.09    2.21
   9   1  -6    6.86    1.86
  -9  -1   6    6.32    2.46
  -9   1  -6    2.35    2.15
   9   1   6    1.84    2.24
  -9   1  -6    1.36    2.22
 -10  -1  -6   13.36    2.73
 -10   1   6    7.68    2.94
 -10  -1   6    7.17    2.80
  10   1   6    7.91    2.91
 -10   1  -6   10.67    2.80
 -10   1  -6    8.47    2.88
  11   1   6    3.29    2.96
   0   2   6  298.83   20.79
   0   2  -6  299.57   20.84
   0  -2   6  312.15   20.11
   0   2   6  308.02   20.06
   0   2   6  299.86   20.10
  -1   2   6   85.43    6.52
  -1   2   6   90.14    6.55
   1  -2   6   87.38    6.54
   1   2  -6   87.82    6.73
   1   2   6   99.44    6.53
   1   2   6  103.70    6.78
  -1  -2   6  104.65    6.47
   1   2   6  102.51    6.52
  -1   2  -6  102.45    6.77
  -1  -2   6  104.76    6.62
   2   2  -6   30.84    2.65
   2  -2   6   30.56    2.60
  -2   2   6   29.74    2.66
  -2   2   6   31.41    2.68
   2   2   6   38.61    2.78
  -2  -2   6   39.72    2.77
   2   2   6   36.12    2.61
  -2   2  -6   35.89    2.56
  -2  -2   6   38.66    2.64
  -2   2  -6   40.78    2.72
   2   2   6   38.90    2.57
  -3   2   6    3.64    0.74
  -3   2   6    4.14    0.81
   3  -2   6    4.30    0.60
  -3   2   6    3.98    0.46
   3   2  -6    3.34    0.68
   3   2   6    2.88    0.84
   3   2   6    2.76    0.53
  -3   2  -6    2.79    0.73
   3   2   6    2.04    0.75
  -3   2  -6    2.44    0.70
  -3  -2   6    2.60    0.79
  -3  -2   6    3.84    0.82
   4  -2   6  173.59   12.25
   4   2  -6  170.67   12.93
  -4   2   6  162.70   12.47
  -4   2   6  168.19   12.38
   4   2   6  198.40   13.09
  -4  -2   6  196.82   12.59
   4  -2  -6  187.72   12.77
  -4  -2   6  200.82   12.46
  -4   2  -6  194.01   12.96
  -4   2  -6  201.63   12.49
   5   2  -6   32.83    2.64
  -5   2   6   27.14    2.35
  -5   2   6   29.76    2.70
   5  -2   6   28.04    1.94
  -5  -2   6   23.29    2.48
  -5   2  -6   23.35    2.60
   5   2   6   22.68    2.55
   5  -2  -6   23.56    2.22
  -5   2  -6   24.58    2.67
  -5  -2   6   24.51    2.36
  -6   2   6   34.99    2.74
  -6   2   6   38.50    3.26
   6   2  -6   43.40    3.14
  -6  -2   6   29.65    3.06
  -6  -2   6   30.28    2.72
   6  -2  -6   28.96    2.78
  -6   2  -6   28.12    3.22
  -6   2  -6   28.00    2.89
   6   2   6   31.84    3.34
   7   2  -6   11.28    1.61
  -7   2   6   10.89    2.07
   7  -2  -6    7.61    1.43
  -7   2  -6    6.12    1.79
  -7  -2   6   11.10    2.11
  -7   2  -6    6.61    1.90
   7   2   6    9.48    2.03
  -8  -2  -6   43.23    4.09
   8   2  -6   38.07    3.77
  -8   2   6   31.43    3.51
  -8   2  -6   33.20    3.42
   8   2   6   31.12    3.63
  -8   2  -6   31.92    3.59
  -8  -2   6   28.51    3.52
  -9   2   6    6.63    2.53
   9   2  -6    8.79    1.89
  -9  -2  -6   12.93    2.41
  -9   2  -6    7.79    2.47
   9   2   6    3.32    2.36
  -9  -2   6    3.32    2.37
  -9   2  -6    7.22    2.33
 -10   2   6   24.79    3.84
 -10  -2  -6   29.98    3.55
 -10   2  -6   27.18    3.58
  10   2   6   29.84    3.83
 -10   2  -6   24.58    3.75
 -10  -2   6   32.80    3.83
   0   3   6    4.05    0.67
   0   3   6    5.61    0.73
   0  -3   6    4.71    0.80
   0   3  -6    4.38    0.65
   0   3   6    4.75    0.63
   1   3  -6  108.07    7.23
  -1   3   6  106.77    7.02
  -1   3   6  102.49    6.98
   1  -3   6  115.39    7.08
  -1   3   6   99.51    7.14
  -1   3  -6  101.70    7.24
  -1  -3   6   99.89    6.92
   1   3   6  102.01    7.28
   1   3   6   97.93    6.98
  -1  -3   6  101.53    7.09
   1   3   6  102.81    6.98
   2   3  -6  267.31   17.79
   2  -3   6  272.21   17.13
  -2   3   6  268.37   17.14
  -2   3   6  262.82   17.18
  -2   3  -6  248.16   17.02
  -2  -3   6  257.60   17.17
  -2  -3   6  251.19   17.19
   2   3   6  253.27   17.88
   2   3   6  249.16   17.16
  -2   3  -6  250.26   17.81
   3  -3   6   52.47    3.84
  -3   3   6   56.75    3.82
  -3   3   6   57.61    4.01
  -3   3   6   56.18    3.95
   3   3  -6   57.20    4.06
   3   3   6   51.40    3.97
   3   3   6   51.08    4.24
  -3  -3   6   54.06    4.03
  -3   3  -6   53.99    4.08
  -3   3  -6   52.99    3.81
  -3  -3   6   51.30    4.08
  -4   3   6   71.26    5.31
   4   3  -6   72.36    5.46
   4  -3   6   74.05    5.05
  -4   3   6   73.35    5.22
  -4   3   6   73.05    5.20
  -4  -3   6   71.17    5.47
  -4   3  -6   73.34    5.44
   4   3   6   77.72    5.72
  -4  -3   6   74.74    5.26
  -4   3  -6   74.04    5.19
   5  -3   6   19.77    1.67
  -5   3   6   18.25    2.01
   5   3  -6   24.30    2.33
  -5   3   6   21.53    1.94
  -5   3  -6   17.96    2.01
   5   3   6   19.88    2.29
  -5  -3   6   18.82    2.18
  -5   3  -6   19.61    1.91
  -5  -3   6   19.12    1.89
  -6   3   6   54.08    4.43
   6   3  -6   58.53    4.31
  -6   3   6   53.49    4.07
  -6   3  -6   46.83    4.28
  -6  -3   6   46.74    4.57
   6   3   6   56.81    4.70
  -6   3  -6   47.19    4.41
  -6  -3   6   51.07    3.97
   7   3  -6   18.77    2.04
  -7   3   6   17.24    2.40
  -7   3  -6   14.72    2.17
   7   3   6   15.28    2.42
  -7   3  -6   17.65    2.32
  -7  -3   6   13.57    2.37
  -8   3   6   64.86    6.06
  -8  -3  -6   70.76    6.03
   8   3  -6   75.56    5.99
  -8   3  -6   75.31    6.27
   8   3   6   75.77    6.28
  -8   3  -6   72.24    6.14
  -8  -3   6   75.43    6.20
  -9  -3  -6    9.75    2.45
  -9   3   6    5.67    2.48
   9   3  -6    5.91    1.83
  -9   3  -6    7.43    2.33
  -9   3  -6    1.76    2.27
  -9  -3   6    6.41    2.44
   9   3   6    5.10    2.34
  10   3  -6   10.85    2.19
 -10  -3  -6    9.00    2.62
 -10   3   6    4.49    2.96
 -10  -3   6   11.97    2.85
  10   3   6    6.16    2.64
 -10   3  -6   10.69    2.92
 -10   3  -6    5.43    2.68
   0   4  -6  421.79   28.63
   0   4   6  414.08   27.59
   0  -4   6  435.89   27.64
   0   4   6  397.05   28.63
   1  -4   6   57.79    4.11
  -1   4   6   54.37    4.01
  -1   4   6   57.20    4.02
   1   4  -6   59.51    4.11
  -1  -4   6   55.98    3.96
  -1   4  -6   59.10    4.12
   1   4   6   52.73    3.97
   1   4   6   54.23    4.20
  -1  -4   6   57.71    4.15
   2  -4   6   55.75    3.83
   2   4  -6   55.09    3.85
  -2   4   6   53.25    3.80
  -2   4   6   51.86    3.65
  -2   4  -6   49.81    3.50
  -2   4  -6   53.28    3.88
   2   4   6   48.88    3.98
  -2  -4   6   48.20    3.83
  -2  -4   6   49.79    3.93
   2   4   6   52.82    3.77
  -3   4   6   23.15    2.15
   3   4  -6   23.78    2.12
  -3   4   6   23.80    1.69
   3  -4   6   22.65    1.96
  -3  -4   6   18.97    1.97
   3   4   6   21.52    2.13
   3   4   6   19.35    2.07
  -3  -4   6   17.89    1.92
  -3   4  -6   21.26    1.72
  -3   4  -6   19.77    2.04
  -4   4   6  185.12   12.75
   4  -4   6  186.98   12.57
   4   4  -6  190.75   13.25
  -4   4   6  184.17   12.99
  -4  -4   6  189.66   12.85
   4   4   6  189.66   13.39
  -4  -4   6  188.81   12.73
  -4   4  -6  191.83   12.60
  -4   4  -6  187.58   13.20
  -5   4   6    1.84    1.21
  -5   4   6    2.45    0.76
   5  -4   6    1.85    0.70
   5   4  -6    2.36    1.02
  -5  -4   6    0.31    1.26
  -5  -4   6    1.63    1.00
  -5   4  -6    0.18    1.05
   5   4   6   -0.24    1.18
  -5   4  -6    0.16    0.92
  -6   4   6   37.93    3.87
   6   4  -6   44.42    3.70
  -6   4   6   42.68    3.47
  -6   4  -6   44.39    3.87
  -6   4  -6   40.30    3.74
  -6  -4   6   39.14    4.18
   6   4   6   45.98    4.07
  -6  -4   6   43.15    3.50
  -7   4   6   36.11    3.93
   7   4  -6   36.58    3.67
   7   4   6   39.45    3.98
  -7  -4   6   42.01    4.21
  -7   4  -6   40.77    3.98
  -7   4  -6   42.43    4.00
  -8   4   6   22.62    2.95
   8   4  -6   23.26    2.48
   8   4   6   20.55    2.89
  -8   4  -6   19.49    2.78
  -8   4  -6   17.59    2.68
  -8  -4   6   21.71    2.90
   9   4  -6   10.62    2.07
  -9   4   6    9.27    2.70
  -9  -4  -6   10.39    2.54
   9   4   6    9.87    2.51
  -9   4  -6    9.53    2.55
  -9  -4   6   12.32    2.57
  -9   4  -6    8.64    2.47
 -10   4   6    3.70    2.85
  10   4  -6    5.49    1.95
 -10  -4  -6    7.52    2.57
 -10   4  -6    3.34    2.66
  10   4   6    3.12    2.42
 -10  -4   6    8.63    2.60
 -10   4  -6    2.23    2.52
   0   5   6    0.28    0.63
   0   5  -6    1.78    0.67
   0   5   6    1.04    0.57
   0  -5   6    1.67    0.89
   1   5  -6   10.50    1.23
  -1   5   6   12.18    1.30
  -1   5   6   11.54    1.26
   1  -5   6   10.06    1.44
  -1   5  -6   15.96    1.55
   1   5   6   14.99    1.42
  -1  -5   6   13.40    1.50
   1   5   6   17.17    1.59
   2  -5   6  270.74   16.98
   2   5  -6  269.60   17.55
  -2   5   6  257.84   17.40
  -2   5   6  258.19   16.92
   2   5   6  252.46   16.92
  -2  -5   6  230.56   16.97
  -2   5  -6  249.53   16.73
   2   5   6  240.40   17.64
  -2   5  -6  249.50   17.54
  -3   5   6   60.78    4.50
   3  -5   6   62.19    4.63
  -3   5   6   61.17    4.61
   3   5  -6   63.46    4.77
  -3   5  -6   64.85    4.80
  -3  -5   6   63.18    4.71
   3   5   6   63.20    4.98
   3   5   6   65.44    4.63
  -3  -5   6   62.95    4.73
  -3   5  -6   66.37    4.37
   4   5  -6   30.12    2.93
  -4   5   6   29.03    2.38
  -4   5   6   28.18    2.84
   4  -5   6   27.85    2.57
  -4   5  -6   31.43    2.78
  -4  -5   6   32.16    2.78
  -4  -5   6   28.83    3.11
   4   5   6   32.54    2.84
   4   5   6   31.00    3.03
  -4   5  -6   31.56    2.46
  -5   5   6    4.07    1.38
   5   5  -6    4.26    1.22
   5  -5   6    4.71    0.96
  -5   5   6    4.81    0.93
  -5   5  -6    6.63    1.08
  -5   5  -6    4.95    1.32
   5   5   6    5.46    1.43
  -5  -5   6    4.34    1.21
  -5  -5   6    6.58    1.55
   6   5  -6    7.82    1.60
  -6   5   6    7.11    1.81
  -6  -5   6   11.03    1.97
  -6  -5   6   13.99    1.63
  -6   5  -6   13.57    1.62
   6   5   6   13.35    1.98
  -6   5  -6   11.68    1.85
  -7   5   6    0.52    1.76
   7   5  -6    1.82    1.30
  -7  -5   6    3.29    1.80
  -7   5  -6    0.74    1.61
   7   5   6    1.11    1.51
  -7   5  -6   -0.50    1.43
   8   5  -6   33.77    3.34
  -8   5   6   27.39    3.35
  -8   5  -6   26.15    3.34
   8   5   6   28.26    3.26
  -8   5  -6   31.01    3.12
  -8  -5   6   28.38    3.30
  -9   5   6   -0.90    2.39
  -9  -5  -6    2.32    2.26
   9   5  -6    3.62    1.66
  -9   5  -6    1.01    2.32
   9   5   6    2.28    2.05
  -9  -5   6    4.70    2.26
 -10   5   6    0.94    2.92
 -10  -5  -6    6.98    2.64
  10   5  -6    5.13    1.94
  10   5   6    3.12    2.34
 -10   5  -6    1.57    2.71
 -10  -5   6   11.37    2.67
   0   6  -6  256.07   17.24
   0   6   6  246.42   16.61
   0   6   6  243.57   17.22
  -1   6   6   46.99    3.10
   1   6  -6   46.81    3.15
  -1   6   6   45.97    3.01
  -1   6  -6   34.25    2.70
  -1  -6   6   31.12    3.25
   1   6   6   35.99    3.19
  -1   6  -6   37.34    3.09
   1   6   6   34.53    3.00
   2   6  -6    9.31    1.28
   2  -6   6    9.82    1.47
  -2   6   6    9.86    1.31
  -2   6   6    9.87    1.05
  -2   6  -6   11.58    1.33
  -2   6  -6   13.44    1.13
   2   6   6   12.06    1.33
  -2  -6   6   11.91    1.54
   2   6   6   12.08    1.48
   3   6  -6   17.43    1.87
  -3   6   6   17.61    1.85
   3  -6   6   20.71    1.96
  -3   6   6   19.51    1.71
  -3   6  -6   18.79    1.68
   3   6   6   16.20    1.80
  -3   6  -6   20.10    2.10
  -3  -6   6   19.27    1.99
   3   6   6   21.34    2.10
   4   6  -6  171.71   10.74
  -4   6   6  166.34   10.33
  -4   6   6  159.99   10.41
   4  -6   6  168.03   10.22
  -4   6  -6  137.28   10.04
   4   6   6  136.92   10.29
  -4  -6   6  140.05   10.35
   4   6   6  137.21   10.77
  -4  -6   6  142.14   10.28
  -4   6  -6  133.33   10.60
   5  -6   6    6.71    1.17
  -5   6   6    9.27    1.62
   5   6  -6    8.23    1.48
  -5   6  -6    4.07    1.40
   5   6   6    5.84    1.49
  -5   6  -6    6.30    1.13
  -5  -6   6    5.57    1.35
  -5  -6   6    6.05    1.56
  -6   6   6   17.32    2.51
   6   6  -6   21.73    2.48
  -6  -6   6   21.20    2.55
  -6   6  -6   22.81    2.55
  -6   6  -6   22.97    2.19
   6   6   6   25.94    2.75
  -6  -6   6   25.55    2.60
   7   6  -6    5.56    1.59
  -7   6   6    4.23    1.99
  -7  -6   6    6.84    1.96
  -7   6  -6    8.14    1.70
   7   6   6    6.44    1.78
  -7   6  -6    5.83    1.85
   8   6  -6    4.34    1.64
  -8   6   6    4.47    2.24
  -8  -6   6    5.13    2.15
   8   6   6    5.45    1.80
  -8   6  -6    5.60    2.16
  -9   6   6    5.51    2.73
   9   6  -6    8.51    1.93
   9   6   6    9.98    2.16
  -9   6  -6    7.70    2.66
  -9  -6   6   17.50    2.69
  10   6  -6    3.65    1.86
 -10  -6  -6    0.89    2.48
 -10   6   6    2.36    2.96
 -10   6  -6   -0.25    2.66
  10   6   6    5.24    2.32
 -10  -6   6    7.07    2.50
   0   7   6   25.88    2.36
   0   7   6   24.08    2.35
   0   7  -6   25.52    2.34
  -1   7   6   20.73    2.12
  -1   7   6   18.60    2.03
   1   7  -6   21.74    2.37
   1   7   6   28.77    2.55
  -1   7  -6   25.27    2.31
  -1   7  -6   25.44    1.86
   1   7   6   28.36    2.29
   2   7  -6  141.58   10.73
  -2   7   6  128.63   10.55
  -2   7   6  132.37   10.33
   2   7   6  167.32   10.90
  -2  -7   6  165.38   10.54
  -2   7  -6  161.22   10.11
   2   7   6  162.14   10.34
  -2   7  -6  159.82   10.73
   3   7  -6    3.18    1.12
  -3   7   6    2.60    1.14
  -3   7   6    4.25    0.81
  -3   7  -6    4.06    0.73
  -3  -7   6    2.79    1.22
   3   7   6    2.86    1.11
  -3   7  -6    2.07    1.08
   3   7   6    3.37    1.15
   4   7  -6   13.66    1.82
  -4   7   6   14.09    1.84
   4  -7   6   16.95    1.84
  -4   7   6   16.41    1.78
  -4   7  -6   13.75    1.82
  -4  -7   6   13.80    1.84
   4   7   6   13.81    1.91
  -4   7  -6   15.29    1.43
   4   7   6   15.55    1.85
  -5   7   6   59.22    4.83
   5  -7   6   60.25    4.54
   5   7  -6   65.69    5.01
  -5  -7   6   55.58    4.63
  -5  -7   6   62.77    4.96
   5   7   6   61.04    5.03
  -5   7  -6   51.86    4.79
  -6   7   6   24.19    2.68
   6   7  -6   24.30    2.63
  -6  -7   6   21.19    2.37
  -6   7  -6   22.30    2.63
   6   7   6   31.05    3.15
  -6  -7   6   23.09    2.69
   7   7  -6    3.31    1.54
  -7   7   6    3.68    2.01
  -7   7  -6    1.75    1.79
  -7  -7   6    4.68    1.95
   7   7   6    3.19    1.72
   8   7  -6   11.01    2.04
  -8   7   6   10.35    2.59
   8   7   6    9.23    2.08
  -8   7  -6   11.48    2.43
  -8  -7   6   14.82    2.50
   9   7  -6    1.66    1.65
  -9   7   6   -0.67    2.63
  -9   7  -6    0.11    2.32
  -9  -7   6    6.39    2.39
   9   7   6    3.78    1.81
   0   8  -6  175.06   11.70
   0   8   6  175.63   12.32
   0   8   6  171.51   11.87
   0   8  -6  177.76   12.32
  -1   8   6   41.04    3.40
  -1   8   6   38.13    3.43
   1   8  -6   42.76    3.56
  -1   8  -6   40.95    3.49
  -1   8  -6   44.85    3.08
   1   8   6   42.14    3.39
   1   8   6   44.58    3.65
  -2   8   6    3.08    1.14
  -2   8   6    2.53    0.83
   2   8  -6    2.53    1.11
   2   8   6    1.31    1.07
  -2   8  -6   -0.02    1.04
   2   8   6    2.53    1.09
  -3   8   6   63.76    5.52
   3   8  -6   71.24    5.76
  -3   8   6   68.76    5.45
  -3   8  -6   75.98    5.68
   3   8   6   79.50    5.52
   3   8   6   92.54    5.97
  -3  -8   6   76.19    5.65
   4  -8   6   76.83    5.67
  -4   8   6   73.75    5.67
   4   8  -6   76.44    5.82
   4   8   6   72.21    5.63
  -4  -8   6   72.15    5.60
  -4   8  -6   72.15    5.78
   4   8   6   78.19    5.96
   5  -8   6   27.41    2.60
  -5   8   6   28.09    2.79
   5   8  -6   24.90    2.78
  -5   8  -6   24.69    2.73
   5   8   6   28.65    2.88
  -5  -8   6   29.59    2.92
   6   8  -6   10.40    2.07
  -6   8   6    8.82    2.18
  -6   8  -6   15.00    2.23
  -6  -8   6   18.02    2.03
   6   8   6   20.23    2.33
  -6  -8   6   15.08    2.26
   7   8  -6    4.09    1.69
  -7   8   6    4.36    2.15
  -7   8  -6    3.27    1.95
  -7  -8   6    7.70    2.02
   7   8   6    3.54    1.76
  -8   8   6   -0.83    2.24
   8   8  -6    2.71    1.76
   8   8   6    5.79    1.85
  -8  -8   6    7.07    2.26
  -8   8  -6    5.24    2.23
  -9   8   6    1.74    2.69
   9   8  -6    3.65    1.86
   9   8   6    4.19    1.84
  -9  -8   6    8.59    2.49
  -9   8  -6    3.08    2.49
   0   9  -6   65.33    5.26
   0   9   6   69.56    5.11
   0   9  -6   70.46    4.86
   0   9   6   67.76    5.29
  -1   9   6   53.34    4.03
  -1   9   6   51.40    3.99
   1   9  -6   53.43    4.10
  -1   9  -6   43.67    4.03
   1   9   6   46.60    3.89
   1   9   6   51.44    4.30
  -2   9   6   38.00    3.10
   2   9  -6   36.19    3.21
  -2   9   6   33.51    3.22
  -2   9  -6   31.80    3.24
   2   9   6   31.52    3.10
   2   9   6   35.75    3.45
   3   9  -6    0.83    1.24
  -3   9   6    2.70    1.01
  -3   9   6    2.63    1.39
  -3  -9   6    2.22    1.41
   3   9   6    1.32    1.27
   3   9   6    3.61    1.38
  -3   9  -6    0.18    1.28
  -4   9   6   16.91    2.07
   4   9  -6   13.22    1.96
  -4   9  -6   14.29    1.99
  -4  -9   6   12.96    2.00
   4   9   6   16.76    2.15
   4   9   6   14.03    1.99
   5   9  -6   18.42    2.49
  -5   9   6   19.87    2.50
   5  -9   6   21.72    2.39
   5   9   6   25.04    2.64
  -5  -9   6   21.62    2.40
  -5   9  -6   19.95    2.46
  -6   9   6   23.81    3.00
   6   9  -6   23.95    3.02
  -6  -9   6   29.54    3.10
  -6   9  -6   29.02    3.07
   6   9   6   32.83    3.49
  -6  -9   6   28.83    3.02
  -7   9   6    0.82    2.09
   7   9  -6    2.23    1.72
   7   9   6    2.16    1.68
  -7   9  -6    2.46    1.96
  -7  -9   6    2.70    2.02
  -8   9   6    7.73    2.69
   8   9  -6    4.48    1.90
  -8  -9   6    7.12    2.34
  -8   9  -6    6.30    2.38
   8   9   6    5.65    1.95
  -9   9   6    5.60    2.94
   9   9  -6    5.00    2.00
   9   9   6    6.01    1.96
  -9   9  -6    3.45    2.65
  -9  -9   6    6.89    2.50
   0  10   6   21.54    2.21
   0  10  -6   24.34    2.59
   0  10   6   20.67    2.22
   1  10  -6   11.82    1.68
  -1  10   6   14.25    1.64
  -1  10   6   13.55    1.67
  -1  10  -6    5.65    1.58
   1  10   6    8.81    1.55
   1  10   6   12.63    1.78
   2  10  -6    5.76    1.49
  -2  10   6    6.18    1.30
  -2  10   6    7.41    1.56
  -2  10  -6    6.85    1.55
   2  10   6    7.90    1.57
   2  10   6    9.37    1.67
  -3  10   6   22.62    2.32
   3  10  -6   17.19    2.24
   3  10   6   22.98    2.51
  -3  10  -6   20.13    2.30
   3  10   6   17.44    2.16
  -4  10   6   17.14    2.26
   4  10  -6   11.94    2.09
  -4  10  -6   16.69    2.23
   4  10   6   18.88    2.34
  -4 -10   6   20.19    2.35
   4  10   6   18.58    2.20
   5 -10   6   11.30    1.98
   5  10  -6    7.05    1.89
  -5  10   6   10.87    2.10
  -5  10  -6    9.64    1.99
  -5 -10   6   11.26    1.96
   5  10   6   10.23    1.99
   6  10  -6    3.21    1.73
  -6  10   6    4.86    2.05
  -6 -10   6    4.20    1.90
  -6  10  -6    2.30    1.84
   6  10   6    0.37    1.63
  -6 -10   6    2.34    1.61
  -7  10   6   13.54    2.66
   7  10  -6   10.60    2.23
   7  10   6   12.40    2.20
  -7 -10   6   13.56    2.51
  -7  10  -6    7.30    2.32
  -8  10   6    2.43    2.57
   8  10  -6    4.80    1.97
  -8 -10   6    3.91    2.36
   8  10   6    3.95    2.01
  -8  10  -6    2.14    2.34
   0  11  -6    1.49    1.39
   0  11   6    1.37    1.24
   0  11   6    2.97    1.33
  -1  11   6   21.55    2.20
  -1  11   6   22.40    2.25
   1  11  -6   18.48    2.17
  -1  11  -6   15.35    2.14
   1  11   6   16.46    2.05
   1  11   6   17.69    2.33
  -2  11   6    6.78    1.46
  -2  11   6    4.88    1.56
   2  11  -6    6.85    1.58
   2  11   6    5.25    1.53
   2  11   6    3.91    1.60
  -2  11  -6    4.43    1.55
   3  11  -6    8.47    1.74
  -3  11   6    7.91    1.79
   3  11   6    2.68    1.51
  -3  11  -6    5.50    1.68
   3  11   6    5.60    1.75
   4  11  -6   10.47    2.06
  -4  11   6   13.42    2.20
   4  11   6   17.49    2.37
   4  11   6   15.10    2.15
  -4 -11   6   15.66    2.29
  -4  11  -6   14.90    2.22
   5  11  -6    8.76    2.03
   5 -11   6    8.82    2.05
  -5  11   6   10.00    2.23
  -5 -11   6    8.07    1.99
   5  11   6   12.60    2.17
  -5  11  -6    9.72    2.10
   6  11  -6   10.05    2.21
  -6  11   6   11.31    2.50
  -6  11  -6    9.38    2.30
   6  11   6   11.20    2.17
  -6 -11   6   11.13    2.07
   7  11  -6    2.20    1.93
  -7  11   6    0.04    2.33
  -7  11  -6    3.25    2.19
  -7 -11   6    5.32    2.22
   7  11   6    5.38    1.96
   8  11   6    4.63    1.97
   0  12   6    7.38    1.72
   0  12  -6    7.70    1.73
   0  12   6    6.71    1.62
  -1  12   6    2.50    1.50
  -1  12   6    1.41    1.52
   1  12  -6    0.39    1.37
  -1  12  -6    1.38    1.46
   1  12   6    2.79    1.60
   1  12   6    2.17    1.45
  -2  12   6   -0.64    1.53
   2  12  -6    0.87    1.42
  -2  12  -6   -1.21    1.50
   2  12   6    1.26    1.44
   2  12   6   -1.48    1.49
  -3  12   6    9.44    2.05
   3  12  -6   10.64    2.06
   3  12   6   14.85    2.35
   3  12   6   14.09    2.02
  -3  12  -6   14.19    2.18
   4  12  -6    2.92    1.74
  -4  12   6    8.04    2.10
  -4 -12   6    8.87    2.10
   4  12   6    8.19    1.94
  -4  12  -6    7.44    2.01
   4  12   6   14.41    2.29
  -5  12   6    2.31    2.02
   5  12  -6    3.20    1.85
   5 -12   6    2.43    1.94
  -5 -12   6    1.76    1.81
  -5  12  -6   -1.16    1.87
   5  12   6    3.35    1.88
  -6  12   6    1.73    2.25
   6  12  -6    0.21    1.84
  -6  12  -6   -2.75    1.95
   6  12   6    3.08    1.89
  -6 -12   6    0.82    1.76
   7  12  -6    4.72    2.15
  -7  12   6    3.45    2.60
   7  12   6   10.19    2.29
  -7  12  -6    7.41    2.51
   0  13   6    0.28    1.47
   0  13  -6    0.50    1.51
   0  13   6   -0.69    1.56
   1  13  -6    7.20    1.85
  -1  13   6    5.65    1.76
   1  13   6   11.98    1.90
   1  13   6   15.95    2.29
  -1  13  -6   10.60    2.00
   2  13  -6   13.72    2.13
  -2  13   6   19.37    2.32
   2  13   6   16.12    2.47
   2  13   6   11.25    1.99
  -2  13  -6    9.51    2.11
   3  13  -6    4.10    1.74
  -3  13   6    3.88    1.90
  -3  13  -6    7.31    2.01
   3  13   6   10.24    2.23
   3  13   6    4.90    1.79
  -4  13   6    0.54    1.95
   4  13  -6    0.88    1.68
   4  13   6    2.33    1.96
  -4  13  -6    3.76    1.98
   4  13   6    1.02    1.80
  -4 -13   6    1.28    2.00
   5  13  -6   -0.90    1.82
  -5  13   6    1.61    2.18
  -5  13  -6    4.10    2.08
   5  13   6    3.67    2.05
  -5 -13   6    2.87    1.98
  -6  13   6    6.54    2.58
   6  13  -6    5.20    2.19
  -6  13  -6    8.02    2.53
  -6 -13   6    8.19    2.17
   6  13   6   10.51    2.35
   0  14  -6    1.17    1.60
   0  14   6    1.48    1.66
  -1  14   6    4.03    1.75
   1  14  -6    1.21    1.65
  -1  14  -6    0.65    1.75
   1  14   6    1.30    1.67
   1  14   6    5.21    2.12
   2  14  -6    6.51    1.90
  -2  14   6    7.86    2.13
  -2  14  -6    4.10    1.96
   2  14   6    3.85    1.82
   2  14   6    6.20    2.21
  -3  14   6    9.92    2.26
   3  14  -6    7.78    2.02
   3  14   6    4.90    1.95
  -3  14  -6    6.96    2.12
   3  14   6    6.26    2.29
  -3 -14   6    7.98    2.37
  -4  14   6   19.34    2.73
   4  14  -6   12.57    2.51
  -4 -14   6   16.01    2.77
   4  14   6   16.19    2.48
   4  14   6   17.26    2.86
  -4  14  -6   15.13    2.69
  -5  14   6   -1.19    2.20
   5  14  -6    0.21    1.92
  -5 -14   6    4.90    2.21
  -5  14  -6   -2.60    2.10
   5  14   6   -0.59    2.04
   0  15  -6    5.49    2.00
   0  15   6    9.19    2.07
   1  15  -6    0.31    1.73
  -1  15   6   -1.48    1.72
   1  15   6    1.86    2.14
   1  15   6    0.54    1.76
  -1  15  -6   -0.44    1.78
   2  15  -6    5.70    2.05
  -2  15   6    6.35    2.04
  -2  15  -6    8.39    2.31
   2  15   6   13.97    2.68
   2  15   6   11.46    2.15
   3  15  -6    1.11    1.86
  -3  15   6    4.52    2.26
  -3  15  -6    4.98    2.19
   3  15   6    7.61    2.48
   3  15   6    3.18    2.04
  -3 -15   6    7.06    2.52
  -1   0  -7  275.80   19.50
  -1   0   7  279.81   18.82
   1   0  -7  281.20   19.45
   1   0   7  287.57   18.78
  -1   0   7  291.86   18.81
   1   0   7  288.43   18.78
  -2   0   7  577.78   37.65
   2   0   7  572.81   37.50
  -2   0   7  584.34   37.58
   2   0  -7  527.93   38.99
   2   0   7  580.96   39.10
   2   0   7  579.48   37.64
  -3   0   7  100.03    6.79
   3   0   7  100.29    7.03
  -3   0   7  101.61    6.79
   3   0   7   99.33    6.63
   3   0  -7   93.41    6.93
   4   0   7   76.83    4.98
  -4   0   7   69.94    5.17
   4   0  -7   69.55    5.29
   4   0   7   72.90    5.43
  -4   0   7   77.56    5.33
   5   0  -7   30.84    2.76
   5   0   7   32.50    3.02
  -5   0   7   31.13    2.67
   5   0   7   32.60    2.32
  -5   0   7   30.09    3.07
  -6   0   7    8.39    1.19
  -6   0  -7    7.07    1.66
  -6   0   7   10.54    1.81
   6   0   7    8.70    1.68
   6   0  -7    7.12    1.29
  -7   0   7   24.20    2.89
   7   0   7   27.37    2.98
   7   0  -7   25.41    2.71
  -7   0  -7   26.48    2.90
   8   0   7   34.83    3.67
   8   0  -7   27.29    3.20
  -8   0   7   29.93    3.47
  -8   0  -7   33.53    3.40
   9   0   7   -2.97    2.21
  -9   0  -7    3.69    2.11
  -9   0   7    0.40    2.34
  10   0   7   13.89    3.31
 -10   0  -7   14.54    2.85
 -10   0   7   16.82    3.27
 -10   0  -7    8.71    2.89
   0  -1   7   11.99    1.25
   0  -1  -7   11.23    0.93
   0   1   7    9.78    1.06
   0   1   7    9.82    1.01
   0   1  -7   11.75    1.04
   0  -1   7   11.60    0.95
   1  -1   7  102.93    7.21
   1  -1   7  101.22    7.31
  -1   1   7  100.93    7.33
   1   1  -7   97.66    7.50
  -1   1   7   98.46    7.29
  -1  -1   7  118.26    7.26
  -1  -1   7  115.58    7.38
   1   1   7  117.52    7.30
  -1   1  -7  115.66    7.56
   1   1   7  113.26    7.55
   1   1   7  113.31    7.28
  -2   1   7    7.10    0.83
   2   1  -7    6.39    0.69
   2  -1   7    6.38    0.79
  -2   1   7    6.92    0.89
  -2   1  -7    5.73    0.80
  -2  -1   7    7.19    0.98
   2   1   7    7.10    0.84
   2   1   7    6.78    0.75
   2   1   7    6.78    0.77
  -2  -1   7    7.59    0.79
  -3   1   7   26.16    2.26
  -3   1   7   25.18    2.20
   3  -1   7   27.92    2.03
   3   1  -7   26.53    2.16
   3   1   7   25.20    2.24
  -3  -1   7   24.85    2.21
   3  -1  -7   23.67    1.95
   3   1   7   28.36    1.99
  -3  -1   7   26.85    2.25
  -3   1  -7   24.40    2.22
  -4   1   7  195.57   12.75
  -4   1   7  195.60   12.66
   4  -1   7  192.49   13.23
   4   1  -7  194.73   13.15
   4  -1   7  199.02   12.49
   4  -1  -7  174.12   13.02
   4   1   7  188.13   13.27
  -4  -1   7  182.84   12.66
  -4   1  -7  185.47   13.21
  -4  -1   7  186.68   12.77
   4   1   7  180.72   12.48
  -5   1   7   99.60    7.40
   5   1  -7  107.21    7.72
   5  -1   7  105.27    7.17
   5  -1   7  105.92    7.85
   5   1   7  114.47    7.94
   5  -1  -7  106.81    7.61
  -5   1  -7  106.29    7.66
  -5  -1   7  113.02    7.44
  -5  -1   7  111.15    7.70
  -6   1   7    6.98    1.10
   6   1  -7    7.28    1.24
   6  -1   7    7.32    1.55
  -6   1   7    5.08    1.58
  -6  -1   7    4.52    1.04
   6   1   7    4.10    1.56
   6  -1  -7    4.32    1.11
  -6   1  -7    3.21    1.47
  -6  -1   7    4.96    1.63
  -7   1   7    0.88    1.70
  -7  -1  -7    1.44    1.63
   7  -1   7    1.15    1.62
   7   1  -7    1.70    1.22
  -7   1  -7    0.01    1.55
   7   1   7    0.14    1.70
  -7  -1   7    0.51    1.74
  -7   1  -7   -0.81    1.57
   7  -1  -7    0.05    1.07
   8  -1   7   21.88    3.04
   8   1  -7   25.32    2.59
  -8   1   7   21.43    3.02
  -8  -1  -7   24.46    2.94
  -8  -1   7   23.15    3.06
  -8   1  -7   24.04    3.00
   8   1   7   20.87    3.04
  -8   1  -7   19.68    2.80
  -9   1   7   14.30    2.96
  -9  -1  -7   16.38    2.77
  -9  -1   7   17.39    3.06
   9   1   7   19.76    3.09
  -9   1  -7   18.61    2.86
  -9   1  -7   16.24    2.97
 -10   1   7    3.66    2.72
 -10  -1  -7    8.60    2.54
 -10   1  -7    4.36    2.49
  10   1   7    0.28    2.69
 -10  -1   7    5.32    2.74
 -10   1  -7    2.17    2.59
   0   2  -7   12.64    1.17
   0   2   7   12.14    1.27
   0   2   7   11.52    1.03
   0  -2   7   13.42    0.95
   0   2   7   11.25    1.14
   0  -2   7   11.76    1.21
   1   2  -7  256.44   16.10
  -1   2   7  251.77   15.56
   1  -2   7  258.96   15.57
  -1   2   7  259.46   15.57
  -1   2  -7  222.13   16.12
   1   2   7  221.32   15.50
  -1  -2   7  217.28   15.47
  -1  -2   7  221.82   15.59
   1   2   7  215.46   15.53
   1   2   7  217.61   16.10
  -2   2   7  278.56   18.03
   2  -2   7  270.97   17.98
  -2   2   7  264.78   18.05
   2   2  -7  269.19   18.67
  -2  -2   7  268.05   18.06
  -2  -2   7  272.59   18.01
   2   2   7  272.72   18.74
   2   2   7  274.67   17.95
   2   2   7  268.65   18.02
  -2   2  -7  273.89   18.72
  -3   2   7  112.94    8.31
   3   2  -7  105.26    8.53
   3  -2   7  114.04    8.17
  -3   2   7  116.39    8.30
   3   2   7  128.04    8.17
  -3  -2   7  129.29    8.35
   3   2   7  124.32    8.30
  -3   2  -7  131.65    8.27
   3   2   7  127.29    8.69
  -3   2  -7  126.33    8.60
  -3  -2   7  126.31    8.35
   4   2  -7    9.13    1.21
  -4   2   7    9.74    1.25
  -4   2   7    8.21    1.27
   4  -2   7    9.35    0.99
   4  -2  -7   10.53    1.12
  -4   2  -7   10.91    1.30
  -4   2  -7   10.95    1.33
   4   2   7   10.43    1.45
  -4  -2   7   11.15    1.33
  -4  -2   7   11.37    1.43
   5   2  -7   50.32    3.72
  -5   2   7   43.97    3.49
  -5   2   7   41.33    3.71
   5  -2   7   43.02    3.15
  -5   2  -7   44.26    3.76
  -5  -2   7   46.00    3.93
   5  -2  -7   44.63    3.39
  -5  -2   7   45.76    3.54
  -5   2  -7   45.02    3.71
   5   2   7   46.08    3.90
   6   2  -7   17.15    1.77
  -6   2   7   14.08    1.97
  -6   2   7   15.52    1.59
   6   2   7   14.22    2.15
  -6  -2   7   15.48    1.61
   6  -2  -7   14.02    1.55
  -6   2  -7   12.59    1.89
  -6  -2   7   11.81    2.04
  -6   2  -7   13.55    1.94
  -7   2   7   62.67    4.81
   7   2   7   54.58    4.93
  -7   2  -7   45.95    4.74
  -7  -2   7   48.67    4.84
  -7   2  -7   54.16    4.85
   8   2  -7   13.18    1.96
  -8   2   7   11.53    2.41
  -8  -2  -7    9.46    2.24
  -8  -2   7    9.56    2.44
  -8   2  -7   10.73    2.24
   8   2   7   12.53    2.51
  -8   2  -7   11.02    2.35
   9   2  -7    7.63    1.86
  -9  -2  -7    7.45    2.32
  -9   2   7    4.43    2.47
  -9   2  -7    6.27    2.40
  -9   2  -7    6.23    2.34
   9   2   7    6.02    2.45
  -9  -2   7    4.25    2.45
 -10   2   7    1.34    2.71
 -10  -2  -7    2.84    2.37
 -10   2  -7    1.60    2.51
 -10  -2   7    3.29    2.57
 -10   2  -7    5.95    2.58
  10   2   7    4.05    2.59
   0   3   7  285.19   19.30
   0   3  -7  286.81   20.01
   0  -3   7  292.50   19.34
   0   3   7  298.89   19.97
   1  -3   7  225.18   14.20
  -1   3   7  227.63   14.18
   1   3  -7  229.74   14.68
  -1   3   7  229.36   14.18
   1   3   7  202.01   14.70
   1   3   7  201.58   14.16
   1   3   7  202.35   14.12
  -1   3  -7  205.21   14.69
  -1  -3   7  199.79   14.22
  -1  -3   7  203.36   14.07
   2  -3   7  114.36    7.62
  -2   3   7  116.07    7.64
  -2   3   7  113.64    7.64
   2   3  -7  114.62    7.85
   2   3   7  110.27    7.60
  -2   3  -7  109.39    7.90
  -2  -3   7  112.46    7.72
   2   3   7  108.62    7.53
   2   3   7  111.81    7.97
  -2  -3   7  108.63    7.59
   3   3  -7    9.02    1.07
   3  -3   7   10.20    1.05
  -3   3   7   11.07    1.19
  -3   3   7   12.11    1.23
   3   3   7    5.83    1.20
  -3  -3   7    7.97    1.18
   3   3   7    8.42    1.11
  -3  -3   7    7.49    1.23
  -3   3  -7    9.52    0.92
  -3   3  -7    8.97    1.15
  -4   3   7   12.13    1.26
  -4   3   7   10.52    1.49
   4  -3   7   10.92    1.19
   4   3  -7   10.03    1.39
  -4   3   7   11.55    1.41
  -4  -3   7   19.42    1.74
   4   3   7   17.96    1.81
  -4  -3   7   16.21    1.60
  -4   3  -7   17.37    1.60
  -5   3   7   39.91    3.77
   5  -3   7   42.51    3.25
  -5   3   7   44.47    3.41
  -5   3   7   41.59    3.55
   5   3  -7   46.79    3.76
  -5   3  -7   46.17    3.68
  -5  -3   7   49.76    4.03
  -5  -3   7   45.75    3.59
  -5   3  -7   52.48    3.89
   5   3   7   49.24    4.10
   6   3  -7   15.63    1.89
  -6   3   7   17.19    2.15
   6   3   7   19.52    2.40
  -6  -3   7   16.66    1.82
  -6  -3   7   18.74    2.30
  -6   3  -7   14.21    2.05
  -6   3  -7   17.91    1.99
  -7   3   7   11.10    2.16
   7   3  -7   11.57    1.68
  -7   3  -7    9.93    2.04
  -7   3  -7   11.18    1.94
  -7  -3   7   11.19    2.21
   7   3   7   10.44    2.16
  -8   3   7    3.51    2.12
   8   3  -7    3.58    1.51
  -8  -3   7    3.72    2.11
  -8   3  -7   -0.04    1.86
  -8   3  -7    3.87    2.04
   8   3   7    3.88    2.09
   9   3  -7   10.80    2.01
  -9  -3  -7   12.71    2.57
  -9   3   7    9.48    2.73
  -9   3  -7    5.56    2.48
  -9   3  -7    5.35    2.38
  -9  -3   7    8.47    2.56
   9   3   7    8.24    2.49
 -10   3   7    6.37    3.04
 -10  -3  -7    9.63    2.65
 -10   3  -7    9.79    2.97
 -10  -3   7    9.81    2.77
  10   3   7   10.53    2.85
 -10   3  -7    7.71    2.72
   0  -4   7   57.78    4.16
   0   4  -7   58.26    4.12
   0   4   7   52.88    3.99
   0   4   7   55.60    4.10
   1   4  -7  109.79    8.30
  -1   4   7  108.36    8.05
  -1   4   7  111.93    8.05
   1  -4   7  112.70    8.13
  -1   4   7   99.53    8.22
  -1   4  -7  128.02    8.35
  -1  -4   7  128.03    8.20
   1   4   7  132.51    8.07
  -1  -4   7  130.61    7.96
   1   4   7  126.73    8.40
  -2   4   7   48.77    3.15
   2   4  -7   46.84    3.11
   2  -4   7   48.21    3.13
  -2   4   7   48.15    3.15
  -2  -4   7   34.64    3.06
   2   4   7   35.37    3.29
   2   4   7   34.83    3.04
  -2  -4   7   33.13    3.20
  -2   4  -7   34.17    3.12
   3  -4   7   62.49    4.65
  -3   4   7   64.53    4.77
  -3   4   7   62.34    4.56
   3   4  -7   66.07    4.88
  -3  -4   7   67.25    4.84
  -3   4  -7   69.43    4.89
  -3   4  -7   66.25    4.47
   3   4   7   67.92    5.10
  -3  -4   7   60.68    4.80
   3   4   7   70.28    4.73
   4  -4   7   30.78    2.58
  -4   4   7   31.72    2.46
  -4   4   7   31.93    2.98
   4   4  -7   33.69    2.96
  -4   4  -7   34.74    2.61
   4   4   7   33.86    3.19
  -4   4  -7   32.76    2.87
  -4  -4   7   32.12    3.07
  -4  -4   7   33.35    2.92
   5   4  -7   29.85    2.86
  -5   4   7   28.56    2.88
   5  -4   7   26.13    2.26
  -5   4   7   30.29    2.33
  -5   4  -7   28.25    2.61
  -5  -4   7   24.34    2.70
  -5  -4   7   26.01    2.71
   5   4   7   26.45    2.79
  -5   4  -7   24.07    2.74
  -6   4   7   92.96    7.20
   6   4  -7   95.22    7.28
  -6   4  -7   99.72    7.03
   6   4   7  107.60    7.64
  -6  -4   7  101.22    6.95
  -6  -4   7   89.85    7.31
  -6   4  -7   95.83    7.33
   7   4  -7   47.95    3.77
  -7   4   7   43.30    4.15
  -7   4  -7   33.26    3.86
  -7   4  -7   37.60    3.85
   7   4   7   38.13    4.10
  -7  -4   7   40.68    4.29
  -8   4   7    2.27    2.09
   8   4  -7    1.54    1.37
  -8   4  -7   -0.51    1.86
  -8  -4   7    3.13    2.07
   8   4   7    0.36    1.87
  -8   4  -7   -1.22    1.77
   9   4  -7    6.26    1.81
  -9   4   7    3.13    2.54
  -9  -4  -7    5.26    2.30
  -9  -4   7    8.21    2.40
  -9   4  -7    2.88    2.27
   9   4   7    0.84    2.18
  -9   4  -7    1.90    2.22
 -10  -4  -7    3.35    2.49
 -10   4   7   -1.70    2.78
 -10   4  -7   -0.07    2.58
  10   4   7   -1.21    2.26
 -10  -4   7    6.37    2.62
   0  -5   7   40.51    3.16
   0   5  -7   39.04    2.99
   0   5   7   36.90    2.89
   0   5   7   37.14    3.01
   1  -5   7   37.09    3.07
   1   5  -7   39.93    2.99
  -1   5   7   39.41    2.94
  -1   5   7   37.29    2.85
  -1   5  -7   37.80    2.99
  -1  -5   7   32.20    3.07
   1   5   7   34.32    3.09
  -1  -5   7   37.48    2.83
   1   5   7   38.63    2.94
   2   5  -7   34.70    2.94
  -2   5   7   29.59    2.63
  -2   5   7   32.10    2.89
   2  -5   7   31.25    2.95
  -2  -5   7   40.37    3.16
  -2   5  -7   39.65    2.93
   2   5   7   40.03    2.87
   2   5   7   42.32    3.17
  -2  -5   7   39.64    2.96
  -3   5   7   51.11    3.60
   3   5  -7   57.58    4.00
  -3   5   7   54.66    3.92
   3  -5   7   48.36    3.81
  -3  -5   7   43.49    3.99
   3   5   7   51.54    3.83
   3   5   7   49.01    4.12
  -3   5  -7   49.35    3.51
  -3   5  -7   49.42    3.93
  -3  -5   7   46.95    3.96
  -4   5   7   41.65    3.69
   4   5  -7   42.62    3.76
   4  -5   7   44.03    3.44
  -4   5   7   43.25    3.30
  -4   5  -7   43.60    3.66
  -4  -5   7   42.92    3.87
   4   5   7   47.63    4.01
   4   5   7   48.84    3.64
  -4   5  -7   46.14    3.30
  -4  -5   7   47.94    3.71
   5  -5   7   79.18    5.32
   5   5  -7   87.82    5.89
  -5   5   7   80.47    5.66
  -5  -5   7   67.32    5.78
   5   5   7   73.58    6.04
  -5   5  -7   67.98    5.78
  -5   5  -7   70.79    5.34
  -5  -5   7   73.40    5.55
  -6   5   7   39.58    3.97
   6   5  -7   50.49    4.01
   6   5   7   43.56    4.15
  -6   5  -7   38.98    3.92
  -6  -5   7   46.12    3.71
  -6  -5   7   44.42    4.22
  -6   5  -7   41.53    3.65
   7   5  -7   21.35    2.40
  -7   5   7   21.85    2.71
  -7   5  -7   21.20    2.39
   7   5   7   20.41    2.70
  -7   5  -7   20.14    2.64
  -7  -5   7   24.32    2.85
  -8   5   7    8.22    2.40
   8   5  -7    9.44    1.77
  -8   5  -7    6.03    2.20
   8   5   7    5.09    2.05
  -8  -5   7    4.96    2.21
  -9   5   7   18.68    3.34
   9   5  -7   23.15    2.67
  -9  -5   7   21.06    3.04
  -9   5  -7   20.04    3.27
   9   5   7   18.41    2.98
  10   5  -7   16.14    2.48
 -10  -5  -7   10.92    2.95
 -10   5   7   15.75    3.45
 -10   5  -7   15.78    3.33
 -10  -5   7   19.94    3.07
  10   5   7   12.40    2.89
   0   6  -7   23.51    2.05
   0  -6   7   19.88    2.12
   0   6   7   21.08    2.09
   0   6   7   19.76    2.12
   1   6  -7   56.89    3.97
  -1   6   7   49.99    3.86
   1  -6   7   49.99    4.12
  -1   6   7   55.42    3.91
  -1  -6   7   48.63    4.08
  -1   6  -7   50.49    3.97
   1   6   7   49.69    4.10
   1   6   7   52.97    3.84
   2  -6   7   85.73    6.56
  -2   6   7   82.96    6.43
  -2   6   7   85.19    6.44
   2   6  -7   89.33    6.65
  -2   6  -7   99.66    6.66
   2   6   7  102.94    6.45
  -2  -6   7   94.10    6.61
   2   6   7   95.95    6.80
  -3   6   7  180.42   12.47
   3   6  -7  196.12   12.74
  -3   6   7  194.87   12.30
   3  -6   7  199.37   12.30
  -3  -6   7  174.60   12.35
   3   6   7  173.78   12.83
  -3   6  -7  170.55   11.99
  -3   6  -7  168.49   12.68
  -3  -6   7  172.07   12.29
   3   6   7  177.97   12.24
   4   6  -7   63.51    4.62
  -4   6   7   56.80    4.48
   4  -6   7   59.51    4.32
   4   6   7   57.86    4.45
  -4  -6   7   53.57    4.65
  -4  -6   7   54.50    4.43
  -4   6  -7   50.11    4.46
   4   6   7   60.20    4.72
  -4   6  -7   53.56    4.03
   5  -6   7    1.17    0.99
  -5   6   7    1.45    1.37
   5   6  -7    2.25    1.22
  -5  -6   7    2.26    1.43
  -5   6  -7    2.21    0.96
   5   6   7    2.53    1.38
  -5  -6   7    2.16    1.24
  -5   6  -7    0.09    1.24
   6   6  -7   18.47    2.32
  -6   6   7   20.86    2.51
  -6  -6   7   20.99    2.20
   6   6   7   19.96    2.52
  -6   6  -7   20.02    2.41
  -6  -6   7   22.85    2.58
  -7   6   7   26.00    3.21
   7   6  -7   26.59    2.96
  -7   6  -7   28.09    3.20
   7   6   7   36.73    3.65
  -7  -6   7   38.48    3.43
  -8   6   7    1.87    2.22
   8   6  -7    0.19    1.45
  -8   6  -7   -1.73    1.90
  -8  -6   7    2.32    2.06
   8   6   7    4.45    1.77
   9   6  -7    8.23    1.89
  -9   6   7    7.59    2.80
   9   6   7    7.83    2.32
  -9  -6   7   10.67    2.53
  -9   6  -7    2.15    2.47
 -10   6   7    2.66    3.06
 -10  -6  -7    4.22    2.69
  10   6  -7    2.46    1.82
 -10   6  -7   -0.63    2.66
  10   6   7    1.32    2.20
   0  -7   7  105.83    7.91
   0   7   7  110.64    7.70
   0   7   7  115.22    8.00
   0   7  -7  112.37    7.97
  -1   7   7   71.84    5.71
   1   7  -7   78.72    5.82
  -1   7   7   74.81    5.66
   1  -7   7   73.58    5.84
   1   7   7   82.32    5.63
  -1  -7   7   79.37    5.90
  -1   7  -7   86.65    5.88
   1   7   7   84.70    5.97
   2  -7   7   31.56    3.02
  -2   7   7   34.14    2.84
  -2   7   7   30.87    2.50
   2   7  -7   33.33    2.77
  -2   7  -7   26.40    2.71
  -2  -7   7   27.23    2.92
   2   7   7   29.40    2.63
   2   7   7   27.91    2.98
   3   7  -7   19.23    1.99
   3  -7   7   17.83    2.05
  -3   7   7   15.04    1.81
  -3   7   7   16.59    1.94
  -3   7  -7   18.24    1.96
  -3  -7   7   20.77    2.15
   3   7   7   19.03    1.94
   3   7   7   22.65    2.16
  -4   7   7   28.11    2.65
  -4   7  -7   16.89    2.08
   4   7   7   17.59    2.17
  -4  -7   7   18.15    2.16
   4   7   7   17.13    2.05
  -4  -7   7   19.66    2.13
  -5   7   7   22.28    2.64
   5  -7   7   24.00    2.39
   5   7  -7   21.82    2.62
   5   7   7   33.72    3.24
  -5  -7   7   35.18    2.92
   6   7  -7    6.26    1.67
  -6   7   7    6.95    1.92
   6   7   7    8.21    1.80
  -6  -7   7    7.57    1.57
  -6  -7   7   11.74    2.01
  -6   7  -7    4.65    1.74
  -7   7   7   -0.63    1.92
   7   7  -7   -0.14    1.46
   7   7   7    1.43    1.62
  -7  -7   7    6.27    1.94
  -7   7  -7    1.69    1.79
   8   7  -7    2.35    1.67
  -8   7   7    0.59    2.36
  -8   7  -7    7.56    2.27
  -8  -7   7    8.36    2.28
   8   7   7    6.12    1.90
   9   7  -7   16.67    2.39
  -9   7   7   16.72    3.29
   9   7   7   11.93    2.45
  -9  -7   7   18.21    2.87
  -9   7  -7   15.59    3.06
   0   8   7   68.98    5.05
   0   8  -7   67.79    5.01
   0  -8   7   59.54    5.10
   0   8   7   63.99    4.87
  -1   8   7   61.57    4.64
  -1   8   7   54.91    4.57
   1   8  -7   60.82    4.70
  -1  -8   7   53.78    4.79
   1   8   7   63.34    4.87
  -1   8  -7   65.24    4.71
   1   8   7   63.31    4.56
  -2   8   7   47.93    3.93
  -2   8   7   47.82    3.77
   2   8  -7   51.02    3.98
   2  -8   7   44.90    4.10
  -2   8  -7   50.25    3.98
  -2  -8   7   48.51    4.15
   2   8   7   45.72    3.85
   2   8   7   52.78    4.21
   3   8  -7    4.62    1.33
  -3   8   7    4.18    1.36
   3  -8   7    3.94    1.44
   3   8   7    3.09    1.27
   3   8   7    4.43    1.32
  -3   8  -7    2.95    1.30
  -3  -8   7    2.21    1.37
   4  -8   7    3.85    1.45
   4   8  -7    6.04    1.47
  -4   8   7    4.47    1.54
   4   8   7   10.31    1.65
   4   8   7   10.40    1.69
  -4   8  -7    8.06    1.56
  -4  -8   7    8.95    1.62
   5  -8   7    8.36    1.54
  -5   8   7    8.78    1.82
   5   8  -7    7.51    1.70
   5   8   7    7.94    1.76
  -5  -8   7   11.40    1.84
  -5  -8   7    7.96    1.65
  -5   8  -7    5.50    1.65
  -6   8   7   12.76    2.26
   6   8  -7   12.60    2.07
   6   8   7   10.69    2.04
  -6  -8   7   12.58    2.20
  -6   8  -7   11.89    2.16
  -6  -8   7   14.31    1.96
   7   8  -7    9.58    2.10
  -7   8   7   10.52    2.49
  -7  -8   7   17.12    2.50
   7   8   7   17.07    2.45
  -7   8  -7   15.19    2.51
   8   8  -7   12.09    2.27
  -8   8   7   14.56    2.89
  -8   8  -7   13.36    2.76
   8   8   7   16.42    2.49
  -8  -8   7   16.78    2.68
   9   8  -7    1.39    1.80
  -9   8   7   -1.24    2.60
  -9  -8   7    7.53    2.41
   9   8   7    2.09    1.82
  -9   8  -7    0.65    2.52
   0   9   7    6.85    1.38
   0   9  -7    6.23    1.32
   0   9   7    6.92    1.31
  -1   9   7    1.08    1.19
   1   9  -7    2.63    1.24
  -1   9   7    2.83    1.04
  -1   9  -7    5.25    1.27
   1   9   7    5.61    1.29
   1   9   7    5.93    1.33
  -2   9   7    9.56    1.29
  -2   9   7    9.99    1.60
   2   9  -7   10.63    1.60
   2   9   7    7.37    1.47
  -2   9  -7    5.01    1.46
   2   9   7    8.47    1.57
  -2  -9   7    8.29    1.75
   3  -9   7   10.52    1.99
   3   9  -7   10.66    1.78
  -3   9   7   10.49    1.81
   3   9   7   14.70    1.87
  -3  -9   7   16.01    2.06
  -3   9  -7   14.23    1.92
   3   9   7   15.92    1.99
  -4   9   7   33.11    3.44
   4   9  -7   36.15    3.43
   4  -9   7   30.14    3.35
   4   9   7   33.61    3.55
  -4  -9   7   32.90    3.34
  -4   9  -7   29.74    3.35
   4   9   7   33.92    3.31
   5   9  -7   25.69    2.84
   5  -9   7   25.18    2.62
  -5   9   7   29.81    2.91
  -5  -9   7   24.58    2.69
  -5   9  -7   19.95    2.66
  -5  -9   7   26.81    2.79
   5   9   7   27.16    2.91
   6   9  -7   16.04    2.43
  -6   9   7   17.64    2.58
  -6  -9   7   20.82    2.53
   6   9   7   19.91    2.53
  -6   9  -7   16.20    2.48
  -6  -9   7   17.67    2.28
  -7   9   7   15.21    2.61
   7   9  -7    8.24    2.11
  -7  -9   7   14.43    2.45
  -7   9  -7   11.45    2.38
   7   9   7   11.33    2.19
  -8   9   7   26.91    3.49
   8   9  -7   25.42    3.04
  -8  -9   7   26.24    3.25
  -8   9  -7   25.67    3.34
   8   9   7   20.25    2.95
   0  10   7    1.48    1.16
   0  10   7    2.33    1.32
   0  10  -7    1.35    1.26
  -1  10   7   21.56    2.08
   1  10  -7   18.86    2.14
  -1  10   7   17.23    2.03
   1  10   7   19.02    2.21
  -1  10  -7   18.07    2.13
   1  10   7   17.10    2.05
   2  10  -7   34.13    3.34
  -2  10   7   33.98    3.31
   2  10   7   34.09    3.18
  -2 -10   7   33.37    3.45
  -2  10  -7   30.05    3.23
   2  10   7   35.67    3.62
   3  10  -7   13.43    1.94
  -3 -10   7   13.78    2.14
   3  10   7   15.22    2.11
  -3  10  -7   10.82    1.91
   3  10   7   12.67    1.86
   4 -10   7   10.32    2.01
   4  10  -7    9.31    1.80
  -4  10   7   10.02    1.97
   4  10   7   12.91    2.01
   4  10   7    7.65    1.80
  -4 -10   7    8.36    1.90
  -4  10  -7   11.14    1.94
   5  10  -7    7.99    1.96
   5 -10   7    8.34    1.89
  -5  10   7    8.94    2.14
   5  10   7   16.59    2.27
  -5 -10   7   12.19    2.01
  -5  10  -7    9.56    2.05
   6  10  -7   -0.07    1.64
  -6  10   7    3.09    2.01
   6  10   7    0.68    1.67
  -6  10  -7   -1.40    1.74
  -6 -10   7    0.20    1.53
  -6 -10   7    2.50    1.90
  -7  10   7    5.74    2.42
   7  10  -7    5.92    2.05
   7  10   7    3.48    1.87
  -7 -10   7    7.94    2.23
  -7  10  -7    2.02    2.09
  -8  10   7    6.64    2.77
   8  10  -7    9.78    2.24
  -8 -10   7    9.53    2.52
   8  10   7    7.48    2.12
  -8  10  -7    4.13    2.48
   0  11   7    3.59    1.39
   0  11   7    1.71    1.35
   0  11  -7    1.40    1.38
   1  11  -7   42.17    3.64
  -1  11   7   42.33    3.66
  -1  11   7   43.16    3.80
   1  11   7   36.14    4.02
  -1  11  -7   38.94    3.65
   1  11   7   33.93    3.43
  -2  11   7   19.13    2.16
   2  11  -7   14.65    2.08
  -2  11  -7   15.73    2.16
   2  11   7   17.29    2.30
  -2 -11   7   16.96    2.45
   2  11   7   17.07    2.10
  -3  11   7    3.57    1.74
   3  11  -7    2.61    1.55
  -3 -11   7    5.57    1.83
   3  11   7    3.03    1.53
   3  11   7    6.64    1.77
  -3  11  -7    3.86    1.63
   4 -11   7    8.50    2.13
  -4  11   7   10.62    2.11
   4  11  -7    6.89    1.82
   4  11   7   11.98    2.12
  -4  11  -7    7.91    1.97
   4  11   7   10.23    1.92
  -4 -11   7   10.59    2.07
  -5  11   7   18.62    2.64
   5 -11   7   15.84    2.44
   5  11  -7   11.97    2.40
  -5  11  -7   16.83    2.55
   5  11   7   24.20    2.75
  -5 -11   7   21.11    2.55
   6  11  -7    3.57    1.92
  -6  11   7    7.04    2.37
  -6 -11   7    9.18    2.13
  -6 -11   7    1.24    1.77
   6  11   7    7.58    2.04
  -6  11  -7    3.46    2.08
   7  11  -7   -0.25    1.87
  -7  11   7   -2.71    2.31
  -7 -11   7    1.79    2.14
  -7  11  -7   -1.07    2.06
   7  11   7    1.68    1.85
   0  12  -7   12.73    1.99
   0  12   7   13.17    2.08
   0  12   7   11.87    1.91
  -1  12   7    6.06    1.70
   1  12  -7    5.23    1.52
   1  12   7    3.87    1.56
  -1  12  -7    3.22    1.60
   1  12   7    3.53    1.66
  -2  12   7    6.30    1.77
   2  12  -7    3.99    1.57
   2  12   7    3.07    1.56
  -2 -12   7    5.33    2.01
  -2  12  -7    5.96    1.77
   2  12   7    4.70    1.81
  -3  12   7   14.68    2.25
   3  12  -7   13.69    2.19
  -3 -12   7   16.47    2.51
   3  12   7   14.59    2.10
  -3  12  -7   11.48    2.19
   3  12   7   18.02    2.45
   4  12  -7    9.17    2.03
  -4  12   7    7.06    2.25
   4 -12   7   11.98    2.44
   4  12   7   15.42    2.33
  -4 -12   7   12.74    2.32
   4  12   7   12.08    2.14
  -4  12  -7   13.28    2.29
  -5  12   7   20.50    2.83
   5  12  -7   17.32    2.63
  -5 -12   7   15.23    2.52
  -5  12  -7   17.87    2.70
   5  12   7   17.92    2.64
  -6  12   7   12.43    2.71
   6  12  -7    8.65    2.36
  -6  12  -7   14.00    2.63
   6  12   7   14.36    2.52
  -6 -12   7   15.86    2.42
  -7  12   7    8.70    2.77
   7  12  -7    8.51    2.32
  -7  12  -7    1.72    2.41
   7  12   7    5.21    2.10
   0  13   7   40.40    3.63
   0  13  -7   38.21    3.84
   1  13  -7   11.13    2.03
  -1  13   7   12.05    2.02
  -1  13  -7   12.96    2.22
   1  13   7   18.02    2.46
   1  13   7   12.78    2.01
   2  13  -7    4.81    1.72
  -2  13   7    2.82    1.85
   2  13   7    8.53    2.12
  -2 -13   7   11.45    2.41
   2  13   7    6.41    1.80
  -2  13  -7    6.09    1.87
   3  13  -7    3.90    1.74
  -3  13   7    4.61    1.93
   3  13   7    3.31    1.95
  -3  13  -7    1.95    1.83
  -3 -13   7    3.60    2.11
   3  13   7   -0.14    1.60
  -4  13   7    1.66    2.02
   4 -13   7    1.13    2.17
   4  13  -7    1.17    1.71
  -4 -13   7    4.36    2.06
   4  13   7    1.71    1.91
  -4  13  -7    0.40    1.90
   4  13   7    2.29    1.84
  -5  13   7    0.98    2.24
   5  13  -7    2.81    1.98
  -5 -13   7    3.33    1.98
  -5  13  -7    2.30    2.14
   5  13   7    3.90    2.11
  -6  13   7    0.01    2.35
   6  13  -7    2.03    2.00
   6  13   7    1.16    2.02
  -6 -13   7    2.12    2.01
  -6  13  -7   -0.40    2.24
   0  14   7    6.18    1.84
   0  14  -7    6.03    1.79
  -1  14   7    1.04    1.71
   1  14  -7    1.55    1.66
   1  14   7    1.00    1.72
  -1  14  -7    1.99    1.84
   1  14   7    0.79    1.92
   2  14  -7    0.91    1.66
  -2  14   7    5.85    2.04
  -2 -14   7    5.88    2.32
   2  14   7    5.49    1.86
   2  14   7    2.98    2.09
  -2  14  -7    3.16    1.92
   3  14  -7    2.62    1.83
   3 -14   7    4.41    2.51
  -3  14   7    4.31    2.08
   3  14   7    2.76    1.85
  -3  14  -7    1.64    1.99
   3  14   7    5.89    2.27
  -3 -14   7    3.70    2.26
   4  14  -7    2.06    1.86
   4 -14   7    7.53    2.61
  -4  14   7    3.85    2.22
   4  14   7    1.71    1.94
  -4 -14   7    5.48    2.28
  -4  14  -7    1.89    2.13
   4  14   7    0.66    2.09
   5  14  -7   -2.97    1.82
  -5  14   7   -1.93    2.29
   5  14   7    1.74    2.13
  -5  14  -7    0.33    2.20
  -5 -14   7   -2.24    1.95
   0  15   7    7.90    1.99
   0  15  -7    3.03    1.89
   0 -15   7    7.12    2.70
  -1  15   7    3.35    1.89
   1  15  -7    0.24    1.75
   1  15   7    0.36    1.81
  -1 -15   7    6.44    2.56
  -1  15  -7    1.89    1.84
   2 -15   7    5.45    2.79
  -2  15   7    8.71    2.13
   2  15  -7    3.40    1.99
   2  15   7   10.16    2.13
  -2 -15   7   12.48    2.79
  -2  15  -7   11.39    2.37
   2  15   7   15.25    2.77
   3 -15   7    2.83    2.70
  -3  15   7    6.36    2.29
   3  15  -7    1.94    1.84
  -3 -15   7    4.56    2.47
  -3  15  -7    2.85    2.18
   3  15   7    6.77    2.50
   3  15   7    6.24    2.09
   0   0   8  130.22    8.66
   0   0  -8  129.96    8.96
   0   0   8  128.85    8.74
  -1   0   8  383.00   25.19
   1   0   8  385.23   25.17
  -1   0  -8  377.68   26.14
   1   0  -8  374.73   26.08
   1   0   8  384.38   25.16
  -1   0   8  382.34   25.20
  -2   0   8    3.30    0.64
   2   0  -8    1.38    0.41
  -2   0  -8    2.61    0.61
   2   0   8    2.63    0.56
   2   0   8    2.77    0.65
   3   0   8  144.73    9.42
  -3   0   8  143.70    9.57
   3   0   8  147.27    9.93
  -3   0   8  140.28    9.56
   3   0  -8  129.86    9.78
  -4   0   8   13.07    1.50
   4   0  -8   17.18    1.41
  -4   0   8   15.80    1.62
   4   0   8   12.96    1.58
   4   0   8   13.11    1.40
   5   0  -8    9.33    1.21
  -5   0   8    9.40    1.54
  -5   0   8    8.43    1.28
   5   0   8   10.28    0.94
   5   0   8    9.51    1.54
   6   0  -8   10.46    1.39
  -6   0   8    7.61    1.28
   6   0   8    8.54    1.74
  -6   0   8   11.62    1.86
   7   0   8   12.02    2.26
  -7   0   8   12.73    2.28
   7   0  -8   14.65    1.75
  -7   0  -8    9.68    2.05
   8   0   8    0.53    2.00
  -8   0   8   -0.70    2.05
  -8   0  -8   -0.29    1.83
  -9   0  -8   16.53    3.07
  -9   0   8   19.24    3.15
   9   0   8   15.24    3.17
  -9   0  -8   20.59    2.88
 -10   0   8    3.31    2.76
  10   0   8   -3.76    2.69
 -10   0  -8    0.88    2.41
 -10   0  -8    2.57    2.50
   0  -1  -8    0.21    0.32
   0  -1   8    1.24    0.36
   0   1  -8    1.45    0.42
   0   1   8    0.54    0.55
   0  -1   8    0.28    0.59
   0   1   8    0.30    0.46
   1  -1   8    7.51    0.89
   1  -1   8    7.10    0.64
  -1   1   8    7.67    0.79
  -1   1   8    7.20    0.91
   1   1  -8    7.85    0.71
   1  -1  -8    6.36    0.63
   1   1   8    5.74    0.80
  -1  -1   8    6.67    0.96
   1   1   8    6.20    0.75
   1   1   8    6.30    0.73
  -1  -1   8    6.81    0.71
  -1   1  -8    6.13    0.77
  -2   1   8   37.19    3.20
   2   1  -8   40.77    3.08
   2  -1   8   39.88    3.08
  -2   1   8   40.35    3.16
  -2   1  -8   42.16    3.19
  -2  -1   8   45.23    3.08
   2   1   8   45.43    3.05
   2   1   8   43.22    3.20
   2   1   8   45.49    3.07
  -2  -1   8   43.75    3.26
   3   1  -8  312.45   20.53
   3  -1   8  327.92   19.71
  -3   1   8  336.81   19.88
  -3   1   8  319.50   19.83
  -3  -1   8  296.40   19.84
   3   1   8  285.83   19.68
  -3  -1   8  283.81   19.84
   3   1   8  280.92   20.60
  -3   1  -8  285.32   20.59
   3  -1  -8  255.90   20.41
   4  -1   8   12.33    1.31
  -4   1   8   13.67    1.45
   4   1  -8   12.82    1.32
  -4   1   8   13.51    1.49
   4  -1   8   14.01    1.52
   4   1   8   12.50    1.33
   4  -1  -8   11.52    1.28
  -4  -1   8   12.52    1.44
  -4   1  -8   11.23    1.45
   4   1   8   12.43    1.57
  -4  -1   8   12.86    1.50
  -5   1   8    6.40    1.41
   5   1  -8    8.46    1.17
   5  -1   8    6.72    1.38
   5  -1   8    6.25    0.81
  -5   1   8    7.68    1.22
  -5   1  -8    6.67    1.42
  -5  -1   8    7.26    1.46
  -5  -1   8    8.79    1.26
   5  -1  -8    9.31    1.05
   5   1   8    7.51    1.49
  -5   1  -8    7.04    1.35
   6  -1   8    5.79    1.59
  -6   1   8    6.55    1.62
   6   1  -8    7.63    1.28
  -6   1   8    4.77    1.14
  -6  -1   8    4.16    1.61
  -6   1  -8    3.69    1.48
   6  -1  -8    6.45    1.13
  -6   1  -8    5.51    1.56
  -6  -1   8    6.60    1.18
   6   1   8    6.28    1.73
  -7   1   8   39.87    4.27
  -7  -1  -8   45.21    4.20
   7   1  -8   45.13    3.95
   7  -1   8   47.83    4.33
  -7   1  -8   41.21    4.28
  -7  -1   8   41.72    4.42
  -7   1  -8   39.88    4.18
   7   1   8   51.23    4.44
   8  -1   8    2.23    2.12
  -8   1   8    3.11    2.17
  -8  -1  -8    4.57    2.00
  -8   1  -8    2.42    2.05
   8   1   8    1.95    2.03
  -8   1  -8    4.21    1.99
  -8  -1   8    2.06    2.16
  -9  -1  -8    1.73    2.12
  -9   1   8    1.32    2.37
  -9   1  -8   -0.82    2.28
  -9  -1   8    1.13    2.43
  -9   1  -8    1.92    2.17
   9   1   8   -0.62    2.31
 -10  -1  -8    9.78    2.59
 -10   1   8    6.63    2.89
 -10   1  -8    5.19    2.76
 -10  -1   8    7.36    2.91
  10   1   8    0.94    2.75
 -10   1  -8    5.53    2.54
   0  -2   8    5.49    0.87
   0  -2   8    6.35    0.67
   0   2   8    6.85    0.72
   0   2  -8    5.02    0.68
   0   2   8    5.27    0.80
   0   2   8    4.60    0.72
  -1   2   8  202.72   11.98
  -1   2   8  202.92   12.01
   1  -2   8  199.79   11.99
   1   2  -8  196.86   12.36
  -1   2  -8  167.09   12.38
   1   2   8  167.17   11.93
  -1  -2   8  165.89   11.86
  -1  -2   8  160.63   12.00
   1   2   8  163.35   11.92
   1   2   8  166.10   12.35
  -2   2   8   15.15    1.39
   2  -2   8   14.04    1.36
  -2   2   8   13.81    1.43
   2   2  -8   13.15    1.41
  -2  -2   8   15.88    1.56
  -2   2  -8   16.82    1.55
   2   2   8   16.48    1.54
   2   2   8   15.36    1.54
  -2  -2   8   14.56    1.46
   2   2   8   15.92    1.50
   3  -2   8  104.29    6.83
  -3   2   8  105.58    6.97
  -3   2   8  104.48    6.97
   3   2  -8   99.72    7.10
  -3  -2   8   98.34    7.01
  -3   2  -8   97.39    7.17
  -3  -2   8   96.95    6.93
   3   2   8  100.29    6.78
   3   2   8  101.32    6.93
   3   2   8   94.45    7.22
   4  -2   8   43.99    2.99
  -4   2   8   42.02    3.37
  -4   2   8   43.58    3.28
  -4   2   8   44.07    2.97
   4   2  -8   41.31    3.29
  -4  -2   8   36.69    3.28
  -4   2  -8   34.17    3.31
  -4   2  -8   37.50    3.32
   4   2   8   38.54    3.43
  -4  -2   8   38.95    3.38
   5  -2   8   64.08    4.22
  -5   2   8   62.18    4.77
  -5   2   8   64.42    4.57
   5   2  -8   64.53    4.67
   5   2   8   58.13    4.92
  -5   2  -8   59.65    4.71
   5  -2  -8   57.45    4.41
  -5   2  -8   56.24    4.75
  -5  -2   8   57.93    4.58
  -5  -2   8   62.99    4.95
  -6   2   8   32.42    3.43
  -6   2   8   31.35    2.91
   6   2  -8   31.28    3.09
  -6   2  -8   31.27    3.30
  -6   2  -8   32.33    3.48
  -6  -2   8   35.69    2.98
  -6  -2   8   33.39    3.18
   6   2   8   34.89    3.54
  -7   2   8   -3.02    1.60
   7   2  -8    0.91    1.16
  -7   2  -8   -1.61    1.50
  -7   2  -8   -0.41    1.57
   7   2   8   -0.55    1.70
  -7  -2   8   -2.83    1.71
  -8  -2  -8   21.08    2.87
  -8   2   8   20.32    2.96
   8   2  -8   23.76    2.55
  -8   2  -8   23.65    3.10
  -8  -2   8   21.31    3.07
  -8   2  -8   24.59    2.91
   8   2   8   22.17    3.13
  -9  -2  -8   21.32    2.92
  -9   2   8   21.75    3.25
  -9   2  -8   16.94    2.82
  -9   2  -8   15.48    3.00
  -9  -2   8   16.93    3.06
   9   2   8   17.27    3.07
 -10  -2  -8    7.07    2.55
 -10   2   8    3.23    2.89
 -10   2  -8    0.56    2.64
 -10  -2   8    2.29    2.66
 -10   2  -8    2.54    2.55
  10   2   8   -0.10    2.57
   0  -3   8   18.27    1.82
   0   3   8   17.33    1.46
   0   3   8   17.27    1.74
   0   3  -8   16.26    1.54
   0   3   8   19.19    1.66
   1   3  -8   49.16    3.41
  -1   3   8   52.06    3.46
   1  -3   8   52.02    3.51
  -1   3   8   53.51    3.41
   1   3   8   43.28    3.35
  -1   3  -8   44.67    3.44
   1   3   8   43.16    3.38
   1   3   8   42.06    3.43
  -1  -3   8   39.19    3.49
  -1  -3   8   44.72    3.19
  -2   3   8   30.42    2.59
   2   3  -8   30.38    2.43
  -2   3   8   28.65    2.50
   2  -3   8   28.34    2.45
  -2   3  -8   32.11    2.49
   2   3   8   32.52    2.42
   2   3   8   28.89    2.41
  -2  -3   8   29.25    2.40
   2   3   8   30.92    2.61
  -2  -3   8   30.48    2.62
  -3   3   8  137.94    9.13
   3   3  -8  135.15    9.37
   3  -3   8  134.19    8.99
  -3   3   8  137.22    9.10
  -3   3  -8  133.18    9.43
  -3  -3   8  134.19    9.10
   3   3   8  128.90    9.53
  -3  -3   8  134.14    9.19
  -3   3  -8  131.55    8.92
   3   3   8  125.83    9.05
  -4   3   8   10.56    1.49
  -4   3   8   10.44    1.39
   4  -3   8    9.64    1.15
  -4   3   8   12.23    1.09
   4   3  -8   11.04    1.35
  -4  -3   8   12.38    1.50
  -4   3  -8   11.84    1.27
  -4   3  -8   12.41    1.44
  -4  -3   8   11.61    1.51
  -5   3   8    9.21    1.38
  -5   3   8   11.51    1.63
   5  -3   8    9.41    1.05
   5   3  -8   12.01    1.44
   5   3   8    7.60    1.65
  -5   3  -8    8.39    1.50
  -5   3  -8    8.96    1.36
  -5  -3   8    9.63    1.68
  -5  -3   8    8.71    1.42
   6   3  -8   17.59    2.04
  -6   3   8   19.05    2.33
  -6  -3   8   19.81    2.05
  -6   3  -8   21.22    2.17
   6   3   8   21.67    2.57
  -6  -3   8   19.95    2.45
  -6   3  -8   20.22    2.35
   7   3  -8   60.60    4.64
  -7   3   8   58.88    4.97
   7   3   8   59.98    5.21
  -7   3  -8   53.58    4.92
  -7   3  -8   53.52    4.84
  -7  -3   8   49.82    5.12
  -8   3   8    5.38    2.24
   8   3  -8    7.53    1.63
  -8   3  -8    2.97    2.07
  -8   3  -8    6.52    2.04
   8   3   8    3.89    2.15
  -8  -3   8    5.08    2.26
  -9  -3  -8    7.54    2.42
  -9   3   8    3.35    2.47
  -9   3  -8    4.01    2.29
  -9   3  -8    2.83    2.41
  -9  -3   8    5.49    2.43
   9   3   8    2.04    2.32
 -10   3   8    5.46    2.96
 -10  -3  -8    7.07    2.61
  10   3   8    3.04    2.62
 -10  -3   8    6.04    2.70
 -10   3  -8    0.22    2.70
   0   4  -8  159.57   11.11
   0   4   8  160.79   10.73
   0   4   8  155.08   10.73
   0   4   8  161.81   11.07
  -1   4   8  207.20   15.26
  -1   4   8  201.31   14.85
   1  -4   8  217.19   14.92
  -1   4   8  208.33   14.85
   1   4  -8  200.02   15.36
  -1   4  -8  233.29   15.42
   1   4   8  232.90   14.87
  -1  -4   8  234.98   14.99
   1   4   8  239.66   14.84
   1   4   8  235.62   15.44
  -1  -4   8  237.90   14.74
  -2   4   8    2.62    0.84
   2   4  -8    2.85    0.76
  -2   4   8    3.04    0.89
   2  -4   8    1.95    0.84
  -2  -4   8    2.55    0.72
  -2  -4   8    2.98    1.02
   2   4   8    3.34    0.82
  -2   4  -8    3.16    0.84
   2   4   8    3.94    0.94
  -3   4   8   21.58    2.05
  -3   4   8   21.28    2.04
  -3   4  -8   17.54    1.84
   3   4   8   14.13    1.76
  -3  -4   8   13.47    1.74
   3   4   8   14.68    1.55
  -3   4  -8   14.71    1.37
  -3  -4   8   14.97    1.62
  -4   4   8   10.74    1.42
   4   4  -8   12.97    1.45
  -4   4   8   12.53    1.55
   4  -4   8   12.50    1.27
  -4  -4   8    8.52    1.50
  -4  -4   8    9.27    1.50
   4   4   8    9.64    1.63
  -4   4  -8    9.98    1.48
  -4   4  -8   12.09    1.15
   4   4   8    9.85    1.46
  -5   4   8  254.17   16.55
   5  -4   8  247.54   16.20
   5   4  -8  264.76   17.14
  -5   4  -8  236.77   17.11
  -5  -4   8  240.32   16.43
   5   4   8  233.28   17.26
  -5   4  -8  241.23   16.33
  -5  -4   8  231.25   16.59
  -6   4   8   18.99    2.34
   6   4  -8   23.27    2.19
   6   4   8   17.65    2.52
  -6   4  -8   20.51    2.09
  -6  -4   8   19.94    2.08
  -6  -4   8   15.18    2.34
  -6   4  -8   17.61    2.28
  -7   4   8    3.22    1.89
   7   4  -8    4.98    1.39
  -7   4  -8    4.69    1.63
  -7   4  -8    5.95    1.83
  -7  -4   8    5.26    1.94
   7   4   8    4.96    1.96
   8   4  -8    5.13    1.53
  -8   4   8    4.17    2.30
  -8  -4   8    2.92    2.14
  -8   4  -8    4.84    2.08
   8   4   8    7.19    2.21
   9   4  -8    8.36    1.98
  -9   4   8    3.04    2.65
  -9  -4  -8    8.53    2.42
  -9   4  -8    3.68    2.46
   9   4   8    9.16    2.54
  -9  -4   8   10.98    2.58
 -10   4   8    1.24    2.94
 -10  -4  -8    3.79    2.54
 -10   4  -8    1.05    2.73
  10   4   8   -0.40    2.41
 -10  -4   8    4.84    2.60
   0  -5   8   25.55    2.51
   0   5   8   24.10    2.29
   0   5   8   26.28    2.29
   0   5  -8   27.09    2.25
  -1   5   8  111.60    8.79
   1  -5   8  127.39    8.75
  -1   5   8  120.93    8.57
   1   5  -8  126.51    8.87
  -1  -5   8  131.67    8.78
  -1  -5   8  131.52    8.46
   1   5   8  130.05    8.60
   1   5   8  131.11    8.96
  -1   5  -8  125.31    8.89
   2  -5   8   59.70    4.53
  -2   5   8   51.15    4.30
  -2   5   8   56.57    4.45
   2   5  -8   58.98    4.51
  -2  -5   8   65.44    4.42
   2   5   8   66.49    4.40
  -2  -5   8   63.74    4.65
   2   5   8   67.01    4.75
  -2   5  -8   63.40    4.60
   3   5  -8   42.98    3.53
   3  -5   8   42.71    3.44
  -3   5   8   40.66    3.42
   3   5   8   43.58    3.78
   3   5   8   43.85    3.45
  -3  -5   8   41.70    3.59
  -3  -5   8   46.29    3.68
  -3   5  -8   45.42    3.54
   4   5  -8   22.92    2.24
   4  -5   8   18.05    1.66
  -4   5   8   19.44    1.91
   4   5   8   17.28    2.06
  -4  -5   8   13.37    1.85
  -4   5  -8   14.37    1.35
  -4   5  -8   12.05    1.74
  -4  -5   8   14.85    1.85
   4   5   8   13.96    1.76
  -5   5   8    3.10    1.44
   5  -5   8    3.87    0.96
   5   5  -8    4.56    1.23
  -5   5  -8    2.65    0.92
  -5   5  -8    1.59    1.29
  -5  -5   8    3.68    1.30
   5   5   8    2.13    1.44
  -5  -5   8    1.16    1.42
  -6   5   8    4.88    1.72
   6   5  -8    5.84    1.41
  -6  -5   8    3.34    1.34
  -6   5  -8    1.48    1.48
  -6  -5   8    3.59    1.71
   6   5   8    3.59    1.64
  -7   5   8   47.04    4.35
   7   5  -8   54.78    4.22
  -7   5  -8   37.60    4.19
   7   5   8   36.21    4.33
  -7  -5   8   46.23    4.56
  -8   5   8    4.15    2.27
   8   5  -8    4.75    1.61
   8   5   8    1.99    1.98
  -8   5  -8   -1.96    1.95
  -8  -5   8    5.15    2.16
   9   5  -8    7.39    1.89
  -9   5   8    1.85    2.60
   9   5   8    9.65    2.46
  -9   5  -8    3.63    2.51
  -9  -5   8   14.25    2.69
 -10  -5  -8    3.92    2.56
 -10   5   8    2.66    2.95
  10   5   8    2.70    2.39
 -10   5  -8    0.25    2.77
   0   6   8    0.33    0.71
   0   6   8    1.54    0.87
   0  -6   8   -0.14    1.01
   0   6  -8    0.68    0.82
  -1   6   8  138.39    9.12
  -1   6   8  124.37    9.33
   1  -6   8  134.09    9.26
   1   6  -8  134.30    9.39
   1   6   8  128.95    9.48
  -1  -6   8  127.89    9.26
  -1   6  -8  138.73    9.41
  -1  -6   8  132.92    8.98
   1   6   8  136.09    9.09
   2  -6   8   42.34    3.54
   2   6  -8   45.42    3.42
  -2   6   8   37.60    3.14
  -2   6   8   42.78    3.34
  -2  -6   8   43.51    3.61
   2   6   8   41.99    3.65
  -2  -6   8   41.80    3.40
   2   6   8   43.07    3.33
  -2   6  -8   41.51    3.40
   3  -6   8   48.52    4.29
  -3   6   8   51.96    4.33
   3   6  -8   51.59    4.34
   3   6   8   57.69    4.57
  -3   6  -8   61.13    4.42
  -3  -6   8   55.42    4.39
   3   6   8   64.70    4.33
  -3  -6   8   56.55    4.45
   4  -6   8   31.69    3.11
   4   6  -8   37.32    3.33
  -4   6   8   32.09    3.41
  -4   6  -8   39.37    3.38
   4   6   8   40.83    3.40
   4   6   8   40.58    3.57
  -4  -6   8   34.66    3.53
  -4  -6   8   44.35    3.48
   5   6  -8   96.27    6.88
  -5   6   8   88.93    6.66
   5  -6   8   89.29    6.30
  -5   6  -8   86.36    6.75
  -5  -6   8   84.48    6.76
  -5  -6   8   92.29    6.57
   5   6   8   87.64    7.01
   6   6  -8   -0.32    1.25
  -6   6   8    1.27    1.64
   6   6   8   -0.16    1.49
  -6  -6   8    2.05    1.60
  -6   6  -8   -0.41    1.46
  -6  -6   8    1.51    1.30
   7   6  -8    9.68    1.83
  -7   6   8    7.81    2.21
   7   6   8    7.24    1.99
  -7   6  -8    7.57    2.01
  -7  -6   8    7.81    2.12
   8   6  -8   16.66    2.32
  -8   6   8   18.46    2.96
  -8   6  -8   15.77    2.79
  -8  -6   8   18.28    2.78
   8   6   8   16.41    2.57
   9   6  -8    4.40    1.72
  -9   6   8   -1.63    2.61
  -9   6  -8   -1.15    2.37
   9   6   8    4.28    2.14
  -9  -6   8    4.31    2.30
   0  -7   8    5.45    1.38
   0   7   8    4.63    0.98
   0   7  -8    4.24    1.07
   0   7   8    4.09    1.07
   1  -7   8   56.36    4.67
  -1   7   8   55.84    4.46
  -1   7   8   57.09    4.47
   1   7  -8   59.97    4.54
  -1  -7   8   59.15    4.70
   1   7   8   62.71    4.42
   1   7   8   56.09    4.70
  -1   7  -8   67.19    4.63
  -2   7   8   72.66    5.05
  -2   7   8   66.02    4.91
   2   7  -8   73.45    5.17
   2  -7   8   71.32    5.22
  -2   7  -8   69.08    5.15
   2   7   8   65.28    5.26
  -2  -7   8   58.65    5.12
   2   7   8   61.63    4.93
   3  -7   8  120.01    7.79
   3   7  -8  129.97    8.04
  -3   7   8  121.05    7.76
   3   7   8  102.70    7.65
  -3  -7   8  101.24    7.79
  -3   7  -8   98.12    7.90
   3   7   8  101.56    8.07
  -3  -7   8   98.54    7.73
   4  -7   8   32.09    3.23
   4   7  -8   34.21    3.44
  -4   7   8   33.80    3.43
   4   7   8   37.98    3.42
  -4   7  -8   38.98    3.46
  -4  -7   8   41.47    3.59
   4   7   8   38.26    3.68
  -4  -7   8   36.71    3.42
   5   7  -8   15.26    2.20
   5  -7   8   17.15    1.97
  -5   7   8   15.36    2.27
  -5  -7   8   19.95    2.24
  -5  -7   8   21.75    2.38
  -5   7  -8   21.53    2.39
   5   7   8   23.81    2.51
   6   7  -8   22.13    2.69
  -6   7   8   25.38    2.90
  -6  -7   8   24.66    2.57
   6   7   8   26.38    2.92
  -6   7  -8   23.87    2.76
  -6  -7   8   27.43    2.85
   7   7  -8   25.86    3.01
  -7   7   8   28.79    3.27
   7   7   8   34.48    3.72
  -7  -7   8   30.26    3.25
  -7   7  -8   31.07    3.32
   8   7  -8    5.66    1.79
  -8   7   8    4.87    2.40
   8   7   8    5.52    1.95
  -8  -7   8    8.10    2.31
  -8   7  -8    1.83    2.14
  -9   7   8    6.71    2.98
   9   7  -8    5.93    1.89
  -9  -7   8   11.26    2.56
   9   7   8    6.01    2.28
  -9   7  -8    0.66    2.44
   0   8   8    8.33    1.26
   0   8  -8    5.11    1.28
   0  -8   8    5.20    1.56
   0   8   8    9.24    1.38
  -1   8   8   38.30    3.22
   1  -8   8   36.60    3.54
   1   8  -8   40.19    3.25
  -1   8   8   36.88    3.15
   1   8   8   36.83    3.36
   1   8   8   36.94    3.16
  -1   8  -8   34.66    3.21
  -1  -8   8   31.76    3.48
   2  -8   8   80.67    6.00
   2   8  -8   88.22    6.01
  -2   8   8   84.76    5.82
  -2  -8   8   68.77    5.93
   2   8   8   74.91    5.73
  -2   8  -8   73.98    5.92
   2   8   8   80.29    6.11
  -3   8   8   52.46    4.28
   3  -8   8   42.86    4.29
   3   8  -8   52.95    4.29
  -3  -8   8   53.92    4.38
  -3   8  -8   54.69    4.28
   3   8   8   53.11    4.18
   3   8   8   52.22    4.51
   4  -8   8    1.13    1.29
  -4   8   8    2.13    1.50
   4   8  -8    4.09    1.38
  -4   8  -8    1.48    1.33
  -4  -8   8    3.02    1.36
  -4  -8   8    1.20    1.39
   4   8   8   -0.73    1.36
   4   8   8    3.23    1.41
   5  -8   8   17.44    2.07
  -5   8   8   17.54    2.35
   5   8  -8   16.18    2.24
  -5  -8   8   18.82    2.36
   5   8   8   22.56    2.51
  -5  -8   8   18.25    2.28
  -5   8  -8   18.21    2.31
   6   8  -8    2.07    1.55
  -6   8   8   -0.10    1.83
  -6  -8   8    2.47    1.70
   6   8   8    2.29    1.62
  -6  -8   8    3.30    1.48
  -6   8  -8    1.88    1.69
   7   8  -8    9.40    2.01
  -7   8   8    6.75    2.33
  -7   8  -8    8.12    2.28
  -7  -8   8   13.40    2.36
   7   8   8   11.70    2.23
   8   8  -8   16.58    2.46
  -8   8   8   13.51    2.93
   8   8   8   16.03    2.51
  -8  -8   8   16.16    2.77
  -8   8  -8   12.69    2.78
   9   8  -8   21.47    2.88
  -9   8   8   18.48    3.55
  -9   8  -8   21.34    3.50
   9   8   8   20.95    2.92
  -9  -8   8   27.41    3.32
   0   9   8    4.79    1.35
   0  -9   8    4.02    1.64
   0   9   8    4.94    1.23
   0   9  -8    7.07    1.37
   1  -9   8   21.11    2.88
   1   9  -8   23.94    2.84
  -1   9   8   24.89    2.86
  -1   9   8   24.56    2.87
  -1   9  -8   35.16    2.92
  -1  -9   8   33.14    3.23
   1   9   8   35.15    2.86
   1   9   8   39.55    3.19
   2  -9   8   -1.07    1.45
   2   9  -8    1.93    1.23
  -2   9   8    3.26    1.37
   2   9   8    1.05    1.25
  -2   9  -8    2.20    1.31
  -2  -9   8    3.26    1.55
   2   9   8    2.67    1.28
   3   9  -8   57.67    4.88
  -3   9   8   56.33    4.82
   3  -9   8   51.92    4.95
  -3  -9   8   63.76    4.99
   3   9   8   66.09    5.14
   3   9   8   64.76    4.77
  -3   9  -8   61.31    4.94
   4  -9   8    7.52    1.76
   4   9  -8    6.18    1.63
  -4   9   8    7.64    1.85
  -4  -9   8    9.55    1.87
  -4   9  -8    8.91    1.78
  -4  -9   8   11.53    1.77
   4   9   8   11.41    1.81
   4   9   8   11.60    1.91
   5   9  -8    0.50    1.51
   5  -9   8    1.54    1.45
  -5   9   8    0.28    1.70
  -5  -9   8    2.96    1.62
   5   9   8    1.99    1.56
  -5   9  -8   -0.25    1.52
  -5  -9   8    1.14    1.50
  -6   9   8    9.52    2.27
   6   9  -8    7.24    1.92
  -6  -9   8    7.89    1.81
  -6  -9   8   11.00    2.13
  -6   9  -8    6.49    1.99
   6   9   8    7.66    1.96
  -7   9   8   30.07    3.52
   7   9  -8   31.01    3.36
  -7  -9   8   31.85    3.39
   7   9   8   30.24    3.39
  -7   9  -8   25.78    3.34
   8   9  -8    5.72    2.02
  -8   9   8    3.10    2.59
  -8   9  -8    4.66    2.39
  -8  -9   8    9.18    2.39
   8   9   8    5.46    2.06
   0 -10   8   14.54    2.33
   0  10  -8   16.96    2.00
   0  10   8   17.45    2.04
   0  10   8   14.71    1.95
   1 -10   8   34.94    3.82
   1  10  -8   41.44    3.75
  -1  10   8   40.41    3.61
  -1  10   8   40.05    3.68
   1  10   8   43.07    3.58
   1  10   8   44.10    3.99
  -1 -10   8   40.55    3.98
  -1  10  -8   42.63    3.71
   2 -10   8   29.45    3.61
  -2  10   8   35.39    3.69
   2  10  -8   33.81    3.56
   2  10   8   49.40    3.99
  -2  10  -8   42.61    3.63
   2  10   8   44.32    3.53
  -2 -10   8   41.90    3.88
  -3  10   8   14.09    2.01
   3  10  -8   10.52    1.87
   3 -10   8    9.51    2.10
  -3  10  -8   12.16    1.97
   3  10   8   13.28    1.90
  -3 -10   8   14.93    2.17
   3  10   8   13.32    2.04
  -4  10   8   11.37    2.06
   4  10  -8    9.77    1.85
   4 -10   8    9.96    2.00
  -4 -10   8    9.52    1.96
  -4  10  -8   10.89    1.99
   4  10   8   10.95    1.99
   4  10   8   10.37    1.92
   5 -10   8    1.77    1.55
   5  10  -8   -0.94    1.59
  -5  10   8    1.09    1.89
  -5 -10   8    6.11    1.77
  -5  10  -8    0.86    1.67
   5  10   8    6.12    1.81
  -5 -10   8    4.88    1.73
  -6  10   8    9.38    2.38
   6  10  -8    8.37    2.12
   6  10   8    9.69    2.12
  -6 -10   8   12.57    2.05
  -6  10  -8   10.55    2.25
  -6 -10   8   11.88    2.25
  -7  10   8    1.69    2.37
   7  10  -8    2.32    1.90
  -7  10  -8    3.26    2.14
   7  10   8    2.78    1.97
  -7 -10   8    5.63    2.10
  -8  10   8   -0.76    2.54
   8  10  -8   -0.87    1.86
  -8  10  -8    1.67    2.38
   8  10   8    1.13    1.89
  -8 -10   8    3.54    2.29
   0 -11   8   29.47    3.41
   0  11   8   31.79    3.19
   0  11  -8   32.51    3.25
   0  11   8   39.70    3.67
  -1  11   8   19.95    2.12
   1 -11   8   16.42    2.50
   1  11  -8   15.67    1.98
   1  11   8   15.05    2.10
   1  11   8   10.86    1.88
  -1 -11   8   16.46    2.49
  -1  11  -8    9.88    1.92
   2 -11   8    0.35    1.79
   2  11  -8    1.00    1.38
  -2  11   8    0.40    1.49
   2  11   8    1.67    1.52
  -2 -11   8    3.99    1.81
   2  11   8    1.67    1.48
  -2  11  -8    2.21    1.52
   3  11  -8   19.35    2.47
   3 -11   8   23.77    2.94
  -3  11   8   26.70    2.68
   3  11   8   19.97    2.41
  -3 -11   8   23.02    2.80
   3  11   8   24.97    2.75
  -3  11  -8   20.70    2.58
   4 -11   8   -1.40    1.73
   4  11  -8    2.13    1.61
  -4  11   8    2.09    1.87
  -4 -11   8    6.18    1.89
   4  11   8    3.82    1.73
  -4  11  -8    5.23    1.84
   4  11   8    6.29    1.82
   5  11  -8    2.00    1.76
   5 -11   8    1.59    1.72
  -5  11   8   -0.87    1.97
  -5 -11   8    1.67    1.76
  -5  11  -8    1.94    1.85
   5  11   8    1.93    1.72
   6  11  -8    3.26    1.93
  -6  11   8    3.04    2.28
  -6 -11   8    4.01    1.84
  -6  11  -8    1.63    2.00
   6  11   8    4.75    1.97
  -7  11   8   11.37    2.80
   7  11  -8    7.57    2.28
   7  11   8    9.70    2.27
  -7  11  -8    6.24    2.43
   0  12  -8    0.87    1.48
   0  12   8   -1.87    1.43
   0 -12   8    0.16    1.85
  -1  12   8   13.10    2.12
   1  12  -8   10.97    1.98
   1 -12   8   15.12    2.65
   1  12   8   20.21    2.43
  -1  12  -8   12.98    2.10
   1  12   8   17.21    2.12
  -1 -12   8   21.47    2.73
   2 -12   8   10.50    2.41
   2  12  -8   11.90    1.95
  -2  12   8   15.01    2.11
  -2  12  -8    5.53    1.89
   2  12   8    8.74    1.87
  -2 -12   8    8.84    2.20
   2  12   8   11.59    2.11
   3 -12   8    2.63    2.14
   3  12  -8    6.17    1.77
  -3  12   8    7.59    1.96
  -3 -12   8    6.40    2.07
   3  12   8   10.09    2.06
  -3  12  -8    6.52    1.89
   3  12   8    5.89    1.72
   4  12  -8    7.08    1.92
  -4  12   8   12.15    2.31
   4 -12   8    9.90    2.32
   4  12   8    5.93    1.96
  -4  12  -8    4.45    2.01
  -4 -12   8    4.75    2.00
   4  12   8   10.09    2.16
  -5  12   8   17.14    2.72
   5  12  -8   14.27    2.53
   5  12   8   17.30    2.62
  -5 -12   8   19.75    2.63
  -5  12  -8   15.83    2.64
   6  12  -8   10.55    2.39
  -6  12   8    9.07    2.69
  -6 -12   8   11.94    2.26
   6  12   8   13.80    2.50
  -6  12  -8   12.02    2.57
   0  13  -8   28.16    2.97
   0  13   8   24.69    2.72
   0 -13   8   26.66    3.39
   1  13  -8   15.53    2.42
  -1  13   8   21.69    2.58
   1 -13   8   19.70    3.05
  -1  13  -8   17.15    2.49
   1  13   8   20.69    2.43
   1  13   8   25.56    2.82
  -1 -13   8   22.77    3.07
   2  13  -8    0.06    1.54
  -2  13   8    0.71    1.80
   2 -13   8    2.17    2.21
   2  13   8    1.18    1.81
  -2 -13   8    2.68    2.10
  -2  13  -8    0.13    1.69
   2  13   8    0.70    1.61
   3 -13   8   -0.33    2.12
   3  13  -8   -0.41    1.63
  -3  13   8   -1.08    1.84
   3  13   8    0.82    1.66
   3  13   8    4.82    2.01
  -3  13  -8    1.83    1.81
  -3 -13   8    1.67    2.03
  -4  13   8    1.81    2.11
   4  13  -8    3.11    1.79
   4 -13   8    1.70    2.20
  -4 -13   8    2.79    2.02
   4  13   8    3.46    1.90
  -4  13  -8    4.09    2.02
   4  13   8    4.03    2.03
   5  13  -8   -0.12    1.87
  -5  13   8    0.71    2.30
  -5 -13   8    3.10    2.05
   5  13   8    0.96    1.95
  -5  13  -8    0.02    2.09
   0  14  -8   -0.12    1.58
   0 -14   8   -0.78    2.24
   0  14   8   -0.38    1.68
   1  14  -8    2.00    1.71
   1 -14   8   10.22    2.69
  -1  14   8    6.24    1.93
   1  14   8    5.82    1.84
  -1 -14   8    5.18    2.40
  -1  14  -8    2.97    1.86
   2  14  -8    5.90    1.93
  -2  14   8   11.47    2.29
   2 -14   8    8.33    2.74
   2  14   8    9.17    2.06
  -2 -14   8   15.48    2.73
  -2  14  -8    9.39    2.17
   2  14   8   13.66    2.55
  -3  14   8    1.06    2.04
   3 -14   8    0.27    2.41
   3  14  -8    2.49    1.81
  -3 -14   8   -0.50    2.13
  -3  14  -8    1.05    1.95
   3  14   8    2.81    2.09
   3  14   8    0.92    1.80
   4  14  -8    3.70    1.94
  -4  14   8    3.16    2.27
   4 -14   8    2.94    2.45
   4  14   8    5.97    2.25
  -4 -14   8    5.04    2.27
   4  14   8    5.47    2.15
  -4  14  -8    2.87    2.16
   0  15  -8    0.57    1.74
   0  15   8   -1.39    1.77
   0 -15   8    3.94    2.56
   1 -15   8   18.68    3.23
   1  15  -8    8.29    2.14
  -1  15   8   11.73    2.30
  -1  15  -8   11.56    2.41
  -1 -15   8   17.09    3.05
   1  15   8   12.07    2.34
  -2  15   8   11.96    2.33
   2  15  -8    8.96    2.13
   2 -15   8   11.64    3.07
  -2  15  -8    8.70    2.34
   2  15   8    9.15    2.19
  -2 -15   8   11.28    2.80
   3 -15   8    3.28    2.69
  -3 -15   8    7.80    2.55
   3  15   8    4.67    2.05
   3  15   8    8.22    2.50
   0   0   9    1.51    0.64
   0   0   9    0.56    0.44
   1   0  -9   68.49    4.99
  -1   0   9   71.72    4.93
  -1   0   9   76.60    5.08
   1   0   9   75.69    4.99
   1   0   9   70.93    4.87
  -1   0  -9   68.45    5.07
  -2   0  -9  203.48   14.32
  -2   0   9  213.18   13.81
  -2   0   9  209.52   13.86
   2   0  -9  200.03   14.20
   2   0   9  209.22   13.77
   2   0   9  206.20   13.76
  -3   0  -9  107.58    7.63
   3   0  -9   98.14    7.49
  -3   0   9  108.36    7.43
   3   0   9  106.73    7.65
   3   0   9  112.74    7.25
  -3   0   9  110.50    7.39
   4   0   9    7.01    0.87
  -4   0   9    7.14    1.21
  -4   0   9    6.82    1.16
   4   0  -9    6.42    0.89
   4   0   9    7.26    1.22
   5   0   9    0.51    1.14
  -5   0   9    0.04    1.18
   5   0  -9    1.12    0.76
  -5   0   9   -1.00    0.96
   5   0   9   -0.46    0.59
   6   0   9   10.28    1.89
   6   0  -9   10.76    1.44
  -6   0   9   10.54    1.50
  -6   0   9   11.56    1.93
  -7   0   9   69.75    5.88
   7   0   9   74.41    6.06
  -7   0  -9   68.51    5.85
  -8   0   9   28.74    3.38
  -8   0  -9   24.38    3.05
   8   0   9   24.88    3.35
   9   0   9   -2.06    2.35
  -9   0  -9    1.73    2.11
  -9   0  -9   -0.21    2.21
  -9   0   9    0.46    2.39
 -10   0   9    1.14    2.75
 -10   0  -9    4.77    2.49
 -10   0  -9   -0.02    2.53
   0   1  -9    4.05    0.60
   0  -1   9    4.28    0.54
   0  -1   9    3.53    0.82
   0   1   9    3.85    0.65
   0   1   9    3.82    0.76
   0  -1  -9    4.42    0.53
   1  -1   9  220.63   15.75
   1  -1   9  232.07   15.86
  -1   1   9  225.57   15.83
   1   1  -9  223.63   16.37
  -1   1   9  231.93   15.88
  -1  -1  -9  225.22   16.40
   1  -1  -9  244.38   16.31
   1   1   9  252.39   15.84
   1   1   9  244.28   15.82
  -1  -1   9  252.19   15.81
  -1  -1   9  257.93   15.93
  -1   1  -9  251.61   16.44
  -2   1   9  104.49    7.15
   2   1  -9  101.20    7.20
  -2   1   9  104.86    7.07
   2  -1   9  102.93    7.04
  -2  -1   9  107.08    7.19
   2   1   9  101.87    7.30
   2   1   9  101.69    7.02
   2   1   9  103.42    7.02
  -2  -1   9  104.31    7.03
  -2   1  -9  102.50    7.31
  -3   1   9   28.49    2.35
   3   1  -9   28.85    2.18
  -3   1   9   30.54    2.39
   3  -1   9   32.86    2.18
   3   1   9   22.38    2.32
   3   1   9   24.27    2.10
  -3   1  -9   22.59    2.27
   3   1   9   23.18    2.25
  -3  -1   9   22.19    2.41
  -3  -1   9   23.48    2.31
  -4   1   9   22.65    2.32
   4   1  -9   24.65    2.18
   4  -1   9   23.52    1.98
  -4   1   9   25.77    2.43
   4   1   9   24.45    2.37
   4   1   9   25.07    2.01
  -4  -1   9   23.82    2.35
   4  -1  -9   20.03    1.86
  -4  -1   9   23.26    2.43
  -4   1  -9   24.35    2.47
   5  -1   9  132.86    8.53
  -5   1   9  132.23    8.81
   5   1  -9  131.60    9.05
  -5   1   9  132.36    8.95
   5   1   9  123.06    8.52
  -5  -1   9  125.60    9.01
   5   1   9  126.20    9.28
   5  -1  -9  117.73    8.89
  -5  -1   9  124.47    8.79
  -5   1  -9  126.52    9.22
   6  -1   9   18.83    2.34
  -6   1   9   17.93    2.01
  -6   1   9   16.12    2.27
   6   1  -9   21.40    2.05
  -6  -1   9   20.13    2.43
  -6   1  -9   23.21    2.44
  -6   1  -9   20.20    2.36
   6   1   9   20.09    2.46
  -6  -1   9   22.30    2.33
  -7   1   9   -0.43    1.72
  -7   1  -9   -0.48    1.56
  -7   1  -9   -0.06    1.64
   7   1   9   -1.28    1.66
  -7  -1   9   -2.74    1.74
  -8  -1  -9    5.34    2.04
  -8   1   9    1.44    2.15
   8   1   9    2.56    2.17
  -8  -1   9    4.70    2.29
  -8   1  -9    3.56    2.12
  -8   1  -9    1.29    1.86
  -9   1   9   18.68    3.15
  -9  -1  -9   20.11    2.85
  -9   1  -9   14.79    2.76
   9   1   9   18.12    3.29
  -9   1  -9   11.34    2.95
  -9  -1   9   15.89    3.07
 -10  -1  -9    6.31    2.44
 -10   1   9    0.47    2.71
  10   1   9   -3.09    2.61
 -10   1  -9    1.89    2.38
 -10   1  -9   -0.43    2.58
 -10  -1   9    1.14    2.69
   0  -2   9   41.68    2.95
   0   2  -9   41.11    3.17
   0  -2  -9   42.13    3.08
   0   2   9   45.53    3.25
   0  -2   9   45.32    3.31
   0   2   9   44.88    3.14
  -1   2   9  146.18    9.53
   1  -2   9  141.61    9.57
  -1   2   9  145.96    9.58
   1   2  -9  143.05    9.80
   1   2   9  135.50    9.81
  -1  -2   9  139.61    9.62
  -1   2  -9  142.17    9.85
   1   2   9  139.38    9.50
   1   2   9  137.38    9.51
  -1  -2   9  142.34    9.42
  -2   2   9   68.03    5.10
   2  -2   9   65.76    5.07
   2   2  -9   69.89    5.17
  -2   2   9   66.61    5.13
   2   2   9   75.08    5.06
   2   2   9   77.46    5.08
  -2  -2   9   76.48    5.02
  -2   2  -9   74.12    5.25
   2   2   9   77.54    5.26
  -2  -2   9   74.31    5.23
  -3   2   9  153.31    9.71
   3  -2   9  152.44    9.57
   3   2  -9  147.44    9.93
  -3   2   9  154.17    9.72
   3   2   9  139.32   10.05
   3   2   9  131.58    9.51
  -3   2  -9  132.59    9.98
   3   2   9  138.38    9.63
  -3  -2   9  136.10    9.64
  -3  -2   9  135.55    9.73
  -4   2   9    2.19    1.01
  -4   2   9    3.54    1.10
   4   2  -9    4.13    0.85
   4  -2   9    2.57    0.73
  -4   2  -9    1.48    0.98
  -4   2  -9    1.09    0.94
  -4  -2   9    0.97    1.03
  -4  -2   9    1.74    1.07
   4   2   9    1.50    1.07
   4   2   9    2.30    0.69
  -5   2   9   27.93    2.69
   5  -2   9   29.63    2.17
   5   2  -9   32.35    2.62
  -5   2   9   28.02    2.88
   5   2   9   21.87    2.60
  -5   2  -9   23.61    2.72
  -5   2  -9   22.83    2.40
  -5  -2   9   24.76    2.60
  -5  -2   9   24.23    2.58
  -6   2   9    6.45    1.30
   6   2  -9    7.33    1.29
  -6   2   9    6.38    1.72
  -6   2  -9    5.56    1.56
  -6  -2   9    6.82    1.79
  -6   2  -9    4.38    1.51
  -6  -2   9    4.52    1.26
   6   2   9    5.11    1.75
   7   2  -9   64.98    5.00
  -7   2   9   56.11    5.32
  -7   2  -9   62.14    5.34
   7   2   9   66.76    5.52
  -7  -2   9   59.61    5.46
  -7   2  -9   57.87    5.31
  -8  -2  -9    3.81    1.98
  -8   2   9    5.31    2.32
  -8   2  -9    3.87    2.09
  -8  -2   9    6.08    2.35
  -8   2  -9    5.78    2.03
   8   2   9    4.30    2.22
  -9   2   9    1.62    2.52
  -9  -2  -9    2.42    2.24
   9   2   9   -0.12    2.30
  -9   2  -9   -1.54    2.19
  -9   2  -9    1.24    2.10
  -9  -2   9    2.02    2.49
 -10  -2  -9    3.48    2.43
 -10   2   9   -3.53    2.72
 -10   2  -9   -1.23    2.59
  10   2   9   -1.54    2.61
 -10  -2   9   -0.02    2.62
   0   3  -9   41.99    3.18
   0   3   9   42.47    3.15
   0  -3   9   41.20    3.30
   0   3   9   41.80    3.05
   0   3   9   43.69    3.21
   1   3  -9  123.43    9.96
   1  -3   9  125.98    9.72
  -1   3   9  122.73    9.66
  -1   3   9  129.87    9.70
   1   3   9  154.34    9.68
  -1  -3   9  153.39    9.83
   1   3   9  159.31    9.70
  -1   3  -9  158.87   10.05
  -1  -3   9  152.37    9.55
   1   3   9  154.18    9.99
   2   3  -9    9.27    1.05
  -2   3   9   10.56    1.27
   2  -3   9    9.49    1.18
  -2   3   9   11.85    1.22
   2   3   9    9.88    1.16
  -2   3  -9    8.33    1.12
   2   3   9    8.58    1.05
  -2  -3   9    9.47    1.38
   2   3   9   10.02    1.11
  -2  -3   9    9.21    1.01
  -3   3   9   62.79    4.90
   3  -3   9   64.20    4.78
   3   3  -9   62.70    4.93
  -3   3   9   63.14    4.94
   3   3   9   71.13    5.11
  -3   3  -9   69.14    5.03
  -3  -3   9   68.52    4.98
  -3  -3   9   68.36    4.87
   3   3   9   73.03    4.76
  -3   3  -9   68.93    4.66
   3   3   9   68.35    4.85
   4  -3   9    3.45    0.83
  -4   3   9    3.35    1.16
   4   3  -9    3.02    0.91
  -4   3   9    3.38    1.05
  -4  -3   9    0.82    1.06
  -4   3  -9    1.17    0.84
  -4  -3   9    1.35    1.10
  -4   3  -9    3.20    1.07
   4   3   9    1.39    1.12
  -5   3   9   82.81    5.69
   5  -3   9   85.06    5.36
   5   3  -9   89.95    5.89
  -5   3   9   83.89    5.85
   5   3   9   72.82    6.05
  -5   3  -9   68.77    5.89
  -5   3  -9   64.94    5.61
  -5  -3   9   72.20    5.86
  -5  -3   9   69.65    5.67
   6   3  -9   61.67    4.47
  -6   3   9   51.55    4.61
  -6   3   9   50.53    4.23
  -6   3  -9   51.35    4.43
  -6  -3   9   50.51    4.86
  -6  -3   9   52.56    4.27
  -6   3  -9   53.02    4.57
   6   3   9   55.41    4.79
   7   3  -9    3.48    1.26
  -7   3   9    0.72    1.82
  -7   3  -9    1.70    1.75
   7   3   9    1.31    1.87
  -7  -3   9    2.76    1.91
  -7   3  -9    2.17    1.58
  -8   3   9    8.67    2.44
   8   3  -9    9.04    1.74
   8   3   9    8.63    2.39
  -8   3  -9    6.04    2.25
  -8   3  -9    9.82    2.15
  -8  -3   9    9.98    2.48
  -9  -3  -9   31.01    3.47
  -9   3   9   30.51    3.74
   9   3   9   23.18    3.60
  -9   3  -9   26.47    3.64
  -9  -3   9   26.29    3.56
 -10   3   9    3.31    2.95
 -10  -3  -9    5.71    2.57
 -10   3  -9    4.35    2.85
 -10  -3   9    5.08    2.75
  10   3   9    3.20    2.64
   0   4  -9    1.61    0.70
   0  -4   9    0.62    0.91
   0   4   9    0.96    0.74
   0   4   9    1.00    0.76
   0   4   9    1.66    0.52
  -1   4   9   43.33    3.13
  -1   4   9   46.85    3.43
   1  -4   9   44.75    3.49
  -1   4   9   44.21    3.37
   1   4  -9   45.09    3.39
  -1  -4   9   43.55    3.56
   1   4   9   43.92    3.34
  -1  -4   9   44.12    3.10
   1   4   9   44.85    3.35
  -1   4  -9   43.13    3.39
   1   4   9   45.01    3.44
  -2   4   9    6.60    1.08
  -2   4   9    6.01    1.00
   2   4  -9    3.56    0.79
   2  -4   9    3.40    0.95
  -2   4  -9    0.84    0.82
   2   4   9    1.81    0.81
   2   4   9    0.97    0.82
  -2  -4   9    1.57    0.69
  -2  -4   9    0.82    1.02
  -3   4   9   75.33    5.48
   3  -4   9   77.05    5.36
   3   4  -9   77.25    5.55
  -3   4   9   70.16    5.46
   3   4   9   77.29    5.39
  -3   4  -9   73.57    5.61
  -3  -4   9   76.73    5.45
  -3  -4   9   73.35    5.57
   3   4   9   77.28    5.78
  -4   4   9   64.47    4.87
   4  -4   9   66.82    4.61
   4   4  -9   70.63    4.93
  -4   4   9   62.24    4.83
   4   4   9   65.74    5.22
  -4   4  -9   60.95    4.49
  -4  -4   9   63.45    4.91
  -4   4  -9   60.77    4.92
   4   4   9   64.39    4.83
  -4  -4   9   59.72    4.91
   5   4  -9    6.74    1.29
   5  -4   9    6.06    1.00
  -5   4   9    7.46    1.57
  -5  -4   9    3.22    1.49
  -5   4  -9    4.50    1.38
  -5  -4   9    4.12    1.34
  -5   4  -9    5.58    1.10
   5   4   9    5.19    1.58
  -6   4   9   24.99    2.88
   6   4  -9   29.84    3.14
   6   4   9   31.62    3.23
  -6  -4   9   32.52    3.02
  -6  -4   9   31.20    3.09
  -6   4  -9   27.70    3.15
  -6   4  -9   27.85    3.07
   7   4  -9   19.88    2.12
  -7   4   9   14.91    2.45
  -7  -4   9   16.41    2.58
  -7   4  -9   15.80    2.42
   7   4   9   14.67    2.56
   8   4  -9    2.32    1.41
  -8   4   9   -1.31    2.15
   8   4   9    1.03    2.09
  -8  -4   9    1.63    2.12
  -8   4  -9    1.13    2.01
  -9   4   9    5.28    2.76
  -9   4  -9    8.72    2.68
   9   4   9    5.03    2.45
  -9  -4   9    9.81    2.69
 -10   4   9    6.24    3.12
 -10  -4  -9    7.69    2.74
  10   4   9    4.71    2.71
 -10   4  -9    4.71    2.97
 -10  -4   9   11.86    2.90
   0  -5   9   29.61    2.83
   0   5   9   31.39    2.54
   0   5   9   30.74    2.58
   0   5  -9   29.09    2.60
  -1   5   9   77.49    5.27
   1  -5   9   79.46    5.46
   1   5  -9   79.58    5.45
  -1   5   9   75.94    5.31
   1   5   9   72.51    5.29
  -1   5  -9   70.77    5.41
   1   5   9   72.51    5.47
  -1  -5   9   72.53    5.05
  -1  -5   9   66.13    5.47
  -2   5   9   41.79    3.20
   2  -5   9   44.16    3.23
   2   5  -9   43.80    3.20
   2   5   9   34.16    3.29
  -2  -5   9   36.18    2.99
   2   5   9   35.60    3.08
  -2  -5   9   35.54    3.40
  -2   5  -9   37.71    3.17
  -3   5   9   17.34    1.82
   3   5  -9   19.52    2.09
   3  -5   9   17.41    1.76
   3   5   9   15.43    1.93
  -3   5  -9   18.07    1.86
  -3  -5   9   14.33    1.91
   3   5   9   16.45    1.74
  -3  -5   9   16.94    1.77
  -4   5   9   21.61    2.52
   4   5  -9   26.79    2.82
   4  -5   9   24.05    2.55
   4   5   9   33.09    2.89
  -4  -5   9   33.19    2.97
   4   5   9   28.88    3.23
  -4   5  -9   32.25    2.83
  -4  -5   9   34.66    3.10
  -5   5   9   16.53    2.17
   5   5  -9   13.06    1.95
   5  -5   9   14.10    1.69
   5   5   9   22.14    2.45
  -5   5  -9   20.27    2.17
  -5  -5   9   26.23    2.54
  -5  -5   9   26.85    2.44
  -6   5   9    3.69    1.74
   6   5  -9    3.61    1.35
  -6  -5   9    1.30    1.65
  -6  -5   9    0.05    1.26
  -6   5  -9    1.46    1.50
   6   5   9    1.82    1.64
  -7   5   9    6.96    2.15
   7   5  -9    8.71    1.66
  -7   5  -9    6.72    2.00
   7   5   9    9.30    2.16
  -7  -5   9    8.80    2.15
  -8   5   9   -0.53    2.20
   8   5  -9   -0.08    1.42
   8   5   9    2.50    2.03
  -8  -5   9    2.03    2.14
  -8   5  -9    1.41    2.06
  -9   5   9   13.10    3.02
  -9  -5   9   14.19    2.82
  -9   5  -9    9.39    2.83
   9   5   9   13.60    2.81
 -10  -5  -9   18.10    3.26
 -10   5   9   20.59    3.73
 -10  -5   9   18.00    3.17
  10   5   9   15.67    3.13
 -10   5  -9   13.73    3.41
   0   6   9    4.69    1.04
   0   6  -9    5.97    1.06
   0   6   9    5.33    0.95
   0  -6   9    3.34    1.25
  -1   6   9   40.35    3.25
   1  -6   9   44.80    3.57
   1   6  -9   48.35    3.41
  -1   6   9   46.56    3.31
  -1  -6   9   38.37    3.54
   1   6   9   40.30    3.32
  -1   6  -9   39.91    3.33
  -1  -6   9   37.34    3.01
   1   6   9   37.31    3.43
   2  -6   9   29.75    3.19
  -2   6   9   32.20    3.04
   2   6  -9   32.33    3.03
   2   6   9   38.63    3.05
  -2  -6   9   34.93    3.00
  -2  -6   9   39.37    3.41
  -2   6  -9   43.35    3.14
   2   6   9   38.85    3.32
   3  -6   9   25.40    2.99
   3   6  -9   27.34    2.96
  -3   6   9   27.89    3.07
   3   6   9   40.58    3.05
   3   6   9   33.35    3.34
  -3  -6   9   38.18    3.15
  -3  -6   9   40.33    3.33
  -3   6  -9   39.87    3.16
   4  -6   9    5.09    1.17
  -4   6   9    3.45    1.36
   4   6  -9    3.80    1.20
  -4  -6   9    1.09    1.25
   4   6   9    2.63    1.29
   4   6   9    3.24    1.39
  -4   6  -9    1.09    1.23
  -4  -6   9    2.65    1.33
   5   6  -9   10.01    1.69
   5  -6   9    9.67    1.41
  -5   6   9    8.62    1.84
  -5  -6   9   10.21    1.83
  -5  -6   9   13.06    1.85
  -5   6  -9   10.61    1.79
   5   6   9   12.06    1.99
  -6   6   9   22.12    2.52
   6   6  -9   21.52    2.37
  -6  -6   9   17.60    2.47
  -6  -6   9   19.72    2.29
  -6   6  -9   16.39    2.38
   6   6   9   17.77    2.57
   7   6  -9   42.26    3.87
  -7   6   9   38.48    4.13
  -7  -6   9   36.93    3.69
  -7   6  -9   32.33    3.65
   7   6   9   35.90    4.11
  -8   6   9    7.98    2.55
   8   6  -9    8.45    1.87
  -8   6  -9    4.18    2.30
  -8  -6   9   10.51    2.37
   8   6   9    7.62    2.24
   9   6  -9    4.04    1.76
  -9   6   9    1.89    2.84
  -9  -6   9    9.06    2.50
   9   6   9    7.16    2.35
  -9   6  -9    4.97    2.57
   0   7   9    9.04    1.27
   0  -7   9   11.09    1.72
   0   7  -9    9.14    1.34
   0   7   9    8.44    1.33
   1  -7   9   66.80    4.48
  -1   7   9   68.61    4.21
  -1   7   9   61.38    4.15
  -1   7  -9   48.82    4.18
   1   7   9   42.29    4.26
   1   7   9   45.54    4.03
  -1  -7   9   43.80    4.32
   2   7  -9    0.59    1.05
  -2   7   9    1.24    1.14
   2  -7   9    1.12    1.28
  -2   7  -9    0.03    1.05
  -2  -7   9   -0.59    0.88
   2   7   9    0.10    1.03
  -2  -7   9    0.69    1.30
   2   7   9    0.30    1.06
   3   7  -9   27.77    2.82
  -3   7   9   24.35    2.47
   3  -7   9   28.30    2.61
   3   7   9   26.29    2.68
   3   7   9   26.06    2.64
  -3  -7   9   22.03    2.58
  -3   7  -9   27.21    2.77
  -3  -7   9   26.80    2.45
  -4   7   9   16.34    1.97
   4   7  -9   16.71    1.89
   4  -7   9   16.74    1.87
  -4  -7   9    9.65    1.87
  -4  -7   9   11.10    1.80
   4   7   9   13.02    1.82
  -4   7  -9    9.66    1.80
   4   7   9   14.12    2.01
  -5   7   9   45.65    4.03
   5   7  -9   48.03    4.14
   5  -7   9   40.73    3.60
   5   7   9   46.13    4.44
  -5   7  -9   42.93    4.05
  -5  -7   9   42.56    3.87
  -5  -7   9   39.70    4.17
   6   7  -9    0.80    1.44
  -6   7   9    0.12    1.79
   6   7   9    1.53    1.66
  -6  -7   9    0.11    1.41
  -6   7  -9   -1.23    1.59
  -6  -7   9    2.41    1.68
  -7   7   9    6.15    2.31
   7   7  -9    5.59    1.78
  -7   7  -9    8.00    2.13
   7   7   9    4.68    1.93
  -7  -7   9   10.85    2.19
   8   7  -9   -0.51    1.58
  -8   7   9   -0.22    2.31
   8   7   9    1.52    1.84
  -8  -7   9    1.56    2.09
  -8   7  -9   -1.64    2.06
  -9   7   9   -3.62    2.62
   9   7  -9    0.81    1.73
  -9   7  -9    2.83    2.57
   9   7   9    4.99    2.23
  -9  -7   9   15.51    2.71
   0   8   9    2.88    1.07
   0   8   9    4.33    1.25
   0  -8   9    4.51    1.51
   0   8  -9    4.51    1.21
   1  -8   9    6.13    1.72
  -1   8   9   10.16    1.38
  -1   8   9    9.39    1.54
   1   8  -9    8.86    1.51
   1   8   9   11.79    1.59
  -1  -8   9   12.49    1.89
  -1   8  -9   15.61    1.66
   1   8   9   13.29    1.60
   2  -8   9   60.95    4.86
   2   8  -9   68.06    4.79
  -2   8   9   63.06    4.71
  -2  -8   9   54.77    4.87
   2   8   9   58.84    4.61
  -2   8  -9   58.45    4.76
   2   8   9   56.44    4.90
  -3   8   9   93.22    6.68
   3  -8   9   88.07    6.74
   3   8  -9   92.52    6.82
  -3  -8   9   92.99    6.82
   3   8   9   90.78    6.59
   3   8   9   90.37    6.98
  -3   8  -9   88.15    6.83
  -3  -8   9   89.67    6.66
  -4   8   9    4.87    1.66
   4   8  -9    6.38    1.51
   4  -8   9    2.88    1.42
   4   8   9    3.37    1.52
   4   8   9    4.80    1.54
  -4  -8   9    5.30    1.52
  -4  -8   9    4.48    1.57
  -4   8  -9    6.13    1.55
   5  -8   9    2.58    1.38
   5   8  -9    2.87    1.53
  -5   8   9    3.17    1.74
   5   8   9    8.20    1.81
  -5  -8   9    4.23    1.69
  -5  -8   9    5.10    1.61
  -5   8  -9    3.65    1.63
   6   8  -9   -0.11    1.53
  -6   8   9    0.11    1.84
  -6  -8   9    3.87    1.59
  -6   8  -9    1.56    1.74
   6   8   9    2.50    1.72
  -6  -8   9    4.04    1.80
   7   8  -9   16.93    2.29
  -7   8   9   14.91    2.67
  -7   8  -9    7.19    2.30
   7   8   9    9.16    2.21
  -7  -8   9    9.97    2.33
   8   8  -9   12.17    2.32
  -8   8   9   10.28    2.89
   8   8   9   13.86    2.49
  -8  -8   9   20.49    2.83
  -8   8  -9   14.59    2.84
  -9   8   9    0.26    2.80
   9   8  -9    3.50    1.93
  -9   8  -9    0.17    2.58
  -9  -8   9    7.21    2.49
   9   8   9    4.93    2.24
   0   9  -9    2.53    1.29
   0   9   9    3.77    1.19
   0   9   9    2.42    1.27
   0  -9   9   -0.45    1.47
   1  -9   9   77.69    6.08
  -1   9   9   83.33    5.79
   1   9  -9   88.79    5.96
  -1   9  -9   75.12    5.91
  -1  -9   9   63.11    5.97
   1   9   9   75.51    5.72
   1   9   9   77.14    6.04
  -2   9   9   35.24    3.64
   2   9  -9   35.24    3.53
   2  -9   9   32.93    3.54
   2   9   9   38.16    3.44
  -2  -9   9   44.28    3.84
   2   9   9   44.08    3.85
  -2   9  -9   43.54    3.56
   3   9  -9   12.30    1.92
   3  -9   9   12.83    2.13
  -3   9   9   16.33    2.10
   3   9   9   16.74    2.14
  -3   9  -9   13.05    1.99
   3   9   9   15.14    1.96
  -3  -9   9   17.68    2.30
   4  -9   9   16.39    2.23
   4   9  -9   15.08    2.18
  -4   9   9   19.66    2.35
  -4  -9   9   19.09    2.33
  -4   9  -9   15.92    2.20
   4   9   9   17.52    2.30
   4   9   9   14.96    2.13
   5  -9   9   30.32    2.99
   5   9  -9   33.19    3.65
  -5   9   9   30.13    3.21
  -5  -9   9   27.19    3.06
  -5   9  -9   30.80    3.42
   5   9   9   35.89    3.74
   5   9   9   32.40    3.47
  -5  -9   9   37.73    3.88
  -6   9   9    1.77    2.01
   6   9  -9    2.44    1.71
  -6  -9   9    4.22    1.69
  -6  -9   9    3.76    1.91
   6   9   9    4.19    1.88
  -6   9  -9    3.32    1.89
   7   9  -9    0.81    1.83
  -7   9   9    1.14    2.27
   7   9   9    1.80    1.85
  -7   9  -9    0.07    1.98
  -7  -9   9    6.17    2.09
   8   9  -9    5.24    2.03
  -8   9   9    5.21    2.68
  -8  -9   9    7.68    2.39
  -8   9  -9    2.39    2.37
   8   9   9    5.18    2.08
   0  10   9   37.71    3.41
   0 -10   9   31.75    3.56
   0  10  -9   35.17    3.41
   0  10   9   40.82    3.70
   1 -10   9   19.97    2.69
  -1  10   9   21.38    2.28
   1  10  -9   16.06    2.25
   1  10   9   30.45    2.96
  -1 -10   9   21.11    2.63
   1  10   9   19.94    2.23
  -1  10  -9   19.97    2.26
   2  10  -9   32.19    3.17
   2 -10   9   29.42    3.19
  -2  10   9   29.85    3.20
   2  10   9   28.54    3.02
  -2  10  -9   27.74    3.05
   2  10   9   30.61    3.02
  -2 -10   9   27.12    3.06
  -3  10   9   33.12    3.30
   3  10  -9   33.89    3.50
   3 -10   9   36.53    3.57
   3  10   9   33.69    3.43
   3  10   9   39.73    3.83
  -3 -10   9   36.10    3.70
  -3  10  -9   39.19    3.57
   4  10  -9    7.05    1.75
   4 -10   9    8.57    1.95
  -4  10   9    8.29    1.96
  -4  10  -9    3.34    1.73
  -4 -10   9    5.51    1.83
   4  10   9    2.91    1.68
   4  10   9    6.54    1.79
  -5  10   9   11.64    2.34
   5  10  -9   11.19    2.20
   5 -10   9   10.78    2.06
   5  10   9   13.74    2.31
  -5 -10   9   13.32    2.16
   5  10   9   14.63    2.21
  -5  10  -9   15.70    2.30
   6  10  -9    6.27    2.05
  -6  10   9    4.91    2.26
  -6 -10   9   10.64    1.99
  -6  10  -9    8.14    2.19
   6  10   9   11.27    2.19
  -7  10   9   22.29    3.37
   7  10  -9   24.95    3.22
   7  10   9   30.42    3.34
  -7  10  -9   29.44    3.41
  -8  10   9    7.10    2.91
   8  10  -9   10.25    2.38
  -8  10  -9   10.35    2.73
   8  10   9    8.21    2.28
   0 -11   9    8.26    2.12
   0  11   9    6.39    1.63
   0  11  -9    5.75    1.62
   1 -11   9   26.92    3.31
  -1  11   9   24.93    2.82
   1  11  -9   29.38    3.11
  -1  11  -9   33.02    3.18
   1  11   9   37.67    3.68
  -1 -11   9   26.86    3.22
   1  11   9   30.38    3.01
   2 -11   9   15.37    2.59
   2  11  -9   14.04    2.11
  -2  11   9   16.36    2.24
  -2  11  -9   18.15    2.29
   2  11   9   17.72    2.19
   2  11   9   20.75    2.45
  -2 -11   9   18.83    2.64
  -3  11   9   10.96    2.15
   3 -11   9   12.71    2.40
   3  11  -9    8.79    1.96
  -3  11  -9   13.78    2.17
  -3 -11   9   20.04    2.50
   3  11   9   17.61    2.33
   3  11   9   17.97    2.16
   4  11  -9    9.79    1.97
  -4  11   9   11.07    2.21
   4 -11   9   10.87    2.24
   4  11   9    9.18    2.01
   4  11   9   11.35    2.14
  -4  11  -9    6.44    2.03
  -4 -11   9    9.46    2.15
  -5  11   9   24.06    2.91
   5  11  -9   19.26    2.64
   5  11   9   19.86    2.72
   5  11   9   16.70    2.48
  -5  11  -9   16.23    2.65
  -5 -11   9   16.91    2.53
  -6  11   9   12.01    2.63
   6  11  -9    9.57    2.28
  -6  11  -9   10.47    2.42
  -6 -11   9   10.49    2.19
   6  11   9   12.71    2.34
   7  11  -9    3.63    2.11
  -7  11   9    4.61    2.60
  -7  11  -9    4.03    2.37
   7  11   9    6.68    2.26
   0 -12   9   10.40    2.40
   0  12  -9   11.36    1.93
   0  12   9   11.08    1.94
   1  12  -9   12.25    1.98
  -1  12   9   15.23    2.16
   1 -12   9   15.35    2.63
  -1  12  -9   14.47    2.10
   1  12   9   12.85    2.04
  -1 -12   9   13.76    2.53
   2 -12   9    7.46    2.30
  -2  12   9    7.70    1.88
   2  12  -9    4.77    1.66
   2  12   9    8.84    1.91
  -2  12  -9    4.25    1.79
   2  12   9    5.60    1.74
  -2 -12   9    4.13    2.03
   3 -12   9   17.46    2.80
   3  12  -9   15.38    2.33
  -3  12   9   19.35    2.50
  -3  12  -9   17.40    2.51
   3  12   9   14.02    2.25
   3  12   9   17.10    2.54
  -3 -12   9   16.41    2.63
   4 -12   9    6.15    2.23
  -4  12   9    7.99    2.25
   4  12  -9    5.02    1.86
  -4 -12   9    7.18    2.18
   4  12   9    8.78    2.14
   4  12   9    6.84    2.00
  -4  12  -9    6.27    2.08
   5  12  -9   16.25    2.61
  -5  12   9   16.73    2.76
  -5  12  -9   13.98    2.64
   5  12   9   20.42    2.78
  -5 -12   9   15.05    2.52
  -6  12   9    7.60    2.63
   6  12  -9    7.45    2.28
  -6  12  -9    6.72    2.41
  -6 -12   9    9.86    2.22
   6  12   9   10.19    2.35
   0 -13   9    5.41    2.32
   0  13   9    7.36    1.86
   0  13  -9    3.99    1.78
  -1  13   9   14.31    2.27
   1  13  -9    8.99    1.96
   1 -13   9   14.36    2.79
   1  13   9   15.60    2.15
  -1  13  -9   12.12    2.19
  -1 -13   9   17.77    2.80
  -2  13   9    8.73    2.13
   2 -13   9    6.99    2.52
   2  13  -9    8.58    1.94
  -2  13  -9    6.62    2.05
   2  13   9   12.25    2.07
   2  13   9   16.23    2.41
  -2 -13   9   14.09    2.55
   3 -13   9    6.21    2.47
   3  13  -9    4.39    1.87
  -3  13   9    7.43    2.12
  -3  13  -9    4.82    2.04
   3  13   9    5.79    1.91
  -3 -13   9    6.33    2.24
   3  13   9    9.49    2.17
   4 -13   9    3.35    2.23
  -4  13   9    0.93    2.14
   4  13  -9    3.60    1.85
   4  13   9    3.09    1.95
  -4 -13   9    8.38    2.26
   4  13   9    6.21    2.14
  -4  13  -9    4.20    2.12
  -5  13   9    7.36    2.58
   5  13  -9    6.47    2.20
  -5  13  -9    3.60    2.30
   5  13   9   10.29    2.39
  -5 -13   9    9.29    2.34
   0 -14   9    3.41    2.41
   0  14   9    3.29    1.82
   0  14  -9    3.78    1.75
  -1  14   9   10.67    2.14
   1 -14   9   12.37    2.92
   1  14  -9    9.76    2.01
  -1 -14   9   12.94    2.71
   1  14   9    8.06    2.02
  -1  14  -9    5.24    2.00
   2 -14   9    1.06    2.39
   2  14  -9    1.37    1.67
  -2  14   9    1.54    1.99
   2  14   9    0.06    1.78
  -2 -14   9    4.07    2.30
  -2  14  -9   -1.90    1.82
   3 -14   9    5.69    2.62
   3  14  -9    7.71    2.08
  -3  14   9    8.48    2.38
   3  14   9   14.39    2.52
   3  14   9    7.75    2.07
  -3 -14   9    8.84    2.49
  -3  14  -9    6.95    2.28
  -4  14   9    6.56    2.45
   4  14  -9    4.22    2.04
   4 -14   9    7.54    2.64
  -4 -14   9   10.22    2.51
   4  14   9   11.73    2.50
  -4  14  -9    7.32    2.38
   4  14   9    7.60    2.18
   0  15   9    6.34    2.04
   0 -15   9    5.55    2.63
   0  15  -9    1.62    1.76
   1 -15   9    5.06    2.70
  -1  15   9    2.49    2.01
   1  15  -9    0.55    1.73
   1  15   9   -0.65    1.88
  -1 -15   9    2.68    2.44
  -1  15  -9    1.90    2.00
   2 -15   9   12.35    3.04
   2  15  -9    5.20    1.98
  -2  15   9    9.43    2.25
  -2 -15   9    8.51    2.71
  -2  15  -9    8.65    2.32
   2  15   9    6.72    2.11
   0   0  10  274.94   18.23
   0   0 -10  271.94   18.82
   0   0  10  275.14   18.16
   1   0 -10   12.43    1.19
   1   0  10   14.68    1.54
  -1   0  10   13.14    1.44
   1   0  10   13.99    1.30
  -1   0 -10   13.07    1.39
  -1   0  10   13.38    1.41
  -2   0 -10   19.30    1.84
   2   0  10   25.75    1.91
  -2   0  10   18.58    1.90
   2   0 -10   16.63    1.59
   2   0  10   20.98    1.71
  -2   0  10   21.88    2.04
  -3   0  10   16.20    1.70
   3   0 -10   15.48    1.50
  -3   0 -10   14.55    1.56
  -3   0  10   15.08    1.53
   3   0  10   15.67    1.60
  -4   0 -10   43.84    3.55
   4   0 -10   40.10    3.24
  -4   0  10   42.62    3.52
  -4   0  10   43.93    3.49
   4   0  10   44.47    3.53
   4   0  10   42.01    3.16
   5   0  10   74.43    5.81
   5   0 -10   71.47    5.48
  -5   0  10   78.01    5.54
   5   0  10   78.29    5.21
  -5   0  10   74.10    5.68
  -6   0  10   20.82    2.45
  -6   0  10   19.45    2.09
   6   0  10   22.48    2.53
   7   0  10    4.92    1.92
  -7   0 -10    0.93    1.81
  -7   0 -10    3.31    1.70
  -7   0  10    2.66    1.89
  -8   0  10   -1.34    2.12
  -8   0 -10    0.34    1.88
   8   0  10   -0.20    2.08
  -8   0 -10    1.11    2.05
  -9   0 -10    2.00    2.40
  -9   0 -10    7.83    2.35
  -9   0  10    7.66    2.69
   9   0  10    5.70    2.75
 -10   0 -10    6.83    3.02
 -10   0 -10   13.65    2.78
 -10   0  10    8.67    3.05
   0  -1  10   31.65    2.58
   0   1 -10   28.97    2.37
   0  -1  10   31.38    2.29
   0   1  10   31.67    2.55
   0   1  10   31.23    2.43
   0  -1 -10   32.17    2.33
   1  -1  10   79.80    5.76
   1   1 -10   85.56    6.02
  -1   1  10   90.84    6.02
  -1  -1 -10   80.49    6.04
  -1   1  10   86.09    5.90
   1  -1  10   83.93    5.98
   1   1  10   89.61    5.94
  -1  -1  10   89.38    6.06
   1   1  10   87.35    5.87
   1  -1 -10   83.78    5.93
  -1  -1  10   87.09    5.85
  -1   1 -10   89.17    6.09
  -2   1  10  124.11    9.02
  -2   1  10  128.04    8.96
   2  -1  10  125.01    8.86
   2  -1  10  132.11    8.94
   2   1 -10  120.69    9.15
   2   1  10  137.67    8.92
   2   1  10  137.95    9.28
  -2  -1  10  142.56    9.10
  -2  -1  10  131.65    8.91
   2   1  10  141.84    8.94
  -2   1 -10  134.14    9.28
  -3   1  10   14.10    1.44
   3   1 -10   14.59    1.47
   3  -1  10   17.88    1.60
  -3   1  10   13.86    1.52
   3   1  10   11.84    1.40
   3   1  10   10.91    1.23
   3   1  10   11.81    1.33
  -3  -1  10   12.41    1.36
  -3   1 -10   12.50    1.42
  -3  -1  10   11.30    1.52
  -4   1  10   50.74    3.83
   4   1 -10   54.22    3.73
  -4   1  10   50.48    3.88
   4  -1  10   52.67    3.53
  -4  -1  10   42.22    3.86
   4   1  10   45.87    3.91
   4   1  10   46.30    3.50
  -4   1 -10   42.97    3.89
  -4  -1  10   44.29    3.82
  -5   1  10   -0.26    1.04
   5   1 -10    0.51    0.78
  -5   1  10    1.31    1.26
   5  -1  10    1.02    0.69
  -5   1 -10    1.37    1.22
   5   1  10    1.60    0.71
  -5  -1  10   -0.13    1.04
   5   1  10    2.51    1.26
  -5  -1  10   -0.36    1.24
  -6   1  10   16.65    2.17
  -6   1  10   16.11    1.81
  -6  -1  10   13.58    1.75
  -6   1 -10   11.98    2.05
   6   1  10   11.50    2.10
  -6   1 -10   13.77    2.04
  -6  -1  10   11.04    2.06
  -7   1  10    5.97    2.02
  -7  -1  10    4.19    2.04
   7   1  10    5.66    2.00
  -7   1 -10    2.69    1.73
  -7   1 -10    2.62    1.81
  -8   1  10   15.22    2.75
  -8  -1 -10   16.12    2.50
  -8   1 -10   11.38    2.35
   8   1  10   11.21    2.65
  -8   1 -10    9.55    2.54
  -8  -1  10   14.07    2.77
  -9   1  10    0.65    2.58
  -9  -1 -10    1.31    2.20
  -9   1 -10    1.68    2.37
   9   1  10    0.67    2.51
  -9   1 -10    4.36    2.21
  -9  -1  10    6.27    2.70
 -10   1  10    3.27    2.98
 -10  -1 -10    6.58    2.46
 -10  -1 -10    1.18    2.57
 -10  -1  10    5.69    2.87
 -10   1 -10    2.45    2.72
  10   1  10   -0.40    2.84
   0   2 -10   92.26    6.58
   0  -2  10   94.42    6.25
   0   2  10   92.69    6.47
   0  -2 -10   92.07    6.49
   0  -2  10   96.19    6.52
   0   2  10   92.78    6.41
   1   2 -10   12.99    1.39
   1  -2  10   12.98    1.16
  -1   2  10   17.80    1.66
  -1   2  10   13.22    1.43
   1  -2  10   15.68    1.48
  -1  -2  10   12.55    1.34
  -1   2 -10   17.71    1.53
   1   2  10   12.71    1.37
   1   2  10   13.38    1.38
  -1  -2  10   13.00    1.53
   1   2  10   16.26    1.58
   2  -2  10   28.92    2.30
  -2   2  10   30.54    2.31
  -2   2  10   27.61    2.38
   2   2 -10   27.41    2.10
   2   2  10   24.07    2.18
   2   2  10   22.40    2.13
  -2  -2  10   22.74    2.41
  -2  -2  10   22.97    2.10
  -2   2 -10   25.43    2.27
   2   2  10   23.23    2.16
   3  -2  10    0.27    0.71
   3   2 -10    0.17    0.65
  -3   2  10    0.32    0.90
  -3   2  10    0.18    0.91
   3   2  10    1.81    0.88
   3   2  10    0.99    0.79
   3   2  10    2.42    0.74
  -3   2 -10    1.37    0.85
  -3  -2  10    1.54    1.04
  -3  -2  10    2.55    0.85
  -4   2  10   61.52    4.26
   4   2 -10   59.83    4.11
   4  -2  10   56.85    3.83
  -4   2  10   59.25    4.16
  -4   2 -10   42.98    4.04
  -4  -2  10   52.36    4.18
   4   2  10   45.71    4.23
  -4   2 -10   47.08    4.14
   4   2  10   49.40    3.80
  -4  -2  10   51.49    4.18
   5  -2  10   44.88    3.12
   5   2 -10   43.73    3.51
  -5   2  10   39.76    3.73
  -5   2  10   42.09    3.50
   5   2  10   38.18    3.78
  -5   2 -10   37.00    3.66
  -5   2 -10   39.08    3.65
  -5  -2  10   41.25    3.58
  -5  -2  10   39.78    3.86
  -6   2  10   30.68    3.23
   6   2 -10   35.61    3.25
  -6   2  10   31.99    3.28
  -6  -2  10   38.24    3.99
  -6   2 -10   39.67    3.58
  -6   2 -10   33.24    3.71
  -6  -2  10   38.24    3.30
   6   2  10   39.27    3.74
  -7   2  10   -1.72    1.79
  -7  -2  10   -0.18    1.86
  -7   2 -10   -0.24    1.60
   7   2  10    1.87    1.87
  -7   2 -10    0.66    1.65
  -8   2  10    0.81    2.20
  -8  -2  10    5.72    2.42
  -8   2 -10    6.63    2.26
   8   2  10    2.95    2.20
  -8   2 -10    6.65    2.07
  -9   2  10   -0.21    2.49
  -9  -2 -10    3.86    2.23
  -9  -2  10    3.03    2.59
  -9   2 -10    1.23    2.43
   9   2  10   -0.18    2.47
 -10  -2 -10    7.40    2.58
 -10   2  10    7.96    3.12
 -10  -2  10   10.52    3.06
 -10   2 -10   10.81    3.13
  10   2  10    8.66    3.11
   0   3 -10    4.97    0.80
   0   3  10    5.55    0.60
   0  -3  10    1.75    0.98
   0   3  10    4.28    0.94
   0   3  10    5.46    0.87
  -1   3  10   14.78    1.61
   1   3 -10   14.88    1.58
   1  -3  10   13.87    1.60
  -1   3  10   16.72    1.54
  -1   3 -10   20.56    1.74
   1   3  10   17.35    1.72
  -1  -3  10   16.56    1.43
   1   3  10   16.30    1.57
   1   3  10   17.81    1.76
  -1  -3  10   13.97    1.70
  -2   3  10   90.71    7.00
   2   3 -10   90.89    7.09
  -2   3  10   86.61    6.93
   2  -3  10   89.10    6.93
   2   3  10  105.93    7.17
  -2   3 -10  108.03    7.20
  -2  -3  10  109.28    6.84
   2   3  10  106.06    6.88
   2   3  10  107.02    6.92
  -2  -3  10  108.67    7.11
  -3   3  10   66.76    4.71
  -3   3  10   66.52    4.70
   3   3 -10   66.03    4.64
   3  -3  10   64.90    4.49
  -3   3 -10   66.27    4.75
  -3   3 -10   57.02    4.31
  -3  -3  10   60.13    4.73
   3   3  10   59.53    4.44
   3   3  10   58.23    4.74
   3   3  10   60.39    4.53
  -3  -3  10   59.64    4.56
  -4   3  10   13.57    1.65
   4  -3  10   14.02    1.34
   4   3 -10   14.36    1.47
  -4   3  10   13.49    1.61
  -4   3 -10    9.05    1.48
  -4  -3  10    9.80    1.61
   4   3  10    8.78    1.43
  -4  -3  10    9.15    1.46
   4   3  10    8.90    1.58
  -4   3 -10    9.97    1.24
   5  -3  10   35.82    2.92
   5   3 -10   38.32    3.37
  -5   3  10   36.35    3.30
  -5   3  10   33.58    3.51
  -5  -3  10   38.64    3.41
  -5   3 -10   40.93    3.29
  -5  -3  10   35.15    3.72
   5   3  10   38.65    3.63
  -5   3 -10   39.00    3.43
  -6   3  10   16.36    2.38
   6   3 -10   17.98    2.02
  -6   3  10   13.77    2.01
  -6   3 -10   22.49    2.43
  -6  -3  10   18.53    2.12
   6   3  10   20.74    2.62
  -6   3 -10   22.99    2.21
  -6  -3  10   23.16    2.54
  -7   3  10    9.52    2.24
   7   3 -10   12.32    1.71
  -7   3 -10    8.62    2.08
   7   3  10    9.66    2.26
  -7  -3  10    9.39    2.32
  -8   3  10   10.51    2.60
  -8  -3  10   10.72    2.58
  -8   3 -10   12.46    2.51
   8   3  10    7.89    2.50
  -9   3  10   -0.26    2.61
  -9  -3 -10    1.86    2.31
   9   3  10   -2.08    2.28
  -9   3 -10    0.46    2.39
  -9  -3  10    0.87    2.43
 -10  -3 -10   11.79    2.80
 -10   3  10   10.29    3.37
  10   3  10    6.53    2.91
 -10   3 -10   10.46    3.11
 -10  -3  10    9.15    3.06
   0   4  10  127.65    8.85
   0   4 -10  125.79    8.98
   0   4  10  127.96    8.74
   0   4  10  128.21    8.70
   0  -4  10  128.28    8.86
   1  -4  10   38.73    2.80
  -1   4  10   35.64    2.68
  -1   4  10   41.02    2.81
   1   4 -10   37.09    2.59
   1   4  10   26.00    2.57
   1   4  10   27.94    2.66
  -1   4 -10   27.53    2.62
   1   4  10   27.21    2.54
  -1  -4  10   26.97    2.85
  -1  -4  10   28.72    2.26
  -2   4  10    1.67    0.91
  -2   4  10   -0.13    0.91
   2   4 -10    1.26    0.77
   2  -4  10   -0.19    0.89
  -2  -4  10    1.17    1.10
   2   4  10    2.91    0.82
  -2  -4  10    2.72    0.72
   2   4  10    1.84    0.88
  -2   4 -10    2.64    0.92
   2   4  10    2.87    0.90
  -3   4  10   45.48    3.66
  -3   4  10   41.81    3.62
   3  -4  10   41.76    3.46
   3   4 -10   45.72    3.58
   3   4  10   44.04    3.82
  -3  -4  10   45.18    3.74
   3   4  10   47.22    3.49
  -3  -4  10   44.06    3.52
  -3   4 -10   43.48    3.59
   4  -4  10   37.68    3.03
  -4   4  10   37.92    3.36
  -4   4  10   44.17    3.40
   4   4 -10   41.32    3.27
  -4  -4  10   35.24    3.41
  -4   4 -10   31.65    3.28
  -4  -4  10   35.97    3.39
   4   4  10   33.28    3.65
   4   4  10   38.43    3.28
   5   4 -10    2.32    1.08
  -5   4  10   -0.14    1.41
  -5   4  10    2.64    1.24
   5  -4  10    1.97    0.92
   5   4  10    0.67    1.41
  -5   4 -10    1.50    1.27
  -5  -4  10    0.07    1.35
  -5  -4  10    0.54    1.27
   6   4 -10   15.36    2.00
  -6   4  10   12.01    2.27
  -6   4 -10   18.66    2.32
   6   4  10   21.84    2.57
  -6  -4  10   20.01    2.17
  -6  -4  10   17.53    2.45
  -7   4  10   -1.39    1.85
   7   4 -10    1.75    1.27
  -7  -4  10   -0.22    1.88
   7   4  10    2.68    1.97
  -7   4 -10   -0.48    1.70
  -8   4  10   21.00    3.11
  -8   4 -10   19.52    3.07
   8   4  10   22.19    3.17
  -8  -4  10   22.96    3.17
  -9   4  10   11.11    2.96
  -9   4 -10    9.80    2.87
  -9  -4  10   12.73    2.87
   9   4  10   10.46    2.78
 -10  -4 -10    3.11    2.64
 -10   4  10   -0.01    2.97
 -10  -4  10    4.84    2.76
  10   4  10    0.58    2.55
 -10   4 -10    1.60    2.89
   0   5  10    5.28    1.02
   0   5  10    5.17    0.82
   0   5 -10    5.57    1.00
   0  -5  10    4.50    1.26
   1   5 -10    3.07    0.88
  -1   5  10    2.49    0.48
  -1   5  10    2.46    0.98
  -1   5  10    4.19    1.00
   1  -5  10    2.59    1.10
  -1  -5  10   -0.18    1.04
  -1   5 -10    1.05    0.85
  -1  -5  10    1.77    0.48
   1   5  10    0.54    0.88
   1   5  10   -0.45    0.74
  -2   5  10  197.69   13.04
   2   5 -10  202.36   13.45
   2  -5  10  193.18   13.05
  -2   5  10  193.78   13.05
   2   5  10  184.43   12.97
  -2   5 -10  186.03   13.46
  -2  -5  10  188.53   12.88
  -2  -5  10  190.58   13.18
   2   5  10  194.79   13.54
   3   5 -10  101.19    6.89
   3  -5  10   96.84    6.67
  -3   5  10   97.53    6.75
   3   5  10   86.81    6.63
   3   5  10   90.17    7.06
  -3  -5  10   92.76    6.67
  -3  -5  10   94.93    6.87
  -3   5 -10   91.78    6.90
   4  -5  10   35.03    3.33
  -4   5  10   37.83    3.65
   4   5 -10   36.88    3.55
   4   5  10   49.86    3.61
  -4   5 -10   42.62    3.60
  -4  -5  10   39.86    3.70
  -4  -5  10   49.90    3.79
   4   5  10   41.05    3.87
  -5   5  10   13.31    1.94
   5   5 -10   11.75    1.74
   5  -5  10   12.69    1.48
  -5  -5  10   13.99    2.02
   5   5  10   16.08    2.18
  -5   5 -10   10.85    1.86
  -5  -5  10   11.79    1.86
   6   5 -10   20.27    2.32
  -6   5  10   22.70    2.62
  -6  -5  10   18.42    2.59
  -6   5 -10   22.09    2.55
   6   5  10   21.02    2.72
  -6  -5  10   21.02    2.39
  -7   5  10    3.63    2.08
   7   5 -10    5.30    1.51
  -7   5 -10    1.74    1.80
  -7  -5  10    3.53    1.99
   7   5  10    3.07    1.94
  -8   5  10   20.72    3.14
   8   5 -10   21.34    2.51
  -8   5 -10   17.59    2.96
   8   5  10   19.81    3.04
  -8  -5  10   24.47    3.13
  -9   5  10    3.62    2.84
   9   5  10    9.94    2.64
  -9   5 -10    6.09    2.66
  -9  -5  10   10.24    2.67
   0   6  10   61.81    4.85
   0   6  10   65.43    4.80
   0   6 -10   68.50    4.94
  -1   6  10   11.64    1.19
   1   6 -10   10.66    1.42
   1  -6  10   13.47    1.81
  -1   6  10   12.02    1.51
   1   6  10   13.84    1.50
  -1  -6  10   13.60    1.84
  -1   6 -10   11.02    1.46
   1   6  10   13.09    1.50
   2  -6  10   43.46    3.98
  -2   6  10   45.23    3.88
   2   6 -10   49.72    3.91
  -2  -6  10   47.36    3.67
  -2  -6  10   47.16    4.09
   2   6  10   48.75    4.02
   2   6  10   53.24    3.82
  -2   6 -10   50.81    3.90
  -3   6  10   13.28    1.69
   3  -6  10   16.28    1.75
   3   6 -10   15.91    1.66
   3   6  10    8.17    1.66
  -3   6 -10   10.20    1.61
  -3  -6  10   11.05    1.81
   3   6  10   10.16    1.55
  -3  -6  10   11.82    1.53
   4  -6  10  114.60    8.51
  -4   6  10  112.57    8.65
   4   6 -10  120.05    8.91
   4   6  10  121.56    9.13
  -4   6 -10  125.95    8.95
  -4  -6  10  125.12    8.75
  -4  -6  10  129.18    8.74
   4   6  10  131.93    8.67
   5  -6  10    5.25    1.24
   5   6 -10    6.02    1.44
  -5   6  10    3.63    1.64
  -5   6 -10    1.26    1.45
  -5  -6  10    4.18    1.50
  -5  -6  10    3.42    1.55
   5   6  10    3.00    1.60
   6   6 -10   36.92    3.49
  -6   6  10   28.33    3.02
  -6   6 -10   26.30    2.98
  -6  -6  10   26.60    3.01
  -6  -6  10   24.26    2.75
   6   6  10   28.04    3.23
  -7   6  10   14.41    2.49
   7   6 -10   11.26    1.90
   7   6  10   10.39    2.31
  -7  -6  10    8.65    2.30
  -7   6 -10    8.28    2.19
  -8   6  10    7.40    2.55
   8   6 -10    9.60    1.92
  -8   6 -10    6.72    2.39
   8   6  10    7.39    2.34
  -8  -6  10   10.11    2.52
  -9   6  10   12.66    3.25
  -9   6 -10   12.84    3.07
  -9  -6  10   18.48    2.99
   9   6  10   17.84    2.99
   0   7  10   71.14    5.14
   0   7 -10   71.28    5.25
   0   7  10   65.96    5.23
   0  -7  10   70.17    5.41
  -1   7  10   18.29    1.91
   1  -7  10   17.27    2.16
   1   7 -10   15.80    1.84
  -1   7 -10   19.03    1.94
   1   7  10   16.83    1.85
   1   7  10   22.03    2.01
  -1  -7  10   17.49    2.19
   2  -7  10   76.06    5.33
   2   7 -10   82.44    5.26
  -2   7  10   80.00    5.14
   2   7  10   59.05    5.37
  -2  -7  10   56.04    5.32
  -2   7 -10   59.19    5.23
   2   7  10   63.03    5.05
   3   7 -10    3.42    1.27
  -3   7  10    1.33    1.42
   3  -7  10    1.85    1.34
   3   7  10    5.84    1.40
  -3  -7  10    6.76    1.31
  -3  -7  10    5.89    1.60
   3   7  10    8.53    1.53
  -3   7 -10    7.24    1.44
  -4   7  10    4.03    1.57
   4   7 -10    4.50    1.41
   4  -7  10    2.89    1.36
  -4  -7  10    8.89    1.72
   4   7  10    7.66    1.70
  -4  -7  10    8.50    1.59
   4   7  10    8.18    1.58
  -4   7 -10    5.70    1.51
   5   7 -10   10.44    1.87
   5  -7  10   11.02    1.65
  -5   7  10   10.12    2.01
   5   7  10   14.01    2.17
  -5  -7  10    8.52    1.84
  -5   7 -10   12.48    1.99
  -5  -7  10   14.01    2.07
  -6   7  10   32.54    3.29
   6   7 -10   34.13    3.59
  -6   7 -10   26.80    3.16
  -6  -7  10   35.81    3.32
  -6  -7  10   29.94    3.19
   6   7  10   26.97    3.25
  -7   7  10   19.27    2.98
   7   7 -10   19.61    2.69
  -7   7 -10   27.29    3.10
   7   7  10   27.76    3.19
  -7  -7  10   22.92    2.95
  -8   7  10   14.31    2.90
   8   7 -10   11.60    2.19
   8   7  10    9.42    2.45
  -8   7 -10   10.76    2.62
  -8  -7  10   18.03    2.79
  -9   7  10    0.29    2.75
  -9  -7  10    6.95    2.52
   9   7  10    4.55    2.30
  -9   7 -10    3.77    2.63
   0   8  10   24.94    2.77
   0   8 -10   27.02    2.77
   0   8  10   30.84    2.79
   0  -8  10   25.29    2.83
   1   8 -10   38.41    3.37
  -1   8  10   34.94    3.30
   1  -8  10   32.71    3.57
   1   8  10   37.39    3.44
  -1  -8  10   34.97    3.63
   1   8  10   38.30    3.23
  -1   8 -10   38.68    3.31
  -2   8  10   -0.07    1.27
   2   8 -10   -0.23    1.15
   2  -8  10   -1.20    1.41
  -2   8 -10    0.24    1.19
  -2  -8  10   -1.55    1.37
   2   8  10   -0.18    1.20
   2   8  10   -0.60    1.08
   3  -8  10    8.93    1.72
   3   8 -10    7.27    1.52
  -3   8  10    8.70    1.70
  -3   8 -10    5.53    1.53
  -3  -8  10    8.04    1.83
   3   8  10    9.18    1.59
   3   8  10    6.44    1.58
   4   8 -10   16.04    2.32
  -4   8  10   19.33    2.47
   4  -8  10   18.77    2.36
   4   8  10   22.33    2.39
  -4  -8  10   26.72    2.46
  -4  -8  10   26.36    2.62
   4   8  10   21.30    2.56
  -4   8 -10   25.64    2.75
   5  -8  10   44.10    3.88
  -5   8  10   42.34    4.23
   5   8 -10   48.60    4.36
  -5  -8  10   51.16    4.47
   5   8  10   44.53    4.45
   5   8  10   45.41    4.14
  -5   8 -10   39.50    4.08
  -5  -8  10   47.19    4.12
   6   8 -10   17.82    2.46
  -6   8  10   21.25    2.66
  -6  -8  10   16.14    2.27
  -6   8 -10   11.45    2.35
  -6  -8  10   19.89    2.51
   6   8  10   13.75    2.45
  -7   8  10    6.62    2.43
   7   8 -10    9.10    2.07
  -7   8 -10    8.29    2.35
  -7  -8  10   13.27    2.47
   7   8  10    9.76    2.27
   8   8 -10   10.81    2.22
  -8   8  10   11.53    2.92
   8   8  10   10.55    2.39
  -8   8 -10    9.42    2.69
  -8  -8  10   15.42    2.69
   0   9 -10    5.80    1.41
   0   9  10    5.41    1.46
   0  -9  10    3.19    1.69
   1   9 -10   93.62    7.02
   1  -9  10   84.88    7.06
  -1   9  10   89.78    6.80
   1   9  10  101.55    7.15
  -1  -9  10   95.07    7.18
  -1   9 -10   97.72    7.06
   2   9 -10   18.06    2.12
  -2   9  10   20.16    2.27
   2  -9  10   18.40    2.48
   2   9  10   19.03    2.14
  -2  -9  10   17.85    2.47
   2   9  10   20.07    2.27
  -2   9 -10   17.08    2.17
   3   9 -10    1.57    1.38
  -3   9  10    0.58    1.53
   3  -9  10    2.02    1.62
  -3   9 -10    4.97    1.55
  -3  -9  10    4.52    1.70
   3   9  10    3.25    1.46
   3   9  10    6.17    1.60
  -4   9  10    9.84    2.04
   4  -9  10   10.26    1.90
   4   9 -10    9.90    1.86
   4   9  10    8.96    1.93
   4   9  10   10.02    1.88
  -4  -9  10   11.81    2.04
  -4   9 -10    8.32    1.87
  -5   9  10   10.26    2.23
   5   9 -10   12.07    2.14
   5  -9  10   11.35    1.93
  -5  -9  10   14.94    2.19
   5   9  10   15.55    2.19
   5   9  10   12.05    2.20
  -5   9 -10   11.94    2.14
  -6   9  10    7.65    2.27
   6   9 -10   12.56    2.18
   6   9  10    6.97    2.10
  -6   9 -10    4.83    2.05
  -6  -9  10    5.99    1.88
   7   9 -10    6.95    2.17
  -7   9  10    8.74    2.60
  -7   9 -10    6.04    2.24
   7   9  10   11.43    2.35
  -7  -9  10   10.07    2.37
  -8   9  10    0.91    2.62
   8   9 -10    1.89    1.96
  -8  -9  10    9.10    2.41
  -8   9 -10    1.17    2.39
   8   9  10    6.66    2.16
   0  10 -10   44.37    3.88
   0 -10  10   40.03    4.22
   0  10  10   44.01    3.81
   1 -10  10   15.21    2.41
  -1  10  10   13.36    1.99
   1  10 -10   12.72    1.95
   1  10  10   14.48    1.96
  -1 -10  10   15.29    2.39
   1  10  10   15.46    2.04
  -1  10 -10   17.85    2.09
   2 -10  10   -0.78    1.68
   2  10 -10    1.84    1.39
  -2  10  10    1.31    1.54
  -2  10 -10    2.73    1.49
   2  10  10    1.92    1.47
  -2 -10  10    4.34    1.85
   2  10  10    3.89    1.46
   3 -10  10    9.54    2.11
   3  10 -10    9.07    1.72
  -3  10  10    8.33    1.88
   3  10  10    7.64    1.75
   3  10  10    4.64    1.65
  -3 -10  10    9.73    2.03
  -3  10 -10    4.02    1.73
   4 -10  10    6.85    1.95
  -4  10  10    7.97    2.01
   4  10 -10    6.69    1.79
  -4 -10  10    8.07    1.96
  -4  10 -10    5.40    1.85
   4  10  10    5.17    1.79
   4  10  10    7.63    1.96
  -5  10  10   28.16    3.18
   5  10 -10   27.05    3.11
   5  10  10   32.57    3.22
  -5 -10  10   26.21    3.01
  -5  10 -10   21.65    2.97
   5  10  10   27.73    2.99
   6  10 -10    6.21    2.09
  -6  10  10    2.11    2.25
   6  10  10   12.85    2.36
  -6 -10  10    9.62    2.05
  -6  10 -10    9.36    2.23
  -7  10  10    4.95    2.61
   7  10 -10    7.06    2.23
   7  10  10   13.95    2.50
  -7  10 -10    9.01    2.45
   0  11 -10    1.41    1.42
   0  11  10   -0.06    1.43
   0 -11  10    0.79    1.81
   1  11 -10   26.39    3.17
   1 -11  10   24.97    3.31
  -1  11  10   31.62    3.03
  -1 -11  10   29.23    3.33
  -1  11 -10   36.88    3.30
   1  11  10   33.44    3.15
  -2  11  10   24.12    2.77
   2 -11  10   21.93    3.08
   2  11 -10   21.35    2.70
   2  11  10   36.97    3.63
  -2  11 -10   31.62    3.21
   2  11  10   29.15    3.07
  -2 -11  10   30.61    3.24
  -3  11  10   11.87    2.20
   3 -11  10    9.08    2.29
   3  11 -10    9.50    1.93
   3  11  10   17.05    2.26
   3  11  10    8.60    1.96
  -3  11 -10   11.83    2.10
  -3 -11  10   14.93    2.39
  -4  11  10   10.67    2.26
   4  11 -10    7.41    1.95
   4 -11  10    8.60    2.21
  -4 -11  10   13.92    2.28
   4  11  10   10.80    2.14
   4  11  10    8.50    2.04
  -4  11 -10    8.68    2.09
  -5  11  10   -0.70    2.04
   5  11 -10   -1.55    1.73
  -5 -11  10    0.88    1.83
  -5  11 -10    1.35    1.90
   5  11  10    1.98    1.83
   5  11  10    3.97    1.87
   6  11 -10    8.18    2.21
  -6  11  10    6.42    2.56
   6  11  10    7.49    2.24
  -6  11 -10    2.52    2.16
  -6 -11  10    5.35    1.98
  -7  11  10    0.38    2.55
   7  11 -10    2.46    2.13
   7  11  10    4.41    2.17
  -7  11 -10   -0.36    2.24
   0  12  10   11.18    2.01
   0 -12  10   10.07    2.45
   0  12 -10   11.15    1.97
  -1  12  10    1.66    1.68
   1 -12  10   -1.16    1.98
   1  12 -10    1.04    1.49
   1  12  10    1.33    1.63
  -1 -12  10    3.80    2.05
  -1  12 -10    1.29    1.60
  -2  12  10    9.64    2.00
   2  12 -10    5.77    1.75
   2 -12  10    8.18    2.36
  -2 -12  10    7.98    2.24
   2  12  10    6.13    1.83
   2  12  10   11.57    2.03
  -2  12 -10    7.99    1.94
   3 -12  10   11.75    2.56
   3  12 -10   14.02    2.25
  -3  12  10   15.78    2.42
   3  12  10   13.69    2.22
  -3 -12  10   16.41    2.65
   3  12  10   16.69    2.43
  -3  12 -10   13.34    2.32
   4  12 -10   10.05    2.14
  -4  12  10   14.80    2.55
   4 -12  10   12.40    2.52
  -4 -12  10   12.38    2.40
   4  12  10    6.26    2.11
   4  12  10   15.21    2.42
  -4  12 -10   10.27    2.29
  -5  12  10    7.17    2.46
   5  12 -10    4.13    2.11
   5  12  10    6.00    2.07
  -5  12 -10    5.01    2.22
  -5 -12  10   10.78    2.26
   5  12  10    9.20    2.25
   6  12 -10    1.06    2.04
  -6  12  10    3.14    2.47
  -6  12 -10    3.40    2.32
  -6 -12  10    4.89    2.02
   6  12  10    7.81    2.27
   0  13 -10    0.76    1.64
   0 -13  10   -0.06    2.08
   0  13  10   -0.91    1.68
  -1  13  10    7.14    2.02
   1 -13  10    8.60    2.48
   1  13 -10    5.37    1.66
  -1  13 -10    4.17    1.81
  -1 -13  10    6.73    2.32
   1  13  10    2.95    1.78
   2 -13  10   18.60    3.03
  -2  13  10   23.01    2.68
   2  13 -10   14.86    2.40
  -2  13 -10   17.17    2.53
   2  13  10   18.26    2.44
  -2 -13  10   16.72    2.86
  -3  13  10   10.24    2.28
   3 -13  10    9.54    2.59
   3  13 -10    7.42    1.99
   3  13  10    8.48    2.25
  -3 -13  10   14.69    2.63
   3  13  10    5.84    1.96
  -3  13 -10    6.50    2.14
   4  13 -10    6.91    2.08
  -4  13  10   12.52    2.50
   4 -13  10   11.75    2.60
  -4  13 -10    6.55    2.27
   4  13  10   12.07    2.38
   4  13  10    7.22    2.19
  -4 -13  10   10.39    2.44
  -5  13  10    3.76    2.55
   5  13 -10    6.27    2.27
  -5  13 -10    7.90    2.47
   5  13  10   14.85    2.68
  -5 -13  10   15.67    2.52
   0  14  10    2.90    1.85
   0  14 -10    3.25    1.72
   0 -14  10    2.19    2.40
   1  14 -10    9.98    2.12
   1 -14  10   14.31    2.92
  -1  14  10   11.30    2.27
  -1  14 -10   10.36    2.23
  -1 -14  10   11.34    2.71
   1  14  10   11.98    2.21
   2  14 -10    3.40    1.79
   2 -14  10    4.42    2.52
  -2  14  10    4.05    2.14
  -2  14 -10    3.86    2.04
  -2 -14  10    7.01    2.44
   2  14  10    3.42    1.90
  -3  14  10   10.65    2.52
   3  14 -10    7.92    2.16
   3 -14  10   10.67    2.78
   3  14  10   10.45    2.22
  -3 -14  10   12.92    2.78
  -3  14 -10    9.81    2.42
   4 -14  10    5.44    2.54
  -4 -14  10    4.34    2.38
   4  14  10    8.51    2.35
   4  14  10    4.57    2.13
   0  15  10   13.96    2.46
   0 -15  10   16.30    3.15
   0  15 -10   11.32    2.24
   1 -15  10    4.50    2.67
  -1  15  10    8.27    2.23
   1  15 -10    3.31    1.86
  -1  15 -10    6.44    2.18
  -1 -15  10    5.26    2.61
   1  15  10    4.98    2.08
   1   0  11    7.45    0.82
   1   0 -11    6.84    0.72
  -1   0  11    6.23    1.10
   1   0  11    6.36    1.03
  -1   0 -11    6.43    0.87
  -1   0  11    6.15    0.88
  -2   0 -11   28.32    2.32
   2   0  11   28.73    2.33
   2   0  11   25.37    2.15
  -2   0  11   26.96    2.30
   2   0 -11   24.58    2.03
  -2   0  11   27.83    2.56
  -3   0  11    3.56    1.13
   3   0  11    3.81    0.85
  -3   0 -11    3.07    0.94
  -3   0  11    3.08    0.95
   3   0 -11    4.29    0.64
   4   0  11  101.90    6.69
  -4   0  11   93.03    6.90
  -4   0  11   94.78    6.91
  -4   0 -11   97.79    7.14
  -5   0  11    1.70    1.37
  -5   0 -11    1.30    1.27
  -5   0  11    3.70    1.25
   5   0  11    3.19    1.34
   5   0  11    3.06    0.82
   6   0  11  109.85    7.93
  -6   0  11  104.27    7.71
  -6   0 -11  104.65    7.94
  -6   0  11   96.62    7.39
  -7   0  11    1.45    1.88
  -7   0 -11    0.44    1.77
   7   0  11   -1.38    1.77
  -7   0 -11    0.92    1.71
  -8   0  11   19.26    3.04
  -8   0 -11   17.20    2.96
   8   0  11   25.74    3.26
  -8   0 -11   16.24    2.61
  -9   0  11    0.13    2.59
  -9   0 -11    1.86    2.17
  -9   0 -11    1.79    2.50
 -10   0  11   -0.53    2.95
 -10   0 -11   -0.46    2.64
   0   1  11  408.41   26.48
   0   1  11  401.54   26.49
   0  -1  11  399.89   26.41
   0  -1  11  403.26   26.51
   0  -1 -11  393.62   27.39
   0   1 -11  391.95   27.43
  -1   1  11    7.69    0.98
  -1   1  11    7.22    1.16
   1   1 -11    8.29    0.85
   1  -1  11    7.78    0.78
   1  -1  11    6.16    1.07
  -1  -1 -11    7.22    0.90
   1   1  11    7.71    1.06
  -1   1 -11    8.26    0.95
  -1  -1  11    6.70    1.16
   1   1  11    7.99    0.93
  -1  -1  11    8.02    0.88
  -2   1  11    2.45    0.98
   2  -1  11    2.30    0.62
  -2  -1 -11    1.66    0.73
   2  -1  11    3.09    0.84
  -2   1  11    1.57    0.83
   2   1 -11    2.10    0.58
   2   1  11    1.39    0.69
  -2   1 -11    0.94    0.74
   2   1  11    0.55    0.74
  -2  -1  11    1.78    0.74
  -2  -1  11    1.60    0.99
  -3   1  11    1.49    0.97
   3  -1  11    1.57    0.79
   3   1 -11    1.98    0.62
  -3   1  11    1.35    1.01
  -3   1 -11    2.17    0.90
  -3  -1  11    0.07    1.01
   3   1  11    0.58    0.79
   3   1  11    3.10    0.91
   3   1  11    1.54    0.76
  -3  -1  11    2.73    0.89
  -4   1  11   60.59    4.81
  -4   1  11   56.27    4.79
   4   1 -11   58.64    4.71
   4  -1  11   59.58    4.52
   4   1  11   68.02    4.94
  -4   1 -11   68.97    4.96
  -4  -1  11   65.99    4.85
   4   1  11   69.26    4.54
  -4  -1  11   64.27    4.87
  -5   1  11   11.11    1.78
   5  -1  11   11.06    1.21
  -5   1  11   10.21    1.62
  -5  -1  11   10.42    1.60
   5   1  11   11.20    1.18
  -5   1 -11   10.52    1.66
  -5  -1  11    9.68    1.69
   5   1  11   11.49    1.77
  -6   1  11   32.78    3.23
  -6   1  11   32.63    3.20
  -6   1 -11   33.98    3.15
  -6  -1  11   31.22    3.21
   6   1  11   34.74    3.56
  -6   1 -11   33.69    3.53
  -6  -1  11   33.35    3.23
  -7   1  11    1.13    1.88
   7   1  11    1.80    1.88
  -7  -1  11   -0.87    1.83
  -7   1 -11    1.64    1.64
  -7   1 -11   -0.77    1.73
  -8  -1 -11    3.88    2.00
  -8   1  11    4.42    2.43
   8   1  11    0.65    2.20
  -8  -1  11   -2.20    2.16
  -8   1 -11    4.49    1.99
  -8   1 -11    3.07    2.19
  -9  -1 -11    0.95    2.38
  -9  -1 -11    4.13    2.27
  -9   1  11    0.00    2.68
   9   1  11   -1.82    2.48
  -9   1 -11    3.64    2.44
  -9  -1  11    0.11    2.52
 -10   1  11   13.45    3.36
 -10  -1 -11   15.22    2.84
 -10  -1 -11    7.20    2.93
 -10   1 -11   13.80    3.31
  10   1  11    7.99    3.32
 -10  -1  11   14.69    3.36
   0   2  11    0.09    0.68
   0  -2  11    1.04    0.44
   0  -2 -11   -0.53    0.43
   0  -2  11   -0.73    0.88
   0   2  11   -0.08    0.78
   0   2 -11    0.59    0.58
   1  -2  11   68.98    4.96
   1   2 -11   67.35    4.92
  -1   2  11   69.73    4.90
   1  -2  11   65.01    4.63
  -1  -2 -11   68.35    4.91
  -1   2  11   69.36    4.98
   1   2  11   64.41    4.83
   1   2  11   74.28    4.94
  -1  -2  11   69.46    4.73
   1   2  11   69.44    4.90
  -1   2 -11   68.11    5.00
  -1  -2  11   70.23    5.06
  -2   2  11  173.11   11.01
   2   2 -11  170.28   11.22
   2  -2  11  179.21   10.95
  -2   2  11  174.28   10.94
  -2  -2  11  154.02   10.83
   2   2  11  149.26   11.26
   2   2  11  160.38   10.89
  -2   2 -11  146.80   11.30
  -2  -2  11  155.94   11.05
   2   2  11  153.48   10.86
  -3   2  11   24.19    2.51
  -3   2  11   22.79    2.44
   3   2 -11   24.06    2.20
   3  -2  11   24.62    2.21
  -3   2 -11   24.43    2.34
   3   2  11   23.15    2.20
   3   2  11   24.25    2.29
   3   2  11   26.14    2.36
  -3  -2  11   23.63    2.35
  -3  -2  11   23.83    2.38
   4   2 -11   82.29    6.27
  -4   2  11   82.97    6.25
  -4   2  11   87.78    6.28
   4  -2  11   83.01    5.98
   4   2  11   87.55    6.46
  -4  -2  11   84.93    6.23
  -4   2 -11   87.64    6.40
  -4  -2  11   89.50    6.32
   4   2  11   89.22    5.99
  -5   2  11    5.38    1.52
   5   2 -11    7.47    1.18
   5  -2  11    6.07    1.01
  -5   2  11    6.37    1.42
   5   2  11    7.67    1.62
  -5  -2  11    8.33    1.53
  -5   2 -11    4.91    1.37
  -5   2 -11    6.31    1.48
  -5  -2  11    7.72    1.58
  -6   2  11   27.83    2.83
  -6   2  11   24.55    2.52
  -6  -2  11   24.62    2.86
  -6   2 -11   25.62    2.81
  -6   2 -11   24.94    2.58
   6   2  11   25.31    2.91
  -6  -2  11   27.57    2.87
  -7   2  11   12.09    2.36
   7   2  11    8.69    2.23
  -7   2 -11    8.73    1.91
  -7  -2  11   10.71    2.34
  -7   2 -11    9.69    2.20
  -8   2  11    6.06    2.43
  -8   2 -11    4.44    2.28
   8   2  11    7.35    2.43
  -8  -2  11    6.03    2.50
  -9  -2 -11    4.48    2.28
  -9   2  11   -0.53    2.57
  -9   2 -11    2.92    2.52
   9   2  11    3.76    2.63
  -9  -2  11    3.12    2.66
 -10   2  11    2.45    3.03
 -10  -2 -11    4.38    2.50
 -10   2 -11    3.68    2.92
  10   2  11    2.48    2.90
 -10  -2  11    4.29    2.90
   0   3 -11  200.14   14.31
   0   3  11  215.93   14.22
   0  -3  11  210.51   13.96
   0   3  11  207.98   13.86
   0  -3 -11  195.92   14.20
   0   3  11  209.70   13.88
   1   3 -11    1.01    0.68
   1  -3  11    2.07    0.95
  -1   3  11    0.67    0.89
  -1   3  11    1.09    0.82
  -1  -3  11    1.63    0.51
  -1  -3  11    1.62    1.05
   1   3  11    1.53    0.83
   1   3  11    1.53    0.62
  -1   3 -11    1.08    0.74
   1   3  11    0.82    0.78
   2  -3  11   34.73    3.18
  -2   3  11   36.14    3.31
   2   3 -11   37.25    3.12
  -2   3  11   39.07    3.22
  -2  -3  11   40.63    3.41
   2   3  11   39.94    3.10
   2   3  11   38.73    3.16
  -2   3 -11   44.19    3.21
   2   3  11   40.67    3.07
  -2  -3  11   43.16    3.00
  -3   3  11   62.57    4.34
   3   3 -11   60.51    4.24
   3  -3  11   56.78    4.16
  -3   3  11   56.49    4.31
  -3  -3  11   54.03    4.38
  -3   3 -11   55.35    4.33
  -3  -3  11   50.81    4.16
   3   3  11   51.75    4.35
   3   3  11   52.90    4.16
   3   3  11   56.44    4.10
  -4   3  11  195.73   13.34
  -4   3  11  193.84   13.32
   4  -3  11  193.15   13.12
   4   3 -11  198.43   13.71
   4   3  11  191.52   13.86
   4   3  11  193.95   13.08
  -4  -3  11  198.32   13.38
  -4   3 -11  194.33   13.80
  -4  -3  11  196.49   13.30
   4   3  11  198.63   13.26
   5  -3  11    3.91    0.94
  -5   3  11    2.64    1.49
   5   3 -11    3.98    1.09
  -5   3  11    3.93    1.32
  -5   3 -11    3.41    1.34
  -5  -3  11    3.11    1.37
   5   3  11    2.23    1.44
  -5  -3  11    2.92    1.43
  -6   3  11    6.41    1.53
  -6   3  11    6.38    1.88
   6   3 -11    7.12    1.37
  -6   3 -11    8.58    1.78
   6   3  11    8.99    2.01
  -6  -3  11    8.87    1.65
  -6  -3  11    9.16    1.98
  -7   3  11    2.39    1.95
   7   3  11    1.52    1.96
  -7  -3  11    1.10    1.97
  -7   3 -11    0.13    1.74
  -8   3  11   10.22    2.70
  -8  -3  11   11.91    2.65
  -8   3 -11    7.18    2.37
   8   3  11    5.66    2.41
  -9  -3 -11    5.08    2.42
  -9   3  11    0.75    2.71
  -9   3 -11    2.01    2.47
   9   3  11   -0.26    2.40
  -9  -3  11    2.94    2.67
 -10   3  11    5.22    3.22
 -10  -3 -11   10.15    2.79
 -10  -3  11   11.96    3.11
  10   3  11    6.31    3.03
 -10   3 -11    8.91    3.09
   0   4  11    8.75    0.86
   0   4  11    6.78    1.12
   0  -4  11    7.48    1.39
   0   4  11    8.32    1.21
   0   4 -11    8.29    1.10
  -1   4  11    6.40    1.15
   1  -4  11    4.47    1.26
   1   4 -11    6.01    1.04
  -1   4  11    5.73    1.19
   1   4  11   10.34    1.04
  -1   4 -11    7.56    1.12
  -1  -4  11   12.63    1.56
   1   4  11    8.02    1.14
  -1  -4  11   10.99    1.09
   1   4  11    9.28    1.20
  -2   4  11  204.60   14.06
   2   4 -11  205.70   14.47
   2  -4  11  202.68   14.03
  -2   4  11  205.74   14.04
   2   4  11  206.36   13.99
   2   4  11  211.12   13.96
  -2   4 -11  209.28   14.54
   2   4  11  213.32   14.53
  -2  -4  11  216.79   14.20
  -2  -4  11  205.91   13.88
   3   4 -11   36.73    3.10
   3  -4  11   35.90    3.01
  -3   4  11   36.30    3.22
  -3   4  11   34.28    3.16
  -3  -4  11   35.80    3.10
   3   4  11   32.45    3.15
  -3   4 -11   39.00    3.22
  -3  -4  11   40.11    3.34
   3   4  11   34.37    3.03
   4   4 -11    5.08    1.17
   4  -4  11    4.98    1.12
  -4   4  11    4.64    1.42
  -4   4  11    5.82    1.40
  -4  -4  11    8.07    1.38
   4   4  11    6.91    1.39
   4   4  11    7.86    1.52
  -4   4 -11    5.86    1.37
  -4  -4  11    7.96    1.60
  -5   4  11    4.21    1.38
   5   4 -11    4.92    1.25
   5  -4  11    4.15    1.03
  -5   4  11    3.60    1.57
  -5   4 -11    5.09    1.51
  -5  -4  11    2.27    1.39
   5   4  11    2.94    1.56
  -5  -4  11    2.47    1.48
  -6   4  11   20.92    2.50
   6   4 -11   20.77    2.06
   6   4  11   13.02    2.38
  -6  -4  11   11.27    2.24
  -6   4 -11   14.62    2.24
  -6  -4  11   10.88    1.98
  -7   4  11    3.89    2.11
   7   4 -11    5.60    1.48
  -7   4 -11    7.24    2.04
  -7  -4  11    5.66    2.19
   7   4  11    3.93    2.11
  -8   4  11   45.28    5.07
   8   4  11   49.22    5.12
  -8  -4  11   53.98    5.29
  -8   4 -11   50.94    5.02
  -9   4  11    6.18    2.91
  -9   4 -11    6.80    2.78
   9   4  11    3.64    2.61
  -9  -4  11    8.52    2.73
   0   5  11   28.10    2.37
   0   5  11   28.41    2.63
   0   5  11   30.15    2.72
   0  -5  11   28.27    2.88
   0   5 -11   30.94    2.62
   1   5 -11   25.34    2.37
   1  -5  11   25.88    2.69
  -1   5  11   24.76    2.58
  -1   5  11   25.22    2.50
   1   5  11   23.39    2.36
  -1   5 -11   26.44    2.35
   1   5  11   22.73    2.44
  -1  -5  11   25.16    2.72
  -2   5  11   16.94    1.92
   2  -5  11   16.52    1.99
   2   5 -11   19.52    2.14
  -2   5  11   14.48    1.93
  -2   5 -11   22.19    2.16
   2   5  11   21.98    2.14
  -2  -5  11   20.88    1.92
  -2  -5  11   17.13    2.16
   2   5  11   21.90    2.00
   3   5 -11   -0.32    0.95
  -3   5  11   -0.30    1.12
  -3   5  11   -0.39    1.14
   3  -5  11   -0.41    1.03
  -3  -5  11   -0.31    0.93
  -3   5 -11    0.15    1.07
   3   5  11   -0.45    1.06
   3   5  11   -1.08    1.07
  -3  -5  11   -0.25    1.27
  -4   5  11  102.69    7.00
   4  -5  11   98.44    6.74
   4   5 -11  101.36    7.07
  -4  -5  11   90.19    6.95
   4   5  11   95.76    6.88
  -4  -5  11   89.65    7.02
  -4   5 -11   94.05    7.13
   4   5  11   88.55    7.33
  -5   5  11   13.74    2.11
   5   5 -11   16.94    1.96
   5  -5  11   16.01    1.69
   5   5  11   14.70    2.22
  -5   5 -11   14.57    2.04
  -5  -5  11   13.83    2.08
  -5  -5  11   12.80    2.02
  -6   5  11    3.58    1.82
   6   5 -11    2.93    1.39
  -6  -5  11    7.05    1.97
  -6   5 -11    5.95    1.74
   6   5  11    5.13    1.91
  -6  -5  11    7.88    1.66
   7   5 -11    7.33    1.67
  -7   5  11    4.06    2.18
   7   5  11   10.06    2.29
  -7   5 -11    6.12    2.02
  -7  -5  11    9.14    2.30
  -8   5  11    8.46    2.71
  -8  -5  11    7.26    2.50
   8   5  11    4.68    2.39
  -8   5 -11    9.13    2.47
  -9   5  11    0.75    2.75
  -9   5 -11    0.54    2.48
   9   5  11   -1.71    2.29
  -9  -5  11    5.36    2.60
   0   6  11    9.84    1.15
   0   6 -11    7.98    1.32
   0   6  11    9.49    1.37
   0  -6  11    9.68    1.68
   1   6 -11   11.25    1.49
  -1   6  11   10.49    1.54
   1  -6  11   10.63    1.74
   1   6  11   11.93    1.54
   1   6  11   15.21    1.54
  -1  -6  11   10.73    1.85
  -1   6 -11   14.56    1.59
  -2   6  11   23.69    2.51
   2   6 -11   24.97    2.63
   2  -6  11   26.35    2.67
  -2  -6  11   26.89    2.80
   2   6  11   34.59    2.73
  -2   6 -11   32.88    2.82
   2   6  11   32.44    2.97
  -3   6  11   16.29    1.96
   3   6 -11   23.03    2.31
   3  -6  11   16.73    1.93
   3   6  11   14.41    1.96
  -3   6 -11   12.48    1.82
  -3  -6  11   13.14    2.08
   3   6  11   16.95    1.86
  -3  -6  11   15.53    1.72
   4  -6  11    1.25    1.16
  -4   6  11    1.22    1.40
   4   6 -11    2.29    1.20
   4   6  11    1.10    1.29
  -4  -6  11    0.24    1.27
   4   6  11   -0.27    1.37
  -4  -6  11    0.21    1.41
  -4   6 -11    1.25    1.31
   5   6 -11   29.70    3.38
   5  -6  11   29.62    2.91
  -5   6  11   25.88    3.02
  -5  -6  11   36.72    3.41
   5   6  11   36.09    3.83
  -5  -6  11   34.97    3.17
  -5   6 -11   31.85    3.36
   6   6 -11   11.82    1.87
  -6   6  11   10.20    2.12
  -6  -6  11    3.14    1.83
  -6  -6  11    6.54    1.73
   6   6  11    5.43    2.01
  -6   6 -11    4.84    1.82
  -7   6  11    3.53    2.14
   7   6 -11    2.16    1.55
  -7   6 -11   -1.12    1.77
  -7  -6  11    2.26    2.07
   7   6  11   -0.72    1.85
  -8   6  11   29.82    3.67
  -8  -6  11   31.26    3.56
   8   6  11   27.47    3.60
  -8   6 -11   28.49    3.61
  -9   6  11   -3.07    2.68
  -9  -6  11    4.24    2.45
  -9   6 -11   -0.88    2.46
   9   6  11   -1.70    2.22
   0   7  11  138.93    9.60
   0   7  11  135.35    9.86
   0   7 -11  139.66    9.93
   0  -7  11  143.10    9.90
  -1   7  11   58.85    4.32
   1  -7  11   54.07    4.53
   1   7 -11   57.19    4.33
   1   7  11   51.44    4.38
  -1   7 -11   53.97    4.39
   1   7  11   50.24    4.17
   2  -7  11    1.99    1.38
  -2   7  11    1.95    1.28
   2   7 -11    2.62    1.16
   2   7  11    2.76    1.20
   2   7  11    3.18    1.24
  -2   7 -11    2.59    1.24
  -2  -7  11   -0.28    1.36
   3   7 -11    1.68    1.21
   3  -7  11    1.62    1.34
  -3   7  11    2.10    1.40
  -3   7 -11    2.75    1.30
  -3  -7  11    2.56    1.50
   3   7  11    3.59    1.35
   3   7  11    2.47    1.34
   4  -7  11   26.70    2.88
   4   7 -11   30.29    2.99
  -4   7  11   29.11    2.80
  -4  -7  11   24.09    2.81
   4   7  11   31.37    3.04
  -4   7 -11   23.92    2.69
  -4  -7  11   28.39    2.65
   4   7  11   25.65    2.91
   5   7 -11   -1.07    1.34
  -5   7  11   -1.28    1.61
   5  -7  11   -0.91    1.19
   5   7  11   -0.03    1.59
  -5   7 -11    0.35    1.50
   5   7  11    0.40    1.53
  -5  -7  11    0.60    1.50
  -5  -7  11   -0.60    1.46
   6   7 -11   16.84    2.49
  -6   7  11   18.10    2.73
  -6  -7  11   23.55    2.75
   6   7  11   21.49    2.86
  -6   7 -11   20.77    2.67
  -6  -7  11   24.23    2.62
  -7   7  11    0.35    2.20
   7   7 -11    5.73    1.80
  -7   7 -11    3.86    2.05
  -7  -7  11    9.37    2.30
   7   7  11    4.11    2.09
   8   7 -11    6.40    1.96
  -8   7  11    4.14    2.61
  -8  -7  11   12.43    2.60
  -8   7 -11    9.00    2.53
   8   7  11    8.18    2.38
  -9   7  11    7.23    3.12
  -9   7 -11    7.90    2.87
  -9  -7  11   13.36    2.83
   9   7  11   10.15    2.68
   0   8 -11    7.24    1.42
   0   8  11    7.16    1.45
   0  -8  11    4.10    1.68
   1   8 -11    2.06    1.22
   1  -8  11   -0.13    1.48
  -1   8  11    1.66    1.25
  -1   8 -11    0.58    1.22
   1   8  11    0.42    1.22
  -1  -8  11    0.36    1.48
   1   8  11   -0.47    1.05
   2  -8  11   60.38    5.38
  -2   8  11   64.85    5.20
   2   8 -11   70.13    5.32
  -2   8 -11   71.70    5.30
   2   8  11   68.92    5.12
  -2  -8  11   66.79    5.44
   2   8  11   65.48    5.46
   3   8 -11    1.64    1.32
  -3   8  11    2.84    1.53
   3  -8  11    1.45    1.47
  -3   8 -11    1.04    1.36
   3   8  11    0.11    1.35
   3   8  11    1.38    1.33
  -3  -8  11    0.22    1.50
   4  -8  11   39.77    3.63
  -4   8  11   34.12    3.69
   4   8 -11   40.41    3.80
   4   8  11   35.52    3.60
   4   8  11   38.93    4.12
  -4   8 -11   37.10    3.67
  -4  -8  11   37.58    3.75
   5   8 -11   16.53    2.37
   5  -8  11   20.22    2.22
  -5   8  11   18.76    2.57
   5   8  11   17.97    2.58
  -5   8 -11   17.44    2.42
   5   8  11   19.69    2.48
  -5  -8  11   19.87    2.46
  -6   8  11    9.86    2.42
   6   8 -11   13.89    2.28
  -6   8 -11   14.98    2.40
   6   8  11   15.44    2.47
  -6  -8  11   12.15    2.18
  -6  -8  11   18.16    2.44
   7   8 -11    5.22    1.93
  -7   8  11    3.12    2.32
  -7   8 -11    4.49    2.16
   7   8  11    3.80    2.08
  -7  -8  11    6.45    2.14
  -8   8  11    2.14    2.63
   8   8 -11    5.75    1.94
  -8   8 -11    3.36    2.44
   8   8  11    3.02    2.18
  -8  -8  11    9.19    2.46
   0  -9  11  162.96   11.88
   0   9  11  166.41   11.58
   0   9 -11  173.52   12.01
  -1   9  11    4.20    1.53
   1   9 -11    6.69    1.56
   1  -9  11    5.08    1.89
   1   9  11    7.17    1.54
  -1   9 -11    6.75    1.53
  -1  -9  11    5.57    1.89
   1   9  11    8.08    1.49
   2   9 -11    8.36    1.64
   2  -9  11    8.23    1.99
  -2   9  11   10.35    1.80
   2   9  11   10.36    1.70
   2   9  11   10.36    1.75
  -2   9 -11   11.99    1.82
  -2  -9  11   10.95    2.07
  -3   9  11    7.94    1.82
   3   9 -11    3.42    1.54
   3  -9  11    3.58    1.76
   3   9  11    6.57    1.65
   3   9  11    6.12    1.64
  -3   9 -11    6.24    1.67
  -3  -9  11   10.44    2.02
   4   9 -11   21.50    2.67
  -4   9  11   24.09    2.81
   4  -9  11   26.23    2.78
   4   9  11   27.82    2.93
   4   9  11   23.80    2.64
  -4  -9  11   24.42    2.82
  -4   9 -11   26.78    2.80
  -5   9  11    5.74    2.04
   5   9 -11    2.28    1.71
  -5  -9  11    3.00    1.77
  -5   9 -11    4.00    1.81
   5   9  11    4.12    1.87
   5   9  11    7.18    1.99
   6   9 -11    9.74    2.11
  -6   9  11    5.48    2.31
  -6   9 -11    7.43    2.12
  -6  -9  11    8.51    1.97
   6   9  11    7.67    2.17
   7   9 -11    0.92    1.82
  -7   9  11   -0.06    2.31
   7   9  11    2.89    2.04
  -7   9 -11   -1.23    2.03
   8   9 -11    4.52    2.07
  -8   9  11    0.77    2.66
  -8   9 -11    4.76    2.51
   8   9  11    6.84    2.27
   0  10  11    2.95    1.51
   0  10 -11    1.62    1.39
   0 -10  11   -0.05    1.78
  -1  10  11    2.96    1.53
   1 -10  11    2.48    1.88
   1  10 -11    4.66    1.51
   1  10  11    3.33    1.47
  -1  10 -11    2.11    1.46
  -1 -10  11    2.89    1.83
   2  10 -11   12.32    1.90
  -2  10  11   16.18    2.10
   2 -10  11   15.50    2.42
   2  10  11   14.85    2.03
  -2  10 -11   10.79    1.96
  -2 -10  11   13.32    2.35
   2  10  11   10.98    1.92
   3  10 -11    3.84    1.56
   3 -10  11    3.17    1.82
  -3  10  11    1.02    1.74
  -3  10 -11    2.72    1.68
   3  10  11    4.17    1.63
  -3 -10  11    2.34    1.85
   3  10  11    1.72    1.56
   4  10 -11    2.98    1.70
   4 -10  11    5.04    1.90
  -4  10  11    5.64    1.97
   4  10  11    8.18    1.94
   4  10  11    6.48    1.87
  -4 -10  11    8.08    2.00
  -4  10 -11    5.31    1.84
   5  10 -11   10.95    2.29
  -5  10  11   14.08    2.51
   5  10  11   17.55    2.56
  -5 -10  11   13.54    2.31
  -5  10 -11   13.51    2.36
   5  10  11   14.63    2.40
   6  10 -11   46.18    4.70
  -6  10  11   40.98    4.67
   6  10  11   51.87    4.86
  -6 -10  11   50.15    4.39
  -6  10 -11   40.43    4.49
  -7  10  11    3.02    2.51
   7  10 -11    4.94    2.14
   7  10  11    3.89    2.15
  -7  10 -11    1.41    2.21
   0 -11  11   50.03    4.96
   0  11 -11   58.88    4.65
   0  11  11   52.37    4.47
   1 -11  11    3.84    2.10
  -1  11  11    6.78    1.77
   1  11 -11    5.55    1.65
  -1 -11  11    4.06    2.05
   1  11  11    2.99    1.59
  -1  11 -11    2.84    1.62
   2  11 -11    2.15    1.53
  -2  11  11    2.26    1.69
   2 -11  11    2.42    2.09
  -2  11 -11    4.07    1.69
  -2 -11  11    5.23    2.04
   2  11  11    4.02    1.65
   3  11 -11   22.07    2.84
   3 -11  11   26.09    3.24
  -3  11  11   23.77    2.98
   3  11  11   35.51    3.68
  -3 -11  11   33.44    3.36
   3  11  11   33.71    3.25
  -3  11 -11   27.45    3.04
   4  11 -11    6.26    2.02
   4 -11  11   10.21    2.32
  -4  11  11    9.56    2.30
   4  11  11   13.09    2.28
   4  11  11   13.98    2.31
  -4 -11  11   13.46    2.41
  -4  11 -11   14.10    2.30
   5  11 -11    1.46    1.88
  -5  11  11    3.88    2.17
  -5 -11  11    5.15    1.99
  -5  11 -11    2.58    1.99
   5  11  11    2.94    1.96
   5  11  11    6.32    2.09
   6  11 -11   -0.81    1.91
  -6  11  11   -2.91    2.27
  -6 -11  11    3.35    1.91
  -6  11 -11    0.04    2.09
   6  11  11    3.86    2.11
   0 -12  11   -2.73    1.92
   0  12 -11   -0.40    1.55
   0  12  11    0.69    1.64
   1  12 -11   12.47    2.11
  -1  12  11   16.25    2.30
   1 -12  11   15.30    2.77
  -1  12 -11   15.41    2.24
  -1 -12  11   14.33    2.70
   1  12  11   17.04    2.23
  -2  12  11   21.21    2.61
   2 -12  11   17.33    2.94
   2  12 -11   17.64    2.43
  -2 -12  11   20.86    2.94
  -2  12 -11   17.02    2.50
   2  12  11   19.98    2.50
   3  12 -11    2.19    1.70
  -3  12  11    1.36    1.90
   3 -12  11    1.97    2.15
   3  12  11    1.09    1.71
   3  12  11    4.47    1.84
  -3  12 -11   -0.81    1.75
  -3 -12  11    1.81    2.01
  -4  12  11   14.51    2.64
   4  12 -11   12.31    2.32
   4 -12  11   12.01    2.50
   4  12  11   19.92    2.64
  -4  12 -11   10.26    2.43
  -4 -12  11   14.41    2.55
   4  12  11   12.18    2.34
   5  12 -11   -1.45    1.88
  -5  12  11   -0.55    2.25
   5  12  11    2.57    1.95
   5  12  11    3.18    2.02
  -5 -12  11    3.47    2.01
  -5  12 -11   -0.34    2.06
  -6  12  11    0.85    2.44
   6  12 -11    0.14    2.06
   6  12  11    1.36    2.17
  -6  12 -11    1.80    2.24
  -6 -12  11    3.52    2.03
   0  13 -11    0.77    1.69
   0  13  11    0.20    1.74
   0 -13  11   -0.73    2.16
   1  13 -11    0.66    1.56
   1 -13  11    5.20    2.40
  -1  13  11    4.07    1.95
   1  13  11    3.72    1.79
  -1  13 -11    1.11    1.69
  -1 -13  11    6.54    2.40
   2 -13  11    1.22    2.33
   2  13 -11    4.44    1.76
  -2  13  11    5.08    2.08
  -2 -13  11    2.68    2.24
  -2  13 -11    4.69    1.95
   2  13  11    1.97    1.80
   3  13 -11   10.16    2.27
   3 -13  11   14.63    2.89
  -3  13  11   19.97    2.64
  -3 -13  11   18.63    2.87
  -3  13 -11   13.73    2.51
   3  13  11   14.62    2.35
   4 -13  11    9.92    2.64
   4  13 -11    9.48    2.26
  -4  13  11   12.80    2.60
  -4  13 -11   12.87    2.55
   4  13  11   14.95    2.59
   4  13  11   12.71    2.40
  -4 -13  11   13.65    2.65
   5  13  11    4.50    2.20
  -5 -13  11    4.24    2.19
   0 -14  11    2.23    2.42
   0  14 -11    2.79    1.71
   0  14  11   -0.88    1.85
  -1  14  11    0.91    1.97
   1  14 -11    1.42    1.71
   1 -14  11    4.80    2.58
  -1 -14  11    6.75    2.59
   1  14  11    0.87    1.84
  -1  14 -11    2.62    1.88
   2 -14  11   15.57    3.07
  -2  14  11   12.21    2.49
   2  14 -11    8.62    2.13
  -2 -14  11   13.73    2.90
   2  14  11   11.36    2.24
  -2  14 -11    9.49    2.31
   3  14 -11    2.32    1.93
   3 -14  11    2.47    2.54
  -3  14  11    1.18    2.28
  -3  14 -11    3.02    2.13
  -3 -14  11    5.63    2.47
   3  14  11    3.60    1.99
   0   0  12   65.56    4.64
   0   0  12   66.77    4.84
   0   0 -12   66.78    4.76
   1   0  12   20.56    1.75
  -1   0  12   19.11    1.92
  -1   0  12   19.17    1.90
   1   0 -12   20.49    1.66
  -1   0 -12   19.09    1.85
   1   0  12   17.69    2.00
  -2   0  12   17.82    1.62
  -2   0 -12   17.42    1.84
   2   0 -12   16.69    1.51
  -2   0  12   15.96    1.83
   2   0  12   16.49    1.66
   2   0  12   17.88    1.70
  -3   0  12   17.09    1.93
  -3   0 -12   17.63    1.77
  -3   0  12   17.85    1.75
   3   0  12   17.66    1.67
   4   0  12   59.03    4.27
  -4   0  12   59.78    4.63
  -4   0  12   59.12    4.62
  -4   0 -12   56.10    4.69
  -5   0  12  109.98    8.37
  -5   0 -12  122.08    8.72
   5   0  12  119.12    8.01
  -5   0  12  116.96    8.30
  -6   0  12   10.10    1.98
  -6   0  12    8.12    1.59
  -6   0 -12    5.55    1.83
  -7   0 -12    0.49    1.87
  -7   0  12   -0.88    1.92
  -7   0 -12   -1.33    1.62
  -8   0 -12    5.69    2.07
  -8   0 -12    3.63    2.36
  -8   0  12    4.81    2.47
  -9   0  12   10.96    3.01
  -9   0 -12    7.31    2.86
 -10   0  12    1.56    3.10
 -10   0 -12   -1.46    2.65
   0  -1  12    1.40    0.91
  -1   1  12   97.29    6.61
  -1  -1 -12   96.46    6.61
   1  -1  12   97.21    6.55
   1  -1  12   92.94    6.30
   1   1 -12   95.73    6.57
  -1   1  12   95.21    6.46
   1   1  12   92.34    6.50
  -1   1 -12   89.42    6.62
   1   1  12   94.04    6.41
  -1  -1  12   90.19    6.38
   1  -1 -12   90.40    6.47
  -1  -1  12   88.31    6.61
  -2  -1 -12  167.32   11.57
   2  -1  12  166.36   11.20
  -2   1  12  163.36   11.30
   2   1 -12  167.61   11.47
  -2   1  12  169.06   11.21
   2  -1  12  164.10   11.08
   2   1  12  162.96   11.19
  -2  -1  12  169.85   11.16
  -2  -1  12  169.68   11.36
  -2   1 -12  162.09   11.60
   2   1  12  159.57   11.12
  -3  -1 -12   19.50    2.10
  -3   1  12   18.23    1.99
   3  -1  12   19.73    1.98
   3   1 -12   16.12    1.79
  -3   1  12   19.11    1.87
  -3  -1  12   16.81    1.99
  -3  -1  12   19.31    1.79
   3   1  12   18.09    1.96
   3   1  12   19.65    2.00
  -3   1 -12   19.04    2.11
   3   1  12   19.18    2.06
  -4   1  12   14.62    1.88
   4  -1  12   14.62    1.62
  -4   1  12   13.10    1.89
  -4  -1  12   20.71    1.91
   4   1  12   19.02    1.96
  -4  -1  12   17.34    2.04
   4   1  12   21.28    2.04
  -4   1 -12   18.13    1.94
   5  -1  12    0.44    0.86
  -5   1  12    2.37    1.30
  -5   1  12    0.87    1.40
  -5  -1  12   -0.24    1.37
   5   1  12    2.00    0.85
  -5  -1  12    1.38    1.26
  -5   1 -12    3.75    1.36
   5   1  12    1.08    1.30
  -6   1  12   13.45    2.04
  -6   1  12   14.39    2.33
  -6   1 -12   18.13    2.33
   6   1  12   21.21    2.48
  -6  -1  12   19.26    2.40
  -6   1 -12   18.28    2.23
  -6  -1  12   17.90    2.13
  -7   1  12   11.33    2.41
   7   1  12   11.16    2.37
  -7   1 -12    9.36    2.24
  -7   1 -12   13.26    2.10
  -7  -1  12    9.85    2.34
  -8  -1 -12   17.26    2.96
  -8  -1 -12   16.66    2.58
  -8   1  12   15.37    2.88
  -8   1 -12   13.45    2.78
   8   1  12   12.71    2.82
  -8  -1  12   16.32    2.91
  -9  -1 -12   -1.77    2.34
  -9   1  12    0.84    2.68
  -9  -1 -12    4.46    2.30
  -9   1 -12    0.98    2.52
   9   1  12   -2.51    2.57
  -9  -1  12    1.07    2.66
 -10   1  12   -0.75    3.02
 -10  -1 -12   -4.15    2.59
 -10   1 -12    0.70    2.82
 -10  -1  12    1.25    2.90
   0  -2 -12  237.69   16.37
   0   2 -12  235.27   16.45
   0  -2  12  247.15   16.03
   0   2  12  240.22   15.96
   0  -2  12  230.95   15.77
   0   2  12  238.86   15.91
   1  -2  12   20.81    2.02
  -1   2  12   25.10    2.37
  -1   2  12   22.06    2.18
   1  -2  12   19.57    1.69
   1   2 -12   22.31    1.96
  -1  -2 -12   18.97    1.89
  -1  -2  12   19.67    2.10
   1   2  12   24.45    2.08
   1   2  12   23.68    2.23
  -1  -2  12   21.68    1.86
  -1   2 -12   22.80    2.05
   2  -2  12   14.35    1.71
  -2   2  12   16.18    1.89
  -2   2  12   19.86    2.03
   2   2 -12   12.68    1.50
  -2  -2  12   18.10    1.84
   2   2  12   20.77    1.88
  -2  -2  12   18.89    2.02
  -2   2 -12   21.74    1.91
   2   2  12   21.27    1.85
   2   2  12   19.22    1.95
   3   2 -12    3.00    0.78
  -3   2  12    2.13    1.07
  -3   2  12    3.25    1.18
   3  -2  12    2.76    0.94
  -3  -2  12    0.72    1.19
   3   2  12    2.30    0.88
  -3  -2  12    1.67    0.89
   3   2  12    1.60    0.96
   3   2  12    1.07    0.86
  -3   2 -12    0.97    0.97
   4   2 -12   63.88    5.23
  -4   2  12   63.62    5.32
   4  -2  12   62.52    5.02
  -4   2  12   59.76    5.29
  -4   2 -12   77.12    5.45
  -4  -2  12   75.36    5.30
   4   2  12   78.84    5.05
  -4  -2  12   76.34    5.38
   4   2  12   76.73    5.45
  -5   2  12   30.78    3.20
   5  -2  12   27.81    2.49
  -5   2  12   26.16    2.67
   5   2  12   26.14    3.02
   5   2  12   27.78    2.51
  -5   2 -12   26.47    2.74
  -5  -2  12   29.07    2.77
  -5  -2  12   28.71    2.72
  -6   2  12   35.04    3.11
  -6   2  12   29.91    3.00
  -6  -2  12   25.85    2.67
   6   2  12   26.01    3.01
  -6  -2  12   23.87    2.88
  -6   2 -12   25.56    2.93
  -7   2  12   -2.15    1.90
  -7  -2  12   -1.43    1.93
  -7   2 -12    0.24    1.79
   7   2  12   -0.59    1.84
  -8   2  12   12.72    2.79
   8   2  12   11.73    2.84
  -8   2 -12   16.07    2.82
  -8  -2  12   10.06    2.78
  -9  -2 -12    4.70    2.34
  -9   2  12    4.09    2.90
   9   2  12    0.15    2.59
  -9  -2  12    3.83    2.71
  -9   2 -12    5.21    2.67
   0   3  12    1.39    0.95
   0  -3  12    1.96    1.09
   0  -3 -12    2.28    0.55
   0   3  12    3.12    0.88
   1  -3  12   28.41    2.71
   1   3 -12   29.33    2.44
  -1   3  12   29.41    2.55
  -1   3  12   29.72    2.67
  -1  -3  12   27.48    2.21
  -1   3 -12   28.93    2.51
   1   3  12   28.25    2.33
   1   3  12   27.95    2.55
   1   3  12   28.44    2.55
  -1  -3  12   26.51    2.75
  -2   3  12  115.53    7.43
  -2   3  12  108.89    7.34
   2  -3  12  115.37    7.38
   2   3 -12  110.72    7.46
   2   3  12  100.68    7.24
   2   3  12  102.28    7.26
  -2   3 -12   99.80    7.54
  -2  -3  12   98.90    7.15
   2   3  12   98.29    7.47
  -2  -3  12  100.86    7.48
  -3   3  12   40.06    3.95
  -3   3  12   43.05    3.97
   3  -3  12   42.02    3.76
   3   3 -12   44.20    3.78
  -3  -3  12   52.32    3.78
  -3  -3  12   53.32    4.09
   3   3  12   50.69    3.79
  -3   3 -12   54.27    3.95
   3   3  12   51.88    3.72
   3   3  12   54.63    3.96
   4   3 -12   14.55    1.72
   4  -3  12   14.39    1.66
  -4   3  12   17.43    1.98
  -4   3  12   15.39    1.98
  -4  -3  12   17.91    1.90
   4   3  12   17.20    1.64
   4   3  12   19.37    2.08
  -4   3 -12   16.48    1.96
   4   3  12   20.23    1.95
  -4  -3  12   17.83    2.18
   5   3 -12   20.23    1.93
  -5   3  12   18.70    2.12
   5  -3  12   17.70    1.70
  -5   3  12   17.68    2.21
  -5  -3  12   16.23    2.15
   5   3  12   14.42    2.19
  -5   3 -12   12.69    2.04
  -5  -3  12   17.54    2.17
  -6   3  12   16.53    2.22
  -6   3  12   20.46    2.63
  -6  -3  12   22.40    2.67
  -6   3 -12   22.44    2.59
   6   3  12   21.89    2.75
  -6  -3  12   21.64    2.42
  -7   3  12    6.29    2.20
  -7   3 -12    5.55    1.96
   7   3  12    4.81    2.14
  -7  -3  12    3.19    2.12
  -8   3  12    5.32    2.50
  -8   3 -12    5.78    2.29
   8   3  12    4.50    2.38
  -8  -3  12    2.58    2.40
  -9   3  12   -4.56    2.49
  -9  -3 -12    3.86    2.36
   9   3  12   -6.03    2.35
  -9  -3  12    1.41    2.61
  -9   3 -12    0.23    2.41
   0   4  12  102.21    7.00
   0  -4  12   99.80    7.18
   0   4  12   97.88    6.98
   0   4 -12   96.78    7.17
   0   4  12  104.22    7.07
   1   4 -12   48.30    3.69
   1  -4  12   49.28    3.83
  -1   4  12   49.20    3.73
  -1   4  12   53.33    3.81
  -1   4 -12   42.54    3.66
  -1  -4  12   46.84    3.91
   1   4  12   43.52    3.66
   1   4  12   45.92    3.73
  -1  -4  12   48.09    3.33
   1   4  12   47.30    3.58
  -2   4  12    1.11    1.05
  -2   4  12    1.24    1.13
   2   4 -12    1.53    0.85
   2  -4  12    0.49    1.06
   2   4  12    2.40    0.98
  -2  -4  12    1.49    1.25
   2   4  12    2.32    0.99
   2   4  12    1.30    0.90
  -2  -4  12    2.32    0.72
  -3   4  12   36.61    3.19
  -3   4  12   31.48    3.11
   3   4 -12   34.36    3.02
   3  -4  12   31.75    2.97
   3   4  12   30.98    3.06
   3   4  12   34.48    3.02
  -3  -4  12   35.10    3.36
  -3  -4  12   35.64    2.97
   3   4  12   34.59    2.89
  -3   4 -12   34.29    3.13
   4  -4  12   32.17    3.06
  -4   4  12   32.60    3.43
  -4   4  12   30.81    3.33
   4   4 -12   32.15    3.22
  -4  -4  12   39.38    3.43
  -4   4 -12   38.08    3.39
  -4  -4  12   41.84    3.53
   4   4  12   37.55    3.39
   4   4  12   40.97    3.37
   5  -4  12    8.81    1.42
  -5   4  12    8.49    1.76
  -5   4  12   12.06    1.95
   5   4 -12    9.66    1.57
  -5  -4  12   15.85    2.05
  -5   4 -12   14.84    1.94
  -5  -4  12   14.93    2.04
   5   4  12   15.97    2.20
  -6   4  12   16.95    2.17
   6   4 -12   19.68    2.11
  -6   4  12   18.09    2.52
  -6   4 -12   15.57    2.35
  -6  -4  12   16.92    2.47
  -6  -4  12   18.24    2.26
   6   4  12   14.71    2.51
  -7   4  12    8.96    2.38
  -7  -4  12    9.27    2.39
  -7   4 -12    7.98    2.17
   7   4  12    7.37    2.32
  -8   4  12    7.24    2.62
  -8  -4  12    5.97    2.55
  -8   4 -12    5.31    2.35
   8   4  12    8.34    2.58
  -9   4  12    6.66    3.02
   9   4  12    5.58    2.77
  -9   4 -12    5.62    2.80
  -9  -4  12   10.33    2.94
   0   5  12   10.81    1.43
   0  -5  12   10.85    1.71
   0   5  12   12.94    1.30
   0   5 -12   11.17    1.42
   0   5  12   11.27    1.49
  -1   5  12   20.45    2.10
  -1   5  12   20.16    2.04
   1   5 -12   18.44    2.18
   1  -5  12   21.73    2.25
   1   5  12   21.32    2.30
   1   5  12   21.28    2.02
   1   5  12   21.25    2.02
  -1  -5  12   23.05    2.40
  -1   5 -12   21.42    2.26
  -2   5  12   38.40    3.48
   2  -5  12   44.86    3.57
   2   5 -12   42.33    3.37
  -2   5  12   40.48    3.48
  -2   5 -12   38.06    3.46
  -2  -5  12   37.37    3.72
   2   5  12   40.49    3.36
   2   5  12   39.36    3.30
   3  -5  12  100.88    7.36
   3   5 -12  112.26    7.58
  -3   5  12  104.63    7.49
  -3   5  12  107.07    7.46
  -3   5 -12  105.74    7.68
  -3  -5  12   99.89    7.58
   3   5  12  102.97    7.33
  -3  -5  12  106.19    7.27
   3   5  12   94.63    7.65
   4  -5  12   21.85    2.14
   4   5 -12   24.80    2.58
  -4   5  12   21.91    2.38
  -4   5  12   19.56    2.33
  -4  -5  12   24.80    2.27
   4   5  12   20.92    2.23
  -4   5 -12   19.54    2.29
   4   5  12   20.37    2.44
  -4  -5  12   21.69    2.48
   5  -5  12   26.75    2.64
   5   5 -12   32.49    3.18
  -5   5  12   26.64    2.84
  -5  -5  12   21.60    2.74
  -5  -5  12   30.35    2.84
   5   5  12   23.56    2.89
  -5   5 -12   28.80    3.03
  -6   5  12   51.66    4.91
   6   5 -12   64.34    4.92
  -6   5 -12   50.57    4.89
  -6  -5  12   49.62    5.18
   6   5  12   53.31    5.10
  -6  -5  12   64.82    4.80
  -7   5  12   10.35    2.53
   7   5  12   12.60    2.60
  -7  -5  12   16.83    2.65
  -7   5 -12   10.41    2.33
  -8   5  12    9.35    2.76
  -8  -5  12   11.00    2.66
  -8   5 -12    9.28    2.52
   8   5  12   10.61    2.67
  -9   5  12    3.89    2.93
  -9   5 -12   -0.44    2.54
  -9  -5  12    3.43    2.60
   9   5  12   -0.44    2.40
   0   6  12  153.54   10.97
   0  -6  12  164.40   11.24
   0   6 -12  164.40   11.37
   1  -6  12   28.62    3.09
  -1   6  12   27.08    3.21
   1   6 -12   30.21    3.05
  -1  -6  12   40.87    3.56
   1   6  12   40.80    3.21
   1   6  12   41.58    3.09
  -1   6 -12   35.78    3.14
  -2   6  12    5.55    1.40
   2  -6  12    5.57    1.48
   2   6 -12    4.61    1.21
   2   6  12    7.04    1.31
  -2   6 -12    5.72    1.31
   2   6  12    6.20    1.31
  -2  -6  12    6.15    1.67
   3   6 -12   18.92    2.01
   3  -6  12   20.62    2.12
  -3   6  12   19.23    2.19
   3   6  12   19.07    2.23
  -3  -6  12   18.68    2.36
  -3   6 -12   17.44    2.09
   3   6  12   16.39    2.02
   4  -6  12   45.73    3.66
  -4   6  12   46.48    3.91
   4   6 -12   48.75    3.85
  -4   6 -12   35.57    3.77
  -4  -6  12   41.33    3.89
  -4  -6  12   38.64    3.87
   4   6  12   37.90    4.15
   4   6  12   39.81    3.75
   5  -6  12   37.68    3.03
   5   6 -12   41.47    3.47
  -5   6  12   32.40    3.15
  -5  -6  12   28.10    3.04
  -5  -6  12   25.07    2.95
  -5   6 -12   26.97    3.05
   5   6  12   26.66    3.25
  -6   6  12   29.07    3.24
   6   6 -12   27.96    3.01
  -6  -6  12   35.14    3.37
   6   6  12   30.52    3.41
  -6   6 -12   26.11    3.11
  -6  -6  12   32.08    3.29
  -7   6  12    9.24    2.45
   7   6 -12    9.04    1.87
  -7  -6  12   10.06    2.33
  -7   6 -12    7.89    2.20
   7   6  12    7.81    2.36
  -8   6  12    8.80    2.72
  -8  -6  12   10.92    2.64
   8   6  12    7.16    2.56
  -8   6 -12   10.89    2.58
  -9   6  12   19.97    3.67
   9   6  12   23.25    3.55
  -9  -6  12   28.30    3.56
  -9   6 -12   23.42    3.64
   0   7 -12   51.51    4.18
   0   7  12   51.66    4.14
   0  -7  12   50.73    4.45
   1  -7  12   17.07    2.23
   1   7 -12   15.68    1.85
  -1   7  12   18.91    2.00
  -1   7 -12   15.18    1.94
  -1  -7  12   17.55    2.33
   1   7  12   16.49    1.89
   1   7  12   16.94    1.83
  -2   7  12   46.92    4.12
   2  -7  12   37.92    4.16
   2   7 -12   43.79    4.09
  -2  -7  12   56.57    4.50
   2   7  12   56.54    4.09
   2   7  12   53.85    4.30
  -2   7 -12   52.39    4.11
  -3   7  12   15.96    2.09
   3   7 -12   15.30    1.93
   3  -7  12   19.44    2.17
  -3  -7  12   17.10    2.31
   3   7  12   13.14    1.94
   3   7  12   18.09    2.15
  -3   7 -12   14.64    1.98
   4   7 -12   21.27    2.28
   4  -7  12   20.82    2.20
  -4   7  12   19.76    2.37
   4   7  12   17.09    2.40
  -4   7 -12   17.16    2.25
   4   7  12   16.22    2.19
  -4  -7  12   17.27    2.39
  -5   7  12    2.20    1.77
   5   7 -12    1.17    1.45
   5  -7  12    1.20    1.30
  -5  -7  12    0.71    1.62
  -5   7 -12    1.02    1.58
   5   7  12    2.73    1.79
   5   7  12   -0.12    1.57
   6   7 -12   23.86    2.82
  -6   7  12   24.45    3.08
  -6  -7  12   24.78    2.80
  -6  -7  12   28.49    3.03
   6   7  12   25.59    3.17
  -6   7 -12   24.91    3.01
  -7   7  12    8.50    2.56
   7   7 -12   12.03    2.16
   7   7  12   12.20    2.51
  -7  -7  12   14.96    2.58
  -7   7 -12    9.94    2.40
  -8   7  12   -0.58    2.54
   8   7  12    3.85    2.26
  -8   7 -12   -1.58    2.24
  -8  -7  12    5.55    2.38
   0   8  12    2.52    1.37
   0  -8  12    2.30    1.67
   0   8 -12    3.80    1.30
   1  -8  12    4.98    1.72
   1   8 -12    3.68    1.33
  -1   8  12    3.47    1.40
  -1   8 -12    6.25    1.45
  -1  -8  12    5.82    1.81
   1   8  12    6.70    1.46
   2   8 -12   12.63    1.76
   2  -8  12   11.41    2.04
  -2   8  12   15.36    1.93
   2   8  12   12.41    1.82
   2   8  12   11.87    1.76
  -2   8 -12   10.89    1.80
  -2  -8  12    7.40    2.00
  -3   8  12   14.97    2.31
   3   8 -12   16.10    2.19
   3  -8  12   19.65    2.43
   3   8  12   23.34    2.51
  -3   8 -12   23.31    2.42
  -3  -8  12   22.23    2.64
   3   8  12   23.35    2.33
   4  -8  12   52.18    4.53
   4   8 -12   63.75    4.82
  -4   8  12   55.84    4.69
   4   8  12   49.10    4.86
  -4   8 -12   46.85    4.61
   4   8  12   55.07    4.56
  -4  -8  12   54.83    4.69
   5   8 -12   10.18    2.03
  -5   8  12    9.06    2.19
   5   8  12   12.28    2.18
   5   8  12   14.07    2.30
  -5  -8  12   14.99    2.20
  -5   8 -12   10.43    2.09
   6   8 -12   11.42    2.24
  -6   8  12   11.69    2.52
  -6   8 -12   17.29    2.49
  -6  -8  12   13.32    2.29
   6   8  12   19.25    2.72
  -7   8  12    1.33    2.31
   7   8 -12    1.01    1.78
   7   8  12    2.60    2.05
  -7   8 -12    3.88    2.17
  -8   8  12    3.84    2.74
  -8   8 -12    4.54    2.56
   8   8  12    7.73    2.44
   0  -9  12   49.71    4.62
   0   9  12   48.41    4.16
   0   9 -12   50.66    4.26
  -1   9  12   23.91    2.53
   1  -9  12   23.46    2.89
   1   9 -12   28.87    2.92
   1   9  12   22.84    2.45
  -1   9 -12   22.44    2.50
  -1  -9  12   24.55    2.94
   2   9 -12   38.54    3.40
   2  -9  12   33.58    3.43
  -2   9  12   36.31    3.44
   2   9  12   31.50    3.26
  -2  -9  12   31.61    3.42
  -2   9 -12   30.07    3.31
   2   9  12   32.09    3.56
   3  -9  12   11.13    2.03
  -3   9  12   11.13    1.98
   3   9 -12   11.69    1.84
  -3  -9  12    6.41    1.98
  -3   9 -12    6.72    1.76
   3   9  12    7.10    1.75
   3   9  12    7.10    1.78
  -4   9  12   16.27    2.41
   4   9 -12   11.98    2.17
   4  -9  12   13.04    2.19
   4   9  12   16.54    2.25
   4   9  12   16.71    2.43
  -4  -9  12   20.37    2.55
  -4   9 -12   16.03    2.29
  -5   9  12    2.71    2.03
   5   9 -12    2.96    1.73
  -5  -9  12    2.39    1.77
   5   9  12    1.22    1.82
  -5   9 -12    3.13    1.77
   5   9  12    0.50    1.81
  -6   9  12    0.99    2.17
   6   9 -12    4.76    1.94
  -6   9 -12    2.57    1.91
  -6  -9  12    5.20    1.89
   6   9  12    5.63    2.13
   7   9 -12   -1.11    1.84
  -7   9  12   -0.04    2.40
  -7   9 -12    2.45    2.21
   7   9  12    4.79    2.18
   0  10 -12   23.80    2.52
   0 -10  12   22.86    2.98
   0  10  12   23.05    2.51
  -1  10  12   20.15    2.22
   1 -10  12   16.73    2.55
   1  10 -12   15.89    2.07
  -1 -10  12   11.75    2.35
  -1  10 -12   10.70    1.97
   1  10  12   12.12    1.97
  -2  10  12   18.06    2.24
   2 -10  12   23.06    2.77
   2  10 -12   15.14    2.06
  -2 -10  12   13.96    2.53
  -2  10 -12   13.39    2.18
   2  10  12   16.36    2.14
   3 -10  12    1.58    1.84
  -3  10  12   -0.27    1.79
   3  10 -12    1.80    1.54
   3  10  12    3.61    1.69
  -3  10 -12    2.54    1.68
   3  10  12    4.24    1.69
  -3 -10  12    5.27    1.99
  -4  10  12   23.68    2.94
   4  10 -12   21.52    2.77
   4 -10  12   22.62    2.83
  -4 -10  12   25.21    2.94
   4  10  12   27.96    3.01
  -4  10 -12   21.42    2.79
   4  10  12   24.43    2.76
   5  10 -12    6.09    1.96
  -5  10  12    5.61    2.27
   5  10  12    9.45    2.13
  -5  10 -12    3.61    1.94
   5  10  12    7.62    2.13
  -5 -10  12    7.04    2.06
  -6  10  12    5.40    2.44
   6  10 -12    5.18    2.10
   6  10  12    6.78    2.23
  -6  10 -12    6.06    2.24
  -6 -10  12    6.33    2.02
   7  10 -12    9.60    2.45
  -7  10  12    6.99    2.74
   7  10  12    9.86    2.50
  -7  10 -12    6.86    2.48
   0  11 -12    0.02    1.49
   0  11  12   -1.79    1.48
   0 -11  12   -0.77    1.93
   1 -11  12    9.84    2.34
   1  11 -12    9.04    1.83
  -1  11  12    9.19    1.98
  -1  11 -12    4.78    1.81
   1  11  12    6.31    1.75
  -1 -11  12    4.58    2.10
   2  11 -12   19.73    2.62
   2 -11  12   25.79    3.20
  -2  11  12   27.34    2.81
   2  11  12   25.47    2.71
  -2 -11  12   24.96    3.10
  -2  11 -12   23.23    2.74
   3 -11  12    8.46    2.28
  -3  11  12    6.64    2.05
  -3  11 -12    6.36    1.94
   3  11  12    5.00    1.83
  -3 -11  12    6.73    2.18
  -4  11  12    6.53    2.22
   4  11 -12    3.17    1.84
   4 -11  12    4.45    2.07
  -4  11 -12    7.68    2.09
  -4 -11  12    9.52    2.19
   4  11  12    8.48    2.10
   4  11  12    6.95    2.00
   5  11 -12    5.36    2.08
  -5  11  12    5.26    2.29
   5  11  12    6.03    2.12
  -5  11 -12    4.31    2.11
  -5 -11  12    7.51    2.13
   5  11  12    8.98    2.31
   6  11 -12    5.06    2.17
  -6  11  12    2.21    2.47
  -6  11 -12    1.80    2.17
  -6 -11  12    2.29    1.92
   6  11  12    2.67    2.18
   0  12 -12   17.72    2.43
   0  12  12   20.08    2.50
   0 -12  12   17.71    3.00
   1  12 -12    7.95    1.88
  -1  12  12   12.74    2.17
   1 -12  12    8.69    2.54
   1  12  12    8.00    1.94
  -1  12 -12    7.41    1.96
  -1 -12  12   11.06    2.52
  -2  12  12    1.78    1.84
   2  12 -12    2.20    1.68
   2 -12  12    4.17    2.28
  -2 -12  12    3.92    2.17
   2  12  12    1.90    1.77
  -2  12 -12    1.95    1.79
  -3  12  12   -0.18    1.92
   3  12 -12   -1.18    1.63
   3 -12  12    2.14    2.11
  -3 -12  12    0.39    2.02
  -3  12 -12    1.02    1.84
   3  12  12    1.17    1.76
  -4  12  12    8.11    2.33
   4 -12  12    6.10    2.28
   4  12 -12    6.03    2.02
   4  12  12    8.32    2.19
  -4 -12  12    5.54    2.24
   4  12  12    6.22    2.05
  -4  12 -12    4.00    2.10
  -5  12  12    0.91    2.35
   5  12 -12    2.00    2.05
   5  12  12    5.52    2.24
  -5  12 -12    1.62    2.13
   5  12  12    2.27    2.04
  -5 -12  12    5.73    2.12
   0  13  12    5.18    1.93
   0  13 -12    1.13    1.77
   0 -13  12    1.00    2.32
   1 -13  12    8.07    2.66
   1  13 -12    6.82    1.93
  -1  13  12    7.80    2.19
  -1 -13  12   13.92    2.77
  -1  13 -12   12.87    2.19
   1  13  12   11.74    2.14
   2  13 -12    5.18    1.89
   2 -13  12    4.87    2.53
  -2  13  12    9.06    2.24
   2  13  12    6.96    2.05
  -2  13 -12    7.35    2.09
  -2 -13  12    8.29    2.48
   3 -13  12    0.04    2.28
  -3  13  12    2.32    2.13
   3  13 -12    1.27    1.79
  -3  13 -12    2.46    2.01
  -3 -13  12    4.55    2.34
   3  13  12    1.18    1.85
   4 -13  12    6.75    2.40
  -4  13  12    2.74    2.30
   4  13 -12    1.67    1.91
   4  13  12    5.08    2.11
  -4  13 -12    1.50    2.11
  -4 -13  12    6.21    2.34
   0  14  12   15.99    2.46
   0 -14  12   12.64    3.04
   0  14 -12   12.29    2.23
  -1  14  12    1.25    1.97
   1 -14  12    0.76    2.51
   1  14 -12    1.57    1.76
  -1 -14  12    2.94    2.52
   1  14  12    1.50    1.88
  -1  14 -12    1.35    1.88
   2  14 -12    0.54    1.77
   2 -14  12    2.51    2.59
  -2  14  12   -0.30    2.16
   2  14  12    2.37    1.92
  -2 -14  12    6.74    2.57
  -2  14 -12    0.97    1.97
   0   0 -13    2.21    0.67
   0   0  13    2.39    0.72
   0   0  13    1.44    1.00
   1   0  13   15.10    1.69
  -1   0  13   15.93    1.51
  -1   0  13   13.51    1.74
   1   0  13   17.71    1.65
   1   0 -13   17.15    1.51
  -1   0 -13   16.21    1.73
  -2   0  13  139.84    9.16
   2   0  13  136.28    9.20
  -2   0  13  136.17    9.32
  -2   0 -13  130.38    9.45
   2   0  13  132.60    9.05
   2   0 -13  130.21    9.28
  -3   0  13  179.04   12.13
  -3   0  13  178.49   12.00
   3   0  13  178.26   11.91
  -3   0 -13  170.10   12.41
  -4   0  13    3.75    1.28
  -4   0  13    3.36    1.40
  -4   0 -13    3.69    1.22
   4   0  13    5.04    1.04
  -5   0 -13   10.65    1.82
  -5   0  13    9.21    1.80
   5   0  13   10.80    1.33
  -5   0  13    8.74    1.69
  -6   0  13    0.53    1.37
  -6   0  13   -0.15    1.71
  -6   0 -13   -0.81    1.58
  -7   0  13   48.41    4.92
  -7   0 -13   48.95    4.95
  -7   0 -13   52.57    4.77
  -8   0 -13    1.30    2.27
  -8   0  13    2.67    2.40
  -9   0 -13    2.14    2.62
  -9   0  13    1.74    2.71
   0   1  13    2.19    0.99
   0  -1  13    0.31    0.98
   0   1  13    2.33    0.81
   0  -1 -13    2.17    0.61
   0  -1  13    2.05    0.65
   0   1 -13    1.74    0.70
   1  -1  13  133.02    9.13
   1  -1  13  139.59    9.37
  -1   1  13  138.54    9.28
  -1  -1 -13  140.72    9.56
  -1   1  13  138.64    9.41
   1   1 -13  141.86    9.50
  -1   1 -13  135.06    9.57
   1  -1 -13  137.19    9.42
   1   1  13  132.91    9.21
   1   1  13  134.57    9.33
  -1  -1  13  132.81    9.44
  -1  -1  13  130.81    9.20
   2  -1  13   29.07    2.42
  -2   1  13   28.68    2.71
   2  -1  13   32.82    2.68
  -2  -1 -13   28.50    2.65
   2   1 -13   26.63    2.40
  -2   1  13   37.22    2.96
  -2   1 -13   29.29    2.67
   2   1  13   33.21    2.66
   2   1  13   31.32    2.53
  -2  -1  13   28.51    2.62
  -2  -1  13   31.95    2.93
   3  -1  13   45.26    3.48
  -3  -1 -13   46.12    3.67
  -3   1  13   47.10    3.69
   3   1 -13   44.24    3.36
  -3   1  13   41.80    3.69
   3   1  13   45.21    3.47
  -3  -1  13   42.97    3.63
   3   1  13   41.12    3.46
  -3   1 -13   42.96    3.62
  -3  -1  13   42.26    3.80
  -4   1  13   36.43    3.32
  -4   1  13   40.37    3.48
  -4  -1 -13   34.72    3.31
   4  -1  13   39.42    2.95
  -4   1 -13   33.07    3.29
   4   1  13   32.74    2.97
  -4  -1  13   34.34    3.33
  -4  -1  13   35.03    3.34
   4   1  13   30.59    3.16
  -5  -1 -13   43.76    4.65
  -5   1  13   48.16    4.75
   5  -1  13   51.07    4.17
  -5   1  13   47.86    4.56
  -5   1 -13   59.42    4.77
  -5  -1  13   64.47    4.63
   5   1  13   64.15    4.72
  -5  -1  13   64.13    4.70
   5   1  13   62.78    4.22
  -6  -1 -13    5.16    1.85
  -6   1  13    3.76    1.56
  -6   1  13    6.98    1.98
  -6   1 -13    9.12    1.93
   6   1  13    6.19    1.88
  -6  -1  13    9.20    1.74
  -6  -1  13    9.73    2.09
  -7   1  13    3.09    2.11
  -7  -1 -13    2.03    1.96
  -7  -1  13    3.00    2.15
   7   1  13    1.72    2.01
  -7   1 -13    2.45    1.94
  -8  -1 -13    8.55    2.17
  -8   1  13    3.52    2.52
  -8  -1 -13    1.81    2.25
  -8  -1  13    5.01    2.54
  -8   1 -13    5.02    2.39
   8   1  13    5.11    2.49
  -9   1  13   20.33    3.66
  -9  -1 -13   21.01    3.65
  -9   1 -13   21.85    3.66
  -9  -1  13   26.73    3.78
   0  -2 -13  106.56    7.58
   0   2 -13  113.04    7.69
   0   2  13  109.93    7.48
   0  -2  13  112.25    7.31
   0  -2  13   99.63    7.64
   0   2  13  107.54    7.59
  -1  -2 -13   65.23    4.67
   1  -2  13   64.03    4.78
  -1   2  13   68.80    4.71
  -1   2  13   64.01    4.84
   1   2 -13   64.43    4.66
   1  -2  13   63.03    4.38
   1   2  13   61.35    4.71
  -1  -2  13   61.94    4.89
  -1   2 -13   63.95    4.76
   1   2  13   64.81    4.62
  -1  -2  13   61.98    4.48
   2  -2  13   16.33    1.88
  -2  -2 -13   17.03    2.01
   2   2 -13   15.66    1.86
  -2   2  13   16.63    1.84
  -2   2  13   16.92    2.02
  -2   2 -13   20.79    2.12
  -2  -2  13   23.67    2.04
  -2  -2  13   23.19    2.23
   2   2  13   23.52    2.02
   2   2  13   23.47    2.25
   3  -2  13  173.36   12.32
   3   2 -13  179.01   12.71
  -3   2  13  176.79   12.41
  -3   2  13  176.35   12.49
   3   2  13  185.89   12.84
   3   2  13  192.38   12.32
   3   2  13  183.22   12.32
  -3   2 -13  185.94   12.87
  -3  -2  13  186.74   12.35
  -3  -2  13  184.09   12.57
   4  -2  13    0.19    0.94
  -4   2  13   -0.62    1.23
  -4   2  13    0.88    1.29
   4   2  13   -0.17    1.14
  -4  -2  13    1.26    1.16
  -4  -2  13    1.22    1.35
   4   2  13    1.17    0.92
  -4   2 -13    0.31    1.15
   5  -2  13    9.46    1.31
  -5   2  13    9.72    1.76
  -5   2  13    9.53    1.87
   5   2  13    8.22    1.79
  -5   2 -13   10.82    1.77
  -5  -2  13    9.23    1.78
  -5  -2  13    7.48    1.72
   5   2  13   10.00    1.26
  -6   2  13    9.86    2.09
  -6   2  13   12.19    1.88
  -6  -2  13    9.16    1.83
   6   2  13    9.42    2.09
  -6  -2  13    9.13    2.04
  -6   2 -13    9.00    2.02
  -7   2  13   30.61    3.23
   7   2  13   22.99    3.16
  -7  -2  13   21.58    3.04
  -7   2 -13   22.37    3.03
  -8   2  13   -0.24    2.38
  -8  -2  13    3.45    2.48
  -8   2 -13    1.02    2.22
   8   2  13    1.62    2.39
  -9  -2 -13    5.02    2.47
  -9   2  13    1.07    2.89
  -9  -2 -13   -0.94    2.43
  -9  -2  13    4.37    2.75
   9   2  13    1.22    2.72
  -9   2 -13    4.93    2.74
   0  -3 -13   10.94    1.23
   0   3 -13   11.72    1.30
   0   3  13   10.51    1.31
   0   3  13   10.12    1.46
   0  -3  13   10.67    1.63
   1   3 -13  126.41    8.70
  -1  -3 -13  128.42    8.65
  -1   3  13  135.94    8.62
  -1   3  13  135.12    8.53
   1  -3  13  131.22    8.62
   1   3  13  116.92    8.64
   1   3  13  115.21    8.50
  -1  -3  13  117.35    8.28
   1   3  13  117.31    8.47
  -1  -3  13  117.05    8.67
  -1   3 -13  117.85    8.74
   2   3 -13   18.66    1.81
  -2   3  13   14.92    1.67
  -2   3  13   12.53    1.78
   2  -3  13   18.10    1.83
   2   3  13   15.21    1.58
   2   3  13   13.61    1.56
   2   3  13   15.97    1.67
  -2  -3  13   15.74    1.45
  -2   3 -13   15.19    1.69
  -2  -3  13   13.03    1.96
   3   3 -13   28.32    2.35
  -3   3  13   27.68    2.70
   3  -3  13   24.81    2.52
  -3   3  13   23.97    2.40
   3   3  13   20.55    2.35
   3   3  13   23.28    2.43
   3   3  13   21.82    2.45
  -3   3 -13   23.10    2.48
  -3  -3  13   22.24    2.42
  -3  -3  13   22.27    2.54
   4   3 -13   35.40    3.07
  -4   3  13   40.56    3.46
   4  -3  13   40.71    2.97
  -4   3  13   38.44    3.29
  -4  -3  13   28.59    2.77
   4   3  13   26.32    3.11
   4   3  13   26.28    3.08
   4   3  13   31.18    2.88
  -4  -3  13   32.10    3.35
  -4   3 -13   31.55    3.19
  -5   3  13   72.72    6.04
  -5   3  13   85.11    6.23
   5  -3  13   78.76    5.72
  -5  -3  13   81.68    6.26
  -5   3 -13   84.11    6.33
   5   3  13   79.60    6.31
  -5  -3  13   80.94    6.13
  -6   3  13   15.19    2.11
  -6   3  13   16.50    2.49
  -6  -3  13   15.58    2.19
  -6  -3  13   17.66    2.41
   6   3  13   16.73    2.50
  -6   3 -13   16.90    2.40
  -7   3  13   -0.88    2.09
  -7   3 -13   -0.80    1.82
  -7  -3  13    0.52    2.01
   7   3  13    1.31    2.04
  -8   3  13    3.43    2.46
  -8  -3  13   -0.15    2.41
  -8   3 -13    4.23    2.34
   8   3  13    2.87    2.42
  -9  -3 -13    5.88    2.46
  -9   3  13    1.78    2.91
  -9  -3  13    7.50    2.90
  -9   3 -13    9.86    2.90
   9   3  13    4.84    2.92
   0  -4  13    6.06    1.46
   0   4  13    7.05    1.33
   0   4  13    7.31    1.20
   0   4 -13    6.21    1.10
  -1   4  13   95.02    6.75
   1   4 -13   96.93    6.88
   1  -4  13   93.67    6.86
  -1   4  13  101.56    6.87
  -1   4 -13   94.63    6.92
   1   4  13   93.01    6.77
   1   4  13   97.36    6.76
  -1  -4  13   93.12    6.96
   1   4  13   92.95    6.76
   2  -4  13   30.70    3.04
  -2   4  13   33.18    3.07
  -2   4  13   33.53    3.16
   2   4 -13   32.81    2.90
   2   4  13   35.80    2.95
  -2   4 -13   32.48    2.94
   2   4  13   32.69    2.85
  -2  -4  13   32.25    2.67
   2   4  13   33.66    2.91
  -2  -4  13   33.83    3.31
   3  -4  13    1.88    1.17
   3   4 -13    3.69    1.05
  -3   4  13    4.76    1.33
  -3   4  13    3.58    1.35
   3   4  13   -0.75    1.06
  -3  -4  13   -0.02    0.95
   3   4  13    1.31    1.09
  -3   4 -13    0.91    1.12
   3   4  13    0.69    0.96
  -3  -4  13   -2.28    1.33
   4   4 -13   25.13    2.57
  -4   4  13   19.84    2.29
  -4   4  13   20.90    2.30
   4  -4  13   19.05    2.03
   4   4  13   20.54    2.17
  -4   4 -13   21.16    2.27
  -4  -4  13   19.29    2.42
   4   4  13   20.00    2.30
  -4  -4  13   19.09    2.12
   5  -4  13    2.81    1.10
  -5   4  13    1.23    1.64
   5   4 -13    3.30    1.21
  -5   4  13    2.45    1.48
   5   4  13    0.47    1.54
  -5   4 -13   -0.03    1.40
  -5  -4  13   -0.88    1.47
  -5  -4  13    0.32    1.53
  -6   4  13   38.03    3.69
  -6   4  13   36.83    4.03
  -6   4 -13   37.35    3.84
  -6  -4  13   38.62    3.75
  -6  -4  13   39.56    3.68
   6   4  13   37.56    4.04
  -7   4  13   40.15    4.01
   7   4  13   36.99    4.15
  -7   4 -13   35.63    3.91
  -7  -4  13   42.99    4.06
  -8   4  13   -2.23    2.43
  -8  -4  13    3.68    2.44
  -8   4 -13    3.12    2.28
   8   4  13    0.91    2.33
  -9   4  13   -1.63    2.88
  -9   4 -13    2.27    2.67
   9   4  13    1.92    2.65
  -9  -4  13    7.48    2.84
   0   5 -13   53.44    4.25
   0   5  13   56.01    4.26
   0  -5  13   51.14    4.50
   0   5  13   55.52    4.31
   1   5 -13   30.07    2.68
   1  -5  13   30.36    3.05
  -1   5  13   26.13    2.83
  -1   5  13   27.55    2.87
  -1   5 -13   28.63    2.66
  -1  -5  13   31.62    2.97
   1   5  13   28.59    2.74
   1   5  13   29.40    2.86
   1   5  13   26.71    2.47
  -2   5  13    8.48    1.60
  -2   5  13    9.03    1.66
   2  -5  13    7.37    1.60
   2   5 -13    8.80    1.40
  -2  -5  13   14.99    2.00
   2   5  13   12.23    1.54
  -2   5 -13   13.48    1.61
   2   5  13   15.45    1.54
  -3   5  13    8.75    1.53
   3   5 -13    6.09    1.25
   3  -5  13    6.69    1.41
  -3   5  13    7.87    1.56
  -3  -5  13    3.26    1.55
   3   5  13    2.96    1.28
   3   5  13    3.21    1.28
  -3   5 -13    3.21    1.33
  -4   5  13    8.83    1.78
   4   5 -13    8.07    1.54
   4  -5  13   11.43    1.59
  -4   5  13    8.92    1.83
  -4   5 -13   10.72    1.77
   4   5  13   10.06    1.83
  -4  -5  13   14.91    1.74
  -4  -5  13   12.25    2.03
   4   5  13   13.27    1.75
   5  -5  13   52.04    4.10
   5   5 -13   53.30    4.46
  -5   5  13   50.04    4.55
   5   5  13   49.32    4.68
  -5   5 -13   49.90    4.48
  -5  -5  13   54.24    4.53
  -5  -5  13   52.08    4.73
  -6   5  13    8.73    2.20
   6   5 -13    7.98    1.68
   6   5  13    7.79    2.19
  -6  -5  13    8.79    1.98
  -6   5 -13    6.63    1.92
  -6  -5  13   10.87    2.19
  -7   5  13    7.71    2.42
  -7  -5  13    9.22    2.39
   7   5  13    9.26    2.44
  -7   5 -13    6.82    2.20
  -8   5  13    3.69    2.59
  -8   5 -13    4.44    2.40
  -8  -5  13    8.97    2.70
   8   5  13    6.09    2.56
  -9   5  13    7.89    3.10
  -9  -5  13    6.27    2.75
   9   5  13    2.54    2.66
  -9   5 -13    0.93    2.61
   0   6 -13    4.96    1.20
   0  -6  13    2.91    1.54
   0   6  13    3.62    1.24
  -1   6  13   21.06    2.37
   1  -6  13   18.39    2.53
   1   6 -13   22.05    2.57
  -1  -6  13   29.49    2.82
   1   6  13   28.13    2.40
   1   6  13   28.25    2.55
  -1   6 -13   30.87    2.72
  -2   6  13   46.37    3.90
   2  -6  13   53.54    4.07
   2   6 -13   52.68    3.86
   2   6  13   40.50    3.72
  -2  -6  13   43.51    4.13
  -2   6 -13   41.41    3.86
   2   6  13   42.15    3.90
   3  -6  13   62.01    4.66
   3   6 -13   66.82    4.70
  -3   6  13   64.72    4.76
  -3   6 -13   53.73    4.71
  -3  -6  13   51.72    4.80
   3   6  13   55.51    4.53
   3   6  13   48.61    4.66
   4  -6  13    9.31    1.64
  -4   6  13   10.51    1.95
   4   6 -13   10.86    1.75
  -4  -6  13   10.22    2.03
   4   6  13   10.34    1.90
   4   6  13   13.96    1.84
  -4   6 -13   13.02    1.94
   5  -6  13    0.81    1.23
  -5   6  13    1.00    1.72
   5   6 -13    3.76    1.51
  -5   6 -13   -0.42    1.55
  -5  -6  13    1.81    1.59
   5   6  13    2.38    1.69
  -5  -6  13    2.13    1.68
  -6   6  13   13.33    2.53
   6   6 -13   12.59    2.16
  -6  -6  13   19.37    2.40
  -6  -6  13   17.64    2.54
   6   6  13   18.66    2.68
  -6   6 -13   18.49    2.51
  -7   6  13    6.55    2.47
   7   6  13   11.73    2.52
  -7  -6  13    7.57    2.42
  -7   6 -13    8.35    2.28
  -8   6  13    2.68    2.60
  -8  -6  13    4.31    2.48
   8   6  13    6.60    2.50
  -8   6 -13   -0.10    2.27
   0   7 -13   25.71    2.68
   0  -7  13   24.47    2.76
   0   7  13   23.11    2.39
  -1   7  13   19.09    2.08
   1   7 -13   18.01    1.99
   1  -7  13   18.42    2.38
  -1   7 -13   17.48    2.03
   1   7  13   17.64    2.00
  -1  -7  13   17.95    2.43
   2   7 -13   25.51    2.72
   2  -7  13   23.13    2.73
  -2   7  13   28.28    2.97
  -2   7 -13   27.28    2.89
   2   7  13   26.17    2.78
  -2  -7  13   23.75    2.89
   2   7  13   29.22    2.63
  -3   7  13   21.89    2.52
   3   7 -13   18.72    2.35
   3  -7  13   21.62    2.51
   3   7  13   24.23    2.46
  -3   7 -13   26.24    2.79
   3   7  13   28.25    2.69
  -3  -7  13   26.95    2.87
   4  -7  13    4.62    1.58
  -4   7  13    6.55    1.82
   4   7 -13    4.96    1.57
  -4  -7  13    9.39    1.99
   4   7  13    6.88    1.70
   4   7  13    8.18    1.89
  -4   7 -13    8.09    1.73
   5   7 -13   31.75    3.10
  -5   7  13   29.87    3.16
   5   7  13   28.55    2.98
   5   7  13   27.48    3.25
  -5   7 -13   28.27    3.07
  -5  -7  13   26.95    3.10
   6   7 -13    2.98    1.64
  -6   7  13    1.63    2.08
  -6  -7  13    1.35    1.75
   6   7  13    1.30    1.87
  -6   7 -13    0.14    1.81
  -7   7  13   11.25    2.63
  -7   7 -13   11.84    2.50
   7   7  13   10.14    2.50
  -8   7  13    3.65    2.74
  -8   7 -13    3.29    2.44
   8   7  13    3.19    2.40
   0   8 -13    5.72    1.42
   0   8  13    4.97    1.51
   0  -8  13    0.89    1.71
   1   8 -13    6.63    1.50
   1  -8  13    7.96    1.94
  -1   8  13    8.67    1.65
  -1  -8  13    6.29    1.95
   1   8  13    7.73    1.60
  -1   8 -13    8.54    1.60
   2   8 -13   38.15    3.52
   2  -8  13   34.68    3.72
  -2   8  13   35.44    3.57
  -2   8 -13   37.49    3.45
   2   8  13   37.28    3.61
   2   8  13   37.00    3.38
  -2  -8  13   31.82    3.53
  -3   8  13   55.68    4.40
   3  -8  13   52.99    4.46
   3   8 -13   58.44    4.45
  -3   8 -13   46.00    4.30
   3   8  13   46.81    4.26
  -3  -8  13   48.57    4.54
   3   8  13   41.90    4.48
   4   8 -13   11.30    2.01
  -4   8  13   13.12    2.23
   4  -8  13    9.34    1.97
  -4  -8  13   16.46    2.36
   4   8  13   14.34    2.09
   4   8  13   15.78    2.29
  -4   8 -13   13.83    2.10
  -5   8  13    2.33    1.95
   5   8 -13   -0.11    1.58
   5   8  13    5.03    1.99
   5   8  13   -0.34    1.75
  -5   8 -13    0.47    1.68
  -5  -8  13    0.66    1.75
  -6   8  13    6.38    2.29
   6   8 -13    8.98    1.99
  -6  -8  13    3.89    1.85
   6   8  13    2.16    2.11
  -6   8 -13    3.26    1.96
  -7   8  13   18.38    3.19
   7   8 -13   25.72    2.98
  -7   8 -13   18.75    3.02
   7   8  13   20.04    3.02
  -8   8  13    1.40    2.69
   8   8  13    3.18    2.35
  -8   8 -13    5.15    2.64
   0   9 -13    1.69    1.40
   0  -9  13   -2.07    1.70
   0   9  13    0.22    1.43
  -1   9  13   25.67    2.76
   1   9 -13   27.28    3.12
   1  -9  13   26.80    3.20
  -1  -9  13   29.65    3.26
   1   9  13   34.27    3.06
  -1   9 -13   28.87    3.14
   2   9 -13   15.23    2.03
  -2   9  13   16.48    2.19
   2  -9  13   15.32    2.40
   2   9  13   14.48    2.03
  -2  -9  13   12.51    2.38
  -2   9 -13   13.81    2.09
   3  -9  13   11.19    2.17
  -3   9  13   12.16    2.12
   3   9 -13   11.52    1.90
  -3  -9  13    9.68    2.21
   3   9  13    8.02    1.86
  -3   9 -13   10.20    1.95
   3   9  13    8.98    1.98
   4   9 -13   -0.02    1.62
  -4   9  13    2.12    1.89
   4  -9  13    1.73    1.68
   4   9  13    0.94    1.71
  -4  -9  13    2.80    1.87
   4   9  13    1.88    1.75
  -4   9 -13    4.42    1.77
  -5   9  13   10.16    2.38
   5   9 -13   12.11    2.19
  -5  -9  13   10.93    2.20
   5   9  13   12.08    2.38
   5   9  13    9.54    2.22
  -5   9 -13   11.53    2.21
   6   9 -13    3.28    1.97
  -6   9  13   -0.01    2.20
   6   9  13    3.29    2.15
  -6   9 -13    3.89    2.06
  -6  -9  13    6.52    2.03
   7   9 -13    5.56    2.15
  -7   9  13    7.13    2.66
   7   9  13    6.09    2.30
  -7   9 -13    9.83    2.52
   0 -10  13    8.62    2.29
   0  10 -13   11.53    1.89
   0  10  13   10.70    1.91
   1  10 -13    2.80    1.52
   1 -10  13    3.02    2.01
  -1  10  13    4.21    1.72
  -1 -10  13    1.69    1.95
  -1  10 -13    0.13    1.48
   1  10  13    2.69    1.56
   2  10 -13    2.95    1.51
   2 -10  13    1.97    1.98
  -2  10  13    2.39    1.69
  -2  10 -13    7.79    1.82
   2  10  13    4.65    1.68
  -2 -10  13    4.08    1.99
   3  10 -13   34.62    3.81
  -3  10  13   35.92    3.84
   3 -10  13   32.87    3.64
   3  10  13   40.71    3.73
  -3 -10  13   34.56    3.73
  -3  10 -13   40.95    3.79
   4  10 -13    1.27    1.69
   4 -10  13    0.97    1.82
  -4  10  13   -0.10    1.93
  -4  10 -13    2.32    1.85
  -4 -10  13    6.15    2.05
   4  10  13    2.99    1.82
   4  10  13    4.49    1.91
  -5  10  13   -1.72    2.09
   5  10 -13   -0.59    1.77
  -5 -10  13    2.46    1.92
   5  10  13    3.67    1.98
   5  10  13    2.07    1.95
  -5  10 -13   -0.23    1.84
   6  10 -13    6.16    2.16
  -6  10  13    3.57    2.46
   6  10  13    1.86    2.13
  -6  10 -13    0.57    2.06
  -6 -10  13    2.66    1.96
   0 -11  13   -1.55    2.00
   0  11  13    1.84    1.63
   0  11 -13    0.89    1.57
   1 -11  13   16.04    2.82
  -1  11  13   19.17    2.39
   1  11 -13   16.62    2.31
   1  11  13   15.29    2.25
  -1  11 -13   15.72    2.32
  -1 -11  13   18.15    2.88
   2 -11  13   17.87    2.83
  -2  11  13   11.48    2.25
   2  11 -13   16.27    2.24
  -2 -11  13   19.57    2.84
  -2  11 -13   14.02    2.28
   2  11  13   15.74    2.27
   3  11 -13    1.38    1.67
   3 -11  13    2.62    2.10
  -3  11  13    1.10    1.95
  -3  11 -13    3.99    1.89
  -3 -11  13    3.71    2.09
   3  11  13    2.75    1.80
  -4  11  13   14.49    2.55
   4 -11  13   15.67    2.54
   4  11 -13   13.31    2.35
  -4 -11  13   13.49    2.50
  -4  11 -13    8.72    2.30
   4  11  13   11.46    2.29
   5  11 -13    2.12    2.01
  -5  11  13    4.42    2.36
   5  11  13    4.12    2.10
  -5 -11  13    4.56    2.09
   5  11  13    5.85    2.17
  -5  11 -13    4.12    2.11
  -6  11  13    6.84    2.69
   6  11 -13    6.52    2.32
  -6  11 -13    4.36    2.34
  -6 -11  13    9.58    2.25
   6  11  13    8.47    2.46
   0  12  13   33.94    3.64
   0  12 -13   36.22    3.79
   0 -12  13   34.27    3.96
   1 -12  13    0.58    2.23
  -1  12  13    1.52    1.84
   1  12 -13    4.27    1.71
  -1  12 -13    3.27    1.79
  -1 -12  13    2.42    2.25
   1  12  13    3.28    1.83
   2  12 -13    7.45    1.94
   2 -12  13    6.85    2.46
  -2  12  13    4.98    2.08
  -2  12 -13    5.77    1.99
  -2 -12  13    7.44    2.46
   2  12  13   10.31    2.08
   3 -12  13    1.58    2.17
   3  12 -13    2.31    1.82
  -3  12  13   -0.50    1.97
  -3 -12  13    1.17    2.15
  -3  12 -13    1.74    1.89
   3  12  13    0.72    1.82
   4  12 -13    5.14    2.04
   4 -12  13    3.79    2.19
  -4  12  13    5.23    2.33
  -4  12 -13    3.94    2.12
   4  12  13    4.70    2.09
  -4 -12  13    8.34    2.38
   5  12 -13    3.08    2.15
  -5  12  13    2.02    2.46
   5  12  13    1.96    2.11
  -5  12 -13    1.02    2.16
  -5 -12  13    7.21    2.26
   0  13  13   14.92    2.41
   0 -13  13   12.28    2.91
   0  13 -13   14.97    2.39
  -1  13  13   -0.18    1.88
   1  13 -13    3.02    1.75
   1 -13  13    1.36    2.37
  -1 -13  13    5.09    2.46
   1  13  13    1.38    1.91
  -1  13 -13    2.47    1.84
   2  13 -13    6.33    1.98
  -2  13  13    6.14    2.24
   2 -13  13    6.16    2.63
  -2 -13  13    9.14    2.62
  -2  13 -13    8.86    2.24
   2  13  13    8.31    2.14
  -3  13  13    1.43    2.13
   3 -13  13   -0.97    2.33
   3  13 -13    0.82    1.83
   3  13  13   -0.03    1.94
  -3  13 -13   -0.34    1.94
  -3 -13  13    0.21    2.27
   0 -14  13    6.30    2.68
   0  14 -13    3.73    1.83
   0  14  13    3.48    2.05
  -1  14  13    5.03    2.21
   1  14 -13    3.22    1.87
   1 -14  13    1.21    2.57
   1  14  13    4.93    2.04
  -1  14 -13    3.51    2.00
  -1 -14  13    7.97    2.70
   0   0 -14  125.00    8.60
   0   0  14  117.58    8.33
   0   0  14  126.40    8.57
   1   0  14  416.71   27.11
   1   0 -14  406.35   27.95
  -1   0  14  417.48   27.05
  -1   0 -14  399.71   28.04
  -1   0  14  407.31   27.15
   1   0  14  399.34   26.99
  -2   0  14   10.64    1.58
  -2   0 -14    7.72    1.20
  -2   0  14    7.38    1.17
   2   0  14    7.43    1.04
  -3   0  14   40.90    3.57
  -3   0  14   46.11    3.82
  -3   0 -14   37.77    3.57
   3   0  14   45.84    3.46
   4   0  14    9.25    1.37
  -4   0  14   10.27    1.80
  -4   0 -14   10.79    1.65
  -4   0  14   11.66    1.71
  -5   0 -14   27.64    3.16
  -5   0  14   28.58    3.15
  -5   0  14   30.35    2.92
   5   0  14   30.91    2.76
  -6   0  14    0.71    1.45
  -6   0 -14   -1.11    1.58
  -6   0  14    1.41    1.77
  -7   0 -14    0.14    2.02
  -7   0  14   -1.60    2.04
  -8   0 -14   -1.39    2.17
  -8   0  14   -2.15    2.40
  -9   0 -14    8.76    2.97
  -9   0  14   10.29    3.22
   0  -1  14    3.09    0.73
   0  -1  14    2.61    1.16
   0   1  14    1.85    0.84
   0   1  14    1.64    1.08
   0   1 -14    3.93    0.81
   0  -1 -14    3.13    0.73
  -1  -1 -14   52.33    4.73
   1  -1  14   55.56    4.85
  -1   1  14   60.15    4.88
  -1   1  14   57.29    4.74
   1  -1  14   56.71    4.49
   1   1 -14   61.34    4.68
  -1  -1  14   76.41    4.69
   1   1  14   74.00    4.64
  -1   1 -14   75.32    4.83
   1   1  14   80.18    4.90
  -1  -1  14   69.67    5.03
   2  -1  14    7.03    1.34
  -2   1  14    8.85    1.31
   2  -1  14    8.50    1.05
  -2  -1 -14    9.63    1.24
   2   1 -14    5.55    0.98
  -2   1  14    7.81    1.49
   2   1  14   10.02    1.38
   2   1  14   10.93    1.22
  -2  -1  14   11.20    1.65
  -2  -1  14   11.98    1.25
  -2   1 -14   12.34    1.35
  -3   1  14  151.55   10.42
   3  -1  14  147.17   10.31
  -3  -1 -14  149.77   10.71
  -3   1  14  146.96   10.48
   3   1  14  150.44   10.29
   3   1  14  153.77   10.30
  -3  -1  14  155.85   10.35
  -3   1 -14  150.50   10.75
  -3  -1  14  152.54   10.56
  -4   1  14   13.61    1.89
  -4   1  14   11.29    1.90
   4  -1  14   11.85    1.57
  -4  -1 -14   14.31    1.86
  -4   1 -14   14.49    1.83
  -4  -1  14   15.60    2.05
  -4  -1  14   14.39    1.81
   4   1  14   16.13    1.62
   5  -1  14    3.47    1.08
  -5   1  14    3.62    1.66
  -5   1  14    3.05    1.51
  -5  -1 -14    3.37    1.56
  -5   1 -14    2.56    1.48
  -5  -1  14    4.24    1.62
   5   1  14    2.54    1.08
  -5  -1  14    1.85    1.50
  -6   1  14    2.69    1.53
  -6   1  14    4.39    1.93
  -6  -1 -14    2.52    1.78
  -6   1 -14    3.46    1.76
  -6  -1  14    2.76    1.57
  -6  -1  14    5.83    1.92
  -7   1  14   44.31    4.84
  -7  -1 -14   42.52    4.80
  -7  -1  14   45.58    4.84
  -7   1 -14   48.97    4.67
  -8   1  14    0.23    2.49
  -8  -1 -14    1.76    2.37
  -8  -1  14    5.10    2.59
  -8   1 -14    2.50    2.36
  -9  -1 -14   -1.95    2.53
  -9   1  14   -1.63    2.83
  -9  -1  14   -2.69    2.75
  -9   1 -14    0.57    2.66
   0   2  14    2.39    0.88
   0  -2  14   -0.58    1.10
   0  -2 -14    0.89    0.61
   0   2  14    0.37    1.03
  -1  -2 -14   30.65    2.82
   1   2 -14   34.99    2.86
  -1   2  14   33.30    3.15
  -1   2  14   34.76    3.01
   1  -2  14   28.17    3.08
   1   2  14   46.54    3.19
  -1  -2  14   43.82    3.33
  -2  -2 -14   13.24    1.53
  -2   2  14   13.15    1.64
   2   2 -14   12.94    1.43
   2  -2  14   15.40    1.75
  -2   2  14   12.16    1.81
  -2  -2  14   12.71    1.89
   2   2  14   14.79    1.53
   2   2  14   16.20    1.70
  -2  -2  14   17.97    1.53
  -2   2 -14   18.89    1.74
  -3   2  14   70.23    5.48
   3  -2  14   66.00    5.38
  -3  -2 -14   69.45    5.56
   3   2 -14   70.76    5.42
  -3   2  14   69.25    5.61
  -3   2 -14   81.43    5.62
  -3  -2  14   77.55    5.43
  -3  -2  14   70.53    5.66
   3   2  14   78.20    5.38
   3   2  14   79.37    5.59
   3   2  14   77.89    5.40
  -4   2  14    8.79    1.82
  -4   2  14   11.07    1.83
   4  -2  14   10.62    1.53
   4   2  14   16.12    1.86
   4   2  14   15.18    1.56
  -4  -2  14   12.85    1.97
  -4   2 -14   12.95    1.80
  -4  -2  14   13.09    1.72
   5  -2  14   77.54    5.42
  -5   2  14   78.37    5.90
  -5   2  14   73.41    5.78
   5   2  14   72.08    5.93
   5   2  14   76.12    5.37
  -5   2 -14   71.22    5.93
  -5  -2  14   72.38    5.84
  -5  -2  14   72.27    5.78
  -6   2  14   11.30    2.23
  -6   2  14    8.87    1.83
   6   2  14    7.44    2.07
  -6  -2  14   10.68    2.22
  -6  -2  14    8.15    1.84
  -6   2 -14    9.46    1.99
  -7   2  14    0.38    2.11
  -7   2 -14    1.98    1.92
  -7  -2  14    0.95    2.15
   7   2  14    0.54    2.07
  -8   2  14    0.20    2.49
  -8  -2 -14   -1.55    2.19
   8   2  14   -2.19    2.27
  -8  -2  14   -0.58    2.43
  -8   2 -14   -3.95    2.11
  -9   2  14   26.94    3.94
  -9  -2 -14   21.65    3.58
   9   2  14   21.68    3.86
  -9   2 -14   17.29    3.51
  -9  -2  14   25.70    3.82
   0  -3  14   27.38    2.95
   0   3  14   29.59    2.72
   0   3  14   28.66    2.77
   0   3 -14   28.67    2.59
   1   3 -14   23.74    2.03
  -1   3  14   17.61    1.85
  -1  -3 -14   15.94    1.91
  -1   3  14   15.83    2.02
   1  -3  14   15.42    2.02
  -1  -3  14   19.03    2.27
  -1   3 -14   25.39    2.13
   1   3  14   22.62    2.25
   1   3  14   16.35    1.91
   2  -3  14    8.00    1.46
  -2   3  14    9.82    1.45
  -2   3  14   10.43    1.63
   2   3 -14    9.46    1.20
  -2  -3  14    9.00    1.11
   2   3  14    9.12    1.23
   2   3  14    9.81    1.33
   2   3  14    7.53    1.35
  -2   3 -14    8.39    1.39
  -2  -3  14    6.98    1.70
  -3   3  14   85.16    6.12
  -3   3  14   81.47    6.09
   3   3 -14   89.73    6.04
   3  -3  14   84.51    5.94
   3   3  14   77.35    5.87
   3   3  14   79.51    6.12
   3   3  14   80.94    5.88
  -3  -3  14   77.38    6.24
  -3   3 -14   78.13    6.12
  -3  -3  14   81.88    5.88
  -4   3  14   13.37    1.92
   4  -3  14   10.20    1.57
  -4   3  14   14.93    1.99
   4   3  14   12.46    1.53
  -4   3 -14   14.16    1.86
   4   3  14   14.91    1.89
  -4  -3  14   14.52    1.73
   4   3  14   11.41    1.68
  -4  -3  14   10.05    1.97
  -5   3  14   -0.08    1.44
   5  -3  14    0.09    1.05
  -5   3  14   -1.19    1.57
  -5  -3  14   -1.20    1.47
  -5   3 -14    0.62    1.44
  -5  -3  14    0.52    1.56
   5   3  14   -0.85    1.44
  -6   3  14    4.87    1.66
  -6   3  14    8.16    2.10
  -6   3 -14    7.14    1.97
  -6  -3  14    9.58    1.91
  -6  -3  14    6.08    2.04
   6   3  14    6.94    2.07
  -7   3  14   40.97    4.37
  -7   3 -14   47.44    4.57
   7   3  14   44.05    4.68
  -7  -3  14   43.37    4.25
  -8   3  14   -0.92    2.49
  -8   3 -14   -0.23    2.27
   8   3  14   -3.33    2.31
  -8  -3  14    2.20    2.46
  -9   3  14    2.08    2.97
  -9  -3 -14    7.36    2.60
   9   3  14    0.31    2.75
  -9   3 -14    3.65    2.81
  -9  -3  14    2.24    2.78
   0   4 -14   38.91    3.17
   0  -4  14   38.95    3.49
   0   4  14   35.98    3.28
   0   4  14   36.11    3.20
   1  -4  14   99.44    7.65
  -1   4  14  102.20    7.60
  -1   4  14  101.81    7.53
   1   4 -14  103.65    7.65
   1   4  14  111.63    7.59
  -1   4 -14  111.90    7.74
   1   4  14  109.61    7.55
   1   4  14  108.32    7.49
  -1  -4  14  113.03    7.79
  -2   4  14   51.19    4.07
  -2   4  14   54.73    4.12
   2   4 -14   49.88    3.87
   2  -4  14   49.74    4.00
  -2   4 -14   44.95    3.96
  -2  -4  14   44.03    4.18
   2   4  14   48.01    3.78
   2   4  14   45.66    3.81
   2   4  14   46.07    3.82
   3   4 -14   17.04    2.01
   3  -4  14   20.81    2.22
  -3   4  14   16.23    2.28
  -3   4  14   15.73    2.17
   3   4  14   28.35    2.47
  -3  -4  14   25.29    2.40
  -3   4 -14   23.15    2.28
   3   4  14   24.14    2.45
   3   4  14   26.50    2.44
  -3  -4  14   26.40    2.66
   4  -4  14   15.44    1.79
   4   4 -14   15.18    1.76
  -4   4  14   14.94    2.07
  -4   4  14   12.46    1.97
  -4  -4  14   13.70    2.23
  -4  -4  14   15.26    1.84
  -4   4 -14   12.44    1.92
   4   4  14   13.88    1.88
   4   4  14   17.05    2.04
  -5   4  14   73.82    5.83
   5  -4  14   76.27    5.26
  -5   4  14   65.45    5.56
  -5  -4  14   69.83    5.72
   5   4  14   71.72    5.83
  -5   4 -14   65.70    5.72
  -5  -4  14   71.53    5.65
  -6   4  14    6.17    1.78
  -6   4  14    9.24    2.19
   6   4  14    5.06    2.05
  -6  -4  14    6.21    1.86
  -6   4 -14    5.42    1.91
  -6  -4  14    7.77    2.03
  -7   4  14    4.20    2.32
  -7   4 -14    1.42    2.04
   7   4  14    2.60    2.16
  -7  -4  14    4.54    2.23
  -8   4  14    3.44    2.70
  -8  -4  14   10.11    2.76
   8   4  14    6.42    2.65
  -8   4 -14    3.15    2.39
  -9   4  14    1.46    2.99
  -9  -4  14    2.15    2.72
  -9   4 -14    2.13    2.72
   9   4  14    1.51    2.84
   0   5  14   47.46    3.69
   0  -5  14   41.14    3.82
   0   5 -14   42.67    3.59
   0   5  14   40.54    3.66
   1   5 -14   40.41    3.53
   1  -5  14   36.01    3.76
  -1   5  14   39.92    3.65
  -1   5  14   40.32    3.66
   1   5  14   45.94    3.59
  -1  -5  14   46.51    3.91
   1   5  14   45.04    3.61
  -1   5 -14   46.09    3.63
  -2   5  14    2.37    1.33
   2   5 -14    0.59    1.03
  -2   5  14    0.89    1.33
   2  -5  14    2.02    1.34
  -2   5 -14    1.99    1.17
   2   5  14    1.21    0.97
  -2  -5  14    0.77    1.54
   2   5  14    1.70    1.07
   2   5  14    1.97    1.20
  -3   5  14   26.31    2.65
   3   5 -14   30.39    2.78
   3  -5  14   23.45    2.55
  -3   5  14   28.79    2.80
  -3  -5  14   24.96    2.92
   3   5  14   27.58    2.80
  -3   5 -14   27.52    2.94
   3   5  14   25.28    2.82
  -4   5  14   14.99    2.16
  -4   5  14   14.70    2.11
   4   5 -14   13.19    1.80
   4  -5  14   15.32    1.87
  -4   5 -14   16.98    2.09
   4   5  14   14.16    1.92
  -4  -5  14   16.62    2.31
   4   5  14   11.90    1.99
  -5   5  14   -1.11    1.47
   5   5 -14    0.93    1.31
  -5   5  14   -0.49    1.69
  -5   5 -14    2.31    1.58
   5   5  14    0.25    1.63
  -5  -5  14    2.87    1.76
  -5  -5  14    3.40    1.61
  -6   5  14    5.61    2.16
  -6   5 -14    9.26    2.06
   6   5  14    6.83    2.12
  -6  -5  14    7.92    2.01
  -6  -5  14    9.48    2.13
  -7   5  14   15.70    2.86
  -7  -5  14   20.25    2.90
  -7   5 -14   16.00    2.69
   7   5  14    9.60    2.66
  -8   5  14   -1.68    2.49
  -8  -5  14    1.32    2.50
  -8   5 -14   -0.73    2.28
   8   5  14    0.45    2.30
   0  -6  14   33.96    3.27
   0   6  14   29.47    3.15
   0   6 -14   31.75    3.02
   1  -6  14   40.52    3.69
  -1   6  14   40.70    3.47
   1   6 -14   46.80    3.41
   1   6  14   34.53    3.24
  -1  -6  14   30.21    3.45
  -1   6 -14   33.43    3.38
  -2   6  14   25.41    2.33
   2   6 -14   18.57    2.03
   2  -6  14   22.35    2.38
  -2   6 -14   16.92    2.09
  -2  -6  14   16.81    2.46
   2   6  14   16.52    1.95
  -3   6  14   22.57    2.37
   3  -6  14   19.54    2.26
   3   6 -14   21.93    2.18
   3   6  14   19.37    2.24
  -3  -6  14   17.55    2.52
  -3   6 -14   19.20    2.26
   3   6  14   16.98    2.16
   4   6 -14    7.59    1.63
  -4   6  14    8.46    1.92
   4  -6  14    7.67    1.64
   4   6  14    9.76    1.78
  -4   6 -14    8.87    1.81
  -4  -6  14    8.84    2.04
   4   6  14   12.33    1.97
  -5   6  14   16.68    2.55
   5   6 -14   21.22    2.40
   5   6  14   21.58    2.70
  -5  -6  14   20.03    2.61
   5   6  14   19.12    2.38
  -5   6 -14   17.34    2.50
  -6   6  14    9.94    2.34
  -6   6 -14   12.24    2.27
   6   6  14   10.48    2.41
  -6  -6  14    9.15    2.14
  -7   6  14    5.00    2.49
  -7   6 -14    5.17    2.17
   7   6  14    4.76    2.30
  -8   6  14    4.88    2.80
  -8   6 -14    7.38    2.57
   8   6  14    9.16    2.70
   0   7  14   -0.32    1.28
   0  -7  14   -2.01    1.55
   0   7 -14    0.07    1.18
  -1   7  14   59.14    4.50
   1   7 -14   60.43    4.50
   1  -7  14   56.87    4.80
  -1  -7  14   48.94    4.76
  -1   7 -14   53.71    4.54
   1   7  14   49.08    4.32
   2  -7  14    6.32    1.86
  -2   7  14    9.19    1.78
   2   7 -14   11.11    1.63
  -2   7 -14    7.94    1.64
  -2  -7  14    8.19    2.03
   2   7  14    8.45    1.62
   3  -7  14   20.14    2.62
   3   7 -14   22.58    2.52
  -3   7  14   19.97    2.59
  -3   7 -14   24.97    2.60
   3   7  14   28.60    2.92
  -3  -7  14   27.59    3.00
   3   7  14   28.71    2.93
   4  -7  14    5.50    1.65
  -4   7  14    3.21    1.89
   4   7 -14    8.27    1.74
   4   7  14    9.29    1.82
   4   7  14   10.78    1.92
  -4   7 -14    6.23    1.77
  -4  -7  14   12.67    2.19
  -5   7  14    0.57    1.92
   5   7 -14    2.72    1.59
   5   7  14    1.33    1.74
  -5   7 -14    2.14    1.72
  -5  -7  14    4.27    1.89
   5   7  14    2.17    1.75
   6   7 -14    0.25    1.59
  -6   7  14    0.56    2.09
  -6  -7  14    0.99    1.80
  -6   7 -14    0.45    1.88
   6   7  14   -0.71    1.87
  -7   7  14   33.38    3.69
  -7   7 -14   26.86    3.46
   7   7  14   24.33    3.48
  -8   7  14    1.08    2.73
   8   7  14    2.61    2.41
  -8   7 -14    4.87    2.54
   0   8  14   -0.48    1.40
   0   8 -14   -0.31    1.29
   0  -8  14   -0.80    1.75
  -1   8  14   31.27    3.22
   1   8 -14   33.84    3.22
   1  -8  14   32.72    3.38
   1   8  14   31.96    3.19
  -1   8 -14   30.01    3.15
  -1  -8  14   29.27    3.36
   2   8 -14    5.44    1.54
  -2   8  14    2.64    1.67
   2  -8  14    5.55    1.93
  -2  -8  14    8.66    2.11
   2   8  14    7.28    1.63
  -2   8 -14    7.64    1.69
  -3   8  14   58.93    4.76
   3   8 -14   59.73    4.78
   3  -8  14   55.77    4.73
   3   8  14   48.20    4.93
  -3  -8  14   51.27    4.92
  -3   8 -14   52.61    4.67
   3   8  14   58.76    4.63
  -4   8  14    5.29    1.96
   4   8 -14    2.89    1.65
   4  -8  14    2.92    1.68
  -4   8 -14    2.52    1.65
  -4  -8  14    3.79    1.98
   4   8  14    2.43    1.77
   4   8  14    2.85    1.71
   5   8 -14   15.66    2.34
  -5   8  14   13.89    2.56
  -5   8 -14   12.80    2.33
   5   8  14   14.47    2.40
   5   8  14   14.88    2.47
  -5  -8  14   18.45    2.54
   6   8 -14    1.73    1.78
  -6   8  14    0.42    2.16
  -6   8 -14    0.70    1.87
   6   8  14   -1.21    1.90
  -6  -8  14    2.51    1.84
  -7   8  14    1.83    2.50
  -7   8 -14    3.13    2.24
   7   8  14    4.13    2.26
   0   9  14   -0.88    1.47
   0   9 -14   -1.36    1.37
   0  -9  14   -1.52    1.82
   1   9 -14    6.02    1.64
   1  -9  14    3.42    2.05
  -1   9  14    6.45    1.74
  -1  -9  14    3.68    2.08
  -1   9 -14    8.23    1.71
   1   9  14    4.95    1.63
   2   9 -14    7.84    1.72
  -2   9  14    7.68    1.91
   2  -9  14    6.94    2.12
   2   9  14    7.29    1.75
  -2   9 -14    8.36    1.84
  -2  -9  14    8.36    2.31
   3  -9  14   39.14    4.24
   3   9 -14   47.34    4.18
  -3   9  14   42.20    4.12
  -3  -9  14   43.41    4.28
  -3   9 -14   39.63    4.07
   3   9  14   44.15    4.01
  -4   9  14   13.62    2.36
   4  -9  14   14.27    2.24
   4   9 -14   12.17    2.12
  -4  -9  14   13.35    2.39
   4   9  14   10.11    2.22
   4   9  14   10.26    2.14
  -4   9 -14    9.69    2.09
   5   9 -14   -0.26    1.71
  -5   9  14   -1.99    2.06
   5   9  14    3.24    1.97
  -5  -9  14    1.81    1.93
  -5   9 -14    2.85    1.87
   5   9  14    0.53    1.90
   6   9 -14    8.29    2.23
  -6   9  14    8.65    2.63
  -6   9 -14    9.38    2.38
  -6  -9  14   12.49    2.29
   6   9  14    9.81    2.38
  -7   9  14   10.98    2.90
   7   9  14   11.30    2.61
  -7   9 -14   14.39    2.78
   0 -10  14    9.41    2.39
   0  10 -14    7.30    1.81
   0  10  14   11.07    1.98
   1  10 -14   36.69    3.70
  -1  10  14   37.32    3.65
   1 -10  14   35.62    3.85
  -1  10 -14   35.52    3.62
  -1 -10  14   37.12    3.93
   1  10  14   36.08    3.55
  -2  10  14   18.00    2.43
   2  10 -14   20.22    2.34
   2 -10  14   17.93    2.73
   2  10  14   15.04    2.31
  -2 -10  14   17.45    2.76
  -2  10 -14   16.76    2.38
   3 -10  14    1.67    1.98
   3  10 -14    2.96    1.67
  -3  10  14    0.15    1.86
  -3  10 -14    0.60    1.75
   3  10  14    2.71    1.75
  -3 -10  14    2.75    2.05
  -4  10  14    9.45    2.35
   4  10 -14   10.35    2.19
   4 -10  14   15.68    2.43
  -4 -10  14   13.69    2.49
   4  10  14   12.57    2.24
  -4  10 -14   12.09    2.29
   5  10 -14    8.06    2.13
  -5  10  14    6.93    2.41
   5  10  14    6.58    2.27
   5  10  14    7.58    2.26
  -5  10 -14    4.35    2.08
  -5 -10  14    7.27    2.20
   6  10 -14    6.59    2.24
  -6  10  14    4.17    2.59
  -6 -10  14    8.65    2.19
   6  10  14    7.75    2.48
  -6  10 -14    4.85    2.27
   0  11  14   34.09    3.62
   0  11 -14   40.14    3.79
   0 -11  14   33.82    3.97
   1  11 -14    1.40    1.64
  -1  11  14    0.95    1.79
   1 -11  14    1.32    2.17
   1  11  14    3.29    1.71
  -1 -11  14    0.21    2.07
  -1  11 -14    2.64    1.77
  -2  11  14   -0.85    1.78
   2  11 -14    0.82    1.65
   2 -11  14    0.08    2.08
  -2  11 -14    0.77    1.71
  -2 -11  14    1.79    2.12
   2  11  14    2.22    1.80
  -3  11  14   16.89    2.51
   3  11 -14   14.87    2.35
   3 -11  14   17.09    2.77
  -3 -11  14   16.39    2.73
  -3  11 -14   13.43    2.40
   3  11  14   12.93    2.34
   4 -11  14    5.99    2.19
   4  11 -14    5.51    2.02
  -4  11  14    3.96    2.28
   4  11  14    6.86    2.06
  -4 -11  14    7.35    2.33
  -4  11 -14    4.88    2.11
   5  11 -14   10.64    2.47
  -5  11  14   13.36    2.69
  -5 -11  14   11.56    2.43
  -5  11 -14    9.79    2.41
   5  11  14    9.38    2.43
   0 -12  14   -0.77    2.25
   0  12  14    1.22    1.84
   0  12 -14    1.78    1.79
   1  12 -14    5.42    1.89
  -1  12  14    7.09    2.11
   1 -12  14    4.10    2.41
   1  12  14    8.73    2.04
  -1  12 -14    7.59    2.04
  -1 -12  14    7.64    2.53
  -2  12  14    2.70    2.01
   2  12 -14    2.03    1.81
   2 -12  14    3.81    2.41
  -2  12 -14    3.60    1.92
   2  12  14    4.07    1.95
  -2 -12  14    4.04    2.36
   3  12 -14    3.72    1.93
  -3  12  14    4.74    2.17
   3 -12  14    4.50    2.36
   3  12  14    6.80    2.09
  -3 -12  14    8.94    2.49
  -3  12 -14    6.98    2.15
  -4  12  14    0.35    2.26
   4 -12  14    2.87    2.24
   4  12 -14   -0.33    1.90
   4  12  14   -0.41    1.94
  -4 -12  14    1.45    2.23
  -4  12 -14    0.76    2.05
   0  13 -14    6.26    2.03
   0  13  14    7.27    2.12
   0 -13  14    4.88    2.66
   1  13 -14    5.22    1.93
  -1  13  14    7.24    2.18
   1 -13  14    8.23    2.79
   1  13  14    6.77    2.14
  -1 -13  14   12.35    2.77
  -1  13 -14    7.81    2.12
  -2  13  14   -1.19    2.04
   2  13 -14   -1.21    1.76
   2 -13  14   -1.53    2.32
  -2 -13  14    4.47    2.48
   2  13  14    0.32    1.95
  -2  13 -14    2.99    2.02
  -3  13  14    4.80    2.28
   3  13 -14    0.83    1.93
   3 -13  14    3.88    2.50
  -3  13 -14    2.42    2.08
  -3 -13  14    2.90    2.40
   3  13  14    1.13    2.00
   0   0  15    4.60    1.28
  -1   0  15   82.16    6.38
  -1   0 -15   94.35    6.59
   1   0  15   99.14    6.60
  -2   0  15  136.61    9.19
  -2   0  15  126.60    9.36
   2   0  15  131.60    9.05
  -2   0 -15  138.44    9.50
   2   0  15  131.86    9.23
   3   0  15   -0.13    1.04
  -3   0 -15    0.90    1.04
  -3   0  15   -0.68    1.08
  -3   0  15    1.85    1.45
  -4   0  15    0.68    1.33
  -4   0 -15    0.86    1.25
   4   0  15    0.29    1.06
  -4   0  15    1.14    1.47
  -5   0  15    4.10    1.66
  -5   0 -15    3.85    1.60
  -5   0  15    4.18    1.65
   5   0  15    4.06    1.24
  -6   0  15    1.91    1.87
  -6   0 -15    0.24    1.70
  -6   0  15    0.21    1.55
  -7   0  15   13.64    2.63
  -7   0 -15    6.41    2.32
  -8   0 -15    2.67    2.43
  -8   0  15    0.42    2.57
  -9   0 -15    0.18    2.67
  -9   0  15    1.98    3.00
   0  -1  15   24.59    2.15
   0   1  15   23.29    2.35
   0  -1  15   26.43    2.63
   0  -1 -15   23.82    2.09
   0   1  15   22.07    2.31
   0   1 -15   24.19    2.22
   1  -1  15   32.86    2.67
  -1   1  15   31.55    2.99
   1  -1  15   33.10    3.18
  -1  -1 -15   35.21    2.91
  -1   1  15   30.75    3.23
   1   1 -15   36.17    2.81
   1   1  15   35.78    3.11
  -1  -1  15   35.73    2.88
  -1   1 -15   37.63    2.98
  -1  -1  15   37.00    3.29
   1   1  15   36.07    2.88
   2  -1  15    7.87    1.39
  -2   1  15    8.81    1.29
  -2   1  15    8.32    1.58
  -2  -1 -15    8.41    1.20
  -2   1 -15    5.96    1.22
  -2  -1  15    5.60    1.56
   2   1  15    6.86    1.11
   2   1  15    6.04    1.30
  -2  -1  15    6.39    1.15
  -3   1  15    7.46    1.61
  -3   1  15    8.46    1.40
  -3  -1 -15   10.02    1.42
  -3  -1  15    5.23    1.27
  -3   1 -15    6.11    1.35
   3   1  15    5.82    1.20
  -3  -1  15    4.51    1.56
   4  -1  15   24.84    2.52
  -4   1  15   27.79    2.52
  -4  -1 -15   27.44    2.84
  -4   1  15   25.15    2.64
  -4  -1  15   23.55    2.44
  -4   1 -15   24.85    2.51
  -4  -1  15   23.04    2.64
   4   1  15   20.49    2.20
  -5  -1 -15   67.95    5.46
  -5   1  15   76.51    5.51
  -5   1  15   68.27    5.24
   5  -1  15   68.31    4.84
   5   1  15   60.55    4.82
  -5  -1  15   63.34    5.34
  -5  -1  15   55.84    5.14
  -5   1 -15   59.00    5.26
  -6   1  15   14.66    2.27
  -6  -1 -15   16.88    2.56
  -6   1  15   16.28    2.60
  -6  -1  15   20.44    2.63
  -6   1 -15   14.71    2.43
  -6  -1  15   16.33    2.31
  -7   1  15    2.31    2.27
  -7  -1 -15    3.62    2.20
  -7   1 -15    4.60    2.18
  -7  -1  15    4.81    2.36
  -8  -1 -15    4.39    2.54
  -8   1  15    8.13    2.81
  -8   1 -15    5.90    2.61
  -8  -1  15    9.09    2.82
  -9  -1 -15   -0.60    2.60
  -9   1  15    1.13    2.96
  -9  -1  15    0.78    2.95
  -9   1 -15    0.03    2.69
   0   2  15    6.58    1.42
   0   2 -15    7.56    1.09
   0  -2  15    6.25    1.49
   0   2  15    5.14    1.11
   1   2 -15   94.95    7.04
  -1  -2 -15   96.23    7.04
   1  -2  15   92.91    7.06
  -1   2  15   89.04    7.08
  -1   2  15   87.84    6.95
  -1   2 -15  106.72    7.16
   1   2  15  104.40    7.05
   1   2  15  101.26    6.87
  -1  -2  15  106.76    6.80
  -1  -2  15  106.00    7.22
  -2  -2 -15   56.12    4.78
   2  -2  15   52.75    4.76
  -2   2  15   58.83    4.93
   2   2 -15   50.74    4.66
  -2   2  15   53.89    4.81
  -2  -2  15   76.57    4.67
   2   2  15   71.23    4.69
  -2  -2  15   73.55    5.13
   2   2  15   78.25    4.92
  -2   2 -15   70.33    4.91
  -3  -2 -15   45.10    3.81
   3  -2  15   48.26    3.73
  -3   2  15   45.34    3.94
  -3   2  15   47.07    3.86
  -3  -2  15   44.37    3.73
  -3  -2  15   42.15    4.06
   3   2  15   42.77    3.64
  -3   2 -15   45.98    3.86
   3   2  15   44.05    3.70
  -4   2  15    9.84    1.84
   4  -2  15   14.28    1.60
  -4   2  15   13.06    1.89
  -4  -2 -15   14.90    1.82
   4   2  15    8.94    1.45
  -4  -2  15    7.40    1.87
  -4  -2  15    8.22    1.58
  -4   2 -15    6.59    1.63
  -5   2  15   14.82    2.18
  -5   2  15   16.46    2.21
  -5  -2 -15   16.45    2.21
   5  -2  15   16.37    1.74
  -5  -2  15   10.83    2.09
   5   2  15   12.63    2.11
  -5   2 -15   14.85    2.17
   5   2  15   12.27    1.61
  -5  -2  15   13.87    2.11
  -6   2  15    9.78    2.07
  -6   2  15   13.08    2.42
  -6  -2 -15   12.17    2.33
  -6  -2  15   12.05    2.29
  -6   2 -15   16.59    2.35
  -6  -2  15   13.06    2.13
   6   2  15   14.97    2.40
  -7  -2 -15   10.81    2.62
  -7   2  15   14.09    2.79
  -7   2 -15   14.72    2.63
   7   2  15   18.32    2.85
  -7  -2  15   15.70    2.75
  -8  -2 -15   11.11    2.86
  -8   2  15   11.91    3.07
  -8   2 -15   15.49    2.90
   8   2  15    9.23    2.93
  -8  -2  15   11.73    2.97
  -9  -2 -15    1.70    2.73
  -9   2  15    0.27    3.03
  -9  -2  15    5.22    2.97
  -9   2 -15    0.33    2.64
   0   3  15   30.96    2.89
   0  -3  15   26.29    2.76
   0   3 -15   29.97    2.68
   0   3  15   28.74    2.81
  -1  -3 -15   44.14    3.20
   1   3 -15   46.30    3.27
   1  -3  15   41.11    3.63
  -1   3  15   44.80    3.51
  -1   3  15   42.58    3.57
   1   3  15   34.24    3.36
   1   3  15   36.01    3.21
  -1   3 -15   32.26    3.28
  -1  -3  15   34.20    3.66
  -2   3  15   19.95    2.14
   2   3 -15   20.42    2.25
  -2   3  15   20.22    2.33
   2  -3  15   19.05    2.18
  -2  -3 -15   20.81    2.30
  -2   3 -15   22.28    2.45
   2   3  15   21.89    2.29
   2   3  15   24.15    2.20
  -2  -3  15   21.47    2.52
  -3   3  15   23.17    2.57
  -3   3  15   20.56    2.68
   3  -3  15   21.88    2.47
   3   3 -15   24.28    2.66
   3   3  15   31.44    2.73
   3   3  15   30.88    2.77
  -3  -3  15   32.02    2.84
  -3   3 -15   35.50    2.96
  -3  -3  15   33.23    3.24
   3   3  15   30.64    2.77
  -4   3  15    6.38    1.62
   4  -3  15    8.44    1.40
  -4   3  15    6.42    1.68
   4   3  15    2.91    1.15
  -4  -3  15    2.19    1.66
  -4  -3  15    1.19    1.29
   4   3  15    2.56    1.33
  -4   3 -15    3.45    1.46
   4   3  15    2.81    1.41
  -5   3  15   19.72    2.76
  -5   3  15   24.66    2.89
  -5  -3  15   27.88    2.98
  -5   3 -15   29.91    2.93
  -5  -3  15   29.56    2.78
   5   3  15   30.13    3.23
  -6   3  15   11.09    2.28
  -6   3  15   14.54    2.57
  -6  -3  15   20.96    2.73
   6   3  15   21.13    2.80
  -6  -3  15   23.90    2.64
  -6   3 -15   24.32    2.74
  -7   3  15    1.59    2.29
  -7  -3  15    1.63    2.25
   7   3  15    2.18    2.19
  -7   3 -15    3.60    2.11
  -8   3  15    2.28    2.68
  -8  -3  15    4.66    2.72
   8   3  15    4.38    2.69
  -8   3 -15    6.13    2.58
   9   3  15   14.28    3.49
   0  -4  15   12.73    1.94
   0   4  15   10.41    1.51
   0   4 -15   12.32    1.49
   0   4  15   10.34    1.66
  -1   4  15    7.31    1.55
  -1   4  15   10.12    1.45
   1   4 -15    9.22    1.24
   1  -4  15    7.37    1.62
   1   4  15    1.78    1.26
   1   4  15    4.86    1.25
  -1  -4  15    3.33    1.60
  -2   4  15   27.16    2.64
   2  -4  15   26.94    2.74
   2   4 -15   29.91    2.73
  -2   4  15   30.18    3.06
  -2  -4  15   26.44    2.98
   2   4  15   28.71    2.67
  -2   4 -15   28.48    2.78
   2   4  15   28.60    2.78
   2   4  15   30.16    2.76
  -3   4  15   77.37    5.75
   3   4 -15   85.87    5.66
   3  -4  15   74.11    5.56
  -3   4  15   71.47    5.65
   3   4  15   67.96    5.48
   3   4  15   73.26    5.64
  -3   4 -15   72.14    5.75
  -3  -4  15   71.06    5.86
   3   4  15   70.06    5.48
  -4   4  15   46.97    4.26
   4  -4  15   48.32    3.96
  -4   4  15   47.57    4.20
  -4   4 -15   44.65    4.20
   4   4  15   48.72    4.12
  -4  -4  15   47.05    4.30
   4   4  15   45.91    4.05
  -5   4  15   10.16    2.14
  -5   4  15    7.75    1.94
  -5  -4  15   13.90    2.23
   5   4  15   12.17    2.10
  -5  -4  15   12.54    2.00
  -5   4 -15    9.77    1.95
  -6   4  15    2.86    2.09
  -6   4  15    3.84    1.76
  -6   4 -15    4.20    1.90
   6   4  15    4.51    1.98
  -6  -4  15    3.07    1.93
  -6  -4  15    2.92    1.82
  -7   4  15   15.33    3.02
  -7   4 -15   21.73    3.03
  -7  -4  15   24.95    3.20
   7   4  15   24.10    3.28
  -8   4  15   -1.81    2.53
  -8  -4  15   -0.16    2.45
   8   4  15   -1.87    2.46
  -8   4 -15   -1.61    2.29
   0   5  15   36.25    3.31
   0   5  15   36.54    3.31
   0   5 -15   35.01    3.23
   0  -5  15   30.81    3.48
  -1   5  15   32.76    3.12
  -1   5  15   30.37    3.08
   1   5 -15   32.02    2.87
   1  -5  15   30.68    3.25
   1   5  15   25.44    2.79
  -1  -5  15   30.10    3.14
  -1   5 -15   31.34    2.98
   1   5  15   33.43    3.10
  -2   5  15    2.21    1.45
   2  -5  15    3.28    1.47
  -2   5  15    3.06    1.40
   2   5 -15    4.03    1.19
   2   5  15    1.85    1.20
  -2   5 -15    2.16    1.25
  -2  -5  15    2.29    1.72
   2   5  15    1.93    1.25
   2   5  15    2.22    1.01
  -3   5  15   30.15    3.21
  -3   5  15   31.51    2.90
   3   5 -15   29.98    2.99
   3  -5  15   24.27    2.70
  -3   5 -15   27.25    2.99
   3   5  15   29.18    2.90
   3   5  15   27.20    2.93
  -3  -5  15   32.72    3.39
  -4   5  15   31.56    3.07
   4   5 -15   33.87    3.26
   4  -5  15   29.25    3.09
  -4   5  15   30.40    3.09
   4   5  15   31.84    3.17
  -4   5 -15   30.56    3.26
   4   5  15   28.79    3.30
  -4  -5  15   27.03    3.20
  -5   5  15    7.34    2.03
  -5   5  15   10.36    1.97
   5   5  15    3.60    1.82
  -5   5 -15    2.89    1.69
  -5  -5  15    4.73    1.96
  -6   5  15   32.09    3.47
  -6   5 -15   27.65    3.33
   6   5  15   31.71    3.56
  -6  -5  15   33.78    3.39
  -7   5  15    0.80    2.35
   7   5  15    2.03    2.26
  -7   5 -15   -0.02    2.03
  -8   5  15   -0.59    2.67
  -8   5 -15   -2.58    2.25
   8   5  15   -1.84    2.37
   0   6 -15   24.63    2.70
   0   6  15   23.35    2.40
   0  -6  15   25.48    2.83
   1  -6  15   17.60    2.42
  -1   6  15   19.84    2.34
   1   6 -15   21.18    2.16
  -1   6  15   18.64    2.23
   1   6  15   20.22    2.20
  -1  -6  15   24.18    2.75
  -1   6 -15   24.31    2.30
  -2   6  15   57.50    4.66
   2   6 -15   56.89    4.64
   2  -6  15   56.68    4.76
  -2   6  15   60.22    4.71
  -2  -6  15   54.88    4.87
   2   6  15   53.78    4.45
  -2   6 -15   56.00    4.60
   3   6 -15   52.26    4.38
  -3   6  15   43.52    4.26
  -3   6  15   45.21    4.40
   3  -6  15   47.41    4.31
   3   6  15   51.53    4.26
   3   6  15   56.12    4.35
  -3  -6  15   53.72    4.63
  -3   6 -15   52.48    4.33
   4  -6  15   10.83    1.83
  -4   6  15    8.91    2.06
   4   6 -15   11.43    1.82
   4   6  15   13.53    1.97
  -4  -6  15   12.79    2.30
  -4   6 -15   11.55    1.96
   4   6  15   10.30    1.99
  -5   6  15    3.43    1.98
  -5  -6  15    4.37    1.93
  -5   6 -15    5.36    1.90
   5   6  15    5.80    1.92
   5   6  15    4.30    1.76
  -6   6  15   18.96    2.80
  -6   6 -15   12.78    2.46
   6   6  15   15.34    2.68
  -6  -6  15   16.46    2.52
  -7   6  15   33.80    3.74
  -7   6 -15   26.45    3.45
   7   6  15   24.75    3.60
  -8   6  15    6.66    2.86
   8   6  15    2.17    2.52
  -8   6 -15    1.76    2.46
   0   7  15   39.11    3.72
   0  -7  15   38.76    4.16
   0   7 -15   42.99    3.68
   1   7 -15   29.15    2.85
  -1   7  15   26.86    2.64
   1  -7  15   30.22    3.08
   1   7  15   24.51    2.56
  -1  -7  15   24.12    3.05
  -1   7 -15   23.16    2.57
  -2   7  15    8.70    1.90
   2   7 -15    9.71    1.68
   2  -7  15    9.90    2.07
  -2  -7  15   11.16    2.27
   2   7  15   10.48    1.76
  -2   7 -15   12.31    1.86
  -3   7  15   21.26    2.57
   3  -7  15   22.57    2.55
   3   7 -15   26.09    2.50
   3   7  15   21.38    2.46
  -3  -7  15   17.23    2.75
  -3   7 -15   22.07    2.54
   3   7  15   20.40    2.42
  -4   7  15   25.61    3.05
   4  -7  15   23.97    2.78
   4   7 -15   24.48    2.85
  -4  -7  15   32.78    3.31
   4   7  15   29.36    2.87
   4   7  15   31.13    3.36
  -4   7 -15   29.00    2.98
  -5   7  15   24.37    3.08
   5   7 -15   24.43    2.83
   5   7  15   22.82    3.04
  -5  -7  15   23.99    3.04
   5   7  15   28.36    2.94
  -5   7 -15   25.28    2.96
  -6   7  15   13.98    2.75
  -6   7 -15   12.25    2.50
   6   7  15   17.19    2.79
  -6  -7  15   14.83    2.43
  -7   7  15    0.85    2.44
   7   7  15    1.91    2.23
  -7   7 -15    1.80    2.21
   0   8 -15   17.92    2.22
   0  -8  15   20.33    2.76
   0   8  15   18.41    2.30
   1  -8  15   22.81    2.86
   1   8 -15   21.43    2.33
  -1   8  15   22.18    2.44
  -1   8 -15   18.95    2.36
  -1  -8  15   19.03    2.86
   1   8  15   19.90    2.36
   2   8 -15   15.75    2.13
   2  -8  15   18.01    2.54
  -2   8  15   20.28    2.36
  -2   8 -15   16.41    2.21
  -2  -8  15   15.48    2.62
   2   8  15   14.27    2.11
   3   8 -15   13.79    2.00
  -3   8  15   10.92    2.13
   3  -8  15   10.34    2.19
  -3  -8  15    9.56    2.36
  -3   8 -15   11.13    2.01
   3   8  15   12.42    2.03
   4   8 -15    7.20    1.84
   4  -8  15    4.93    1.77
  -4   8  15    7.58    2.16
  -4  -8  15    6.70    2.16
   4   8  15    4.07    1.80
  -4   8 -15    2.54    1.75
   4   8  15    2.19    1.77
   5   8 -15    2.65    1.78
  -5   8  15    2.40    2.17
   5   8  15    2.66    1.90
  -5   8 -15    2.80    1.85
  -5  -8  15    4.76    2.06
   5   8  15    3.40    1.98
  -6   8  15    1.13    2.29
  -6   8 -15    2.77    2.04
   6   8  15    3.85    2.19
  -6  -8  15    4.21    2.06
  -7   8  15    4.88    2.67
  -7   8 -15    4.29    2.33
   7   8  15    4.23    2.37
   0   9 -15   -0.42    1.44
   0   9  15   -0.18    1.58
   0  -9  15   -2.10    1.89
   1   9 -15    9.44    1.82
  -1   9  15    8.49    1.88
   1  -9  15    4.91    2.19
  -1   9 -15    8.85    1.81
  -1  -9  15    8.95    2.31
   1   9  15    7.55    1.79
   2  -9  15    5.58    2.16
   2   9 -15    8.07    1.80
  -2   9  15    8.25    1.98
  -2   9 -15    8.05    1.89
   2   9  15   10.24    1.93
  -2  -9  15    9.64    2.35
  -3   9  15   11.83    2.27
   3   9 -15   11.21    2.00
   3  -9  15   13.09    2.33
  -3   9 -15    8.49    2.03
   3   9  15    8.74    1.99
  -3  -9  15   10.32    2.40
   4   9 -15    1.91    1.78
   4  -9  15    4.41    1.93
  -4   9  15    4.88    2.13
  -4   9 -15    4.87    1.91
  -4  -9  15    4.86    2.13
   4   9  15    4.11    1.89
  -5   9  15   30.27    3.63
   5   9 -15   35.42    3.58
   5   9  15   34.45    3.67
  -5   9 -15   32.33    3.53
   5   9  15   33.12    3.50
  -5  -9  15   33.55    3.62
  -6   9  15    5.65    2.60
   6   9 -15    9.20    2.25
  -6  -9  15    8.31    2.23
  -6   9 -15    5.30    2.24
   6   9  15    7.99    2.32
   0  10  15    4.37    1.77
   0  10 -15    2.11    1.63
   0 -10  15    0.27    2.13
   1  10 -15   25.51    2.83
   1 -10  15   27.80    3.43
  -1  10  15   29.43    2.98
  -1 -10  15   25.12    3.34
   1  10  15   26.62    2.84
  -1  10 -15   26.20    2.88
  -2  10  15    5.70    1.95
   2 -10  15    5.94    2.29
   2  10 -15    4.74    1.75
   2  10  15    8.87    1.97
  -2 -10  15    5.88    2.28
  -2  10 -15    8.18    1.95
   3  10 -15    5.85    1.87
   3 -10  15    2.67    2.12
  -3  10  15    3.73    1.98
  -3 -10  15    3.66    2.18
  -3  10 -15    3.18    1.87
   3  10  15    2.34    1.87
   4 -10  15    3.95    2.03
   4  10 -15    1.68    1.87
  -4  10  15    2.91    2.11
  -4  10 -15    1.99    1.93
  -4 -10  15    2.41    2.07
   4  10  15    2.88    1.90
   5  10 -15    5.66    2.14
  -5  10  15    2.74    2.33
  -5  10 -15    5.47    2.18
  -5 -10  15    7.44    2.29
   5  10  15    7.02    2.24
  -6  10  15    0.37    2.49
   6  10 -15    1.63    2.04
  -6  10 -15   -0.60    2.11
  -6 -10  15    5.02    2.06
   6  10  15    1.78    2.11
   0  11 -15    2.01    1.69
   0 -11  15   -0.11    2.18
   0  11  15   -1.23    1.72
   1  11 -15    3.57    1.82
  -1  11  15    3.57    1.95
   1 -11  15    5.60    2.41
  -1  11 -15    5.89    1.93
  -1 -11  15    5.73    2.45
   1  11  15    7.89    1.94
   2  11 -15    2.31    1.71
   2 -11  15    1.15    2.24
  -2  11  15    2.11    1.91
   2  11  15   -0.37    1.82
  -2 -11  15    1.23    2.22
  -2  11 -15   -0.59    1.78
  -3  11  15   -1.21    1.92
   3 -11  15    2.43    2.17
   3  11 -15   -0.19    1.74
  -3  11 -15    0.66    1.88
  -3 -11  15    3.87    2.29
   3  11  15   -0.10    1.88
   4  11 -15   10.96    2.41
  -4  11  15   15.87    2.72
   4 -11  15   15.75    2.65
  -4  11 -15    9.39    2.42
  -4 -11  15   12.78    2.64
   4  11  15   12.45    2.41
   5  11 -15    4.45    2.28
  -5  11  15    3.12    2.45
  -5  11 -15    4.16    2.21
  -5 -11  15    5.14    2.28
   5  11  15    7.23    2.33
   0  12 -15   -0.21    1.78
   0  12  15    1.00    1.91
   0 -12  15    1.85    2.40
   1 -12  15   -0.71    2.27
   1  12 -15   -1.57    1.67
  -1  12  15   -1.46    1.90
  -1 -12  15    1.64    2.33
  -1  12 -15    2.46    1.87
   1  12  15    1.07    1.87
  -2  12  15   10.20    2.42
   2 -12  15    9.54    2.76
   2  12 -15   10.74    2.24
  -2  12 -15   11.24    2.39
  -2 -12  15   15.54    2.91
   2  12  15   11.94    2.38
   3  12 -15    7.00    2.17
   3 -12  15    9.05    2.65
  -3  12  15    6.99    2.37
  -3  12 -15   11.07    2.39
   3  12  15   13.68    2.40
  -3 -12  15   13.35    2.78
   4 -12  15   -1.40    2.08
  -4  12  15   -0.39    2.27
   4  12 -15   -0.04    1.97
  -4  12 -15    3.69    2.18
  -4 -12  15    2.18    2.28
   4  12  15    2.32    2.09
   0  13  15   23.46    2.87
   0 -13  15   16.76    3.30
   0  13 -15   17.18    2.71
  -1  13  15    7.27    2.26
   1 -13  15    7.59    2.83
   1  13 -15    9.55    2.14
  -1 -13  15    7.81    2.76
   1  13  15   10.32    2.27
  -1  13 -15    8.09    2.19
   2  13 -15    8.25    2.23
  -2  13  15    8.49    2.48
   2 -13  15   12.47    2.95
   2  13  15    8.25    2.35
  -2 -13  15   13.13    2.86
  -2  13 -15    9.47    2.38
   0   0  16   77.07    5.85
   0   0 -16   76.49    5.61
   0   0  16   79.55    5.52
  -1   0  16    2.06    0.97
   1   0  16    4.05    1.31
   1   0  16    1.96    0.85
  -1   0  16    3.89    1.40
  -2   0 -16    7.88    1.30
   2   0  16    9.59    1.47
  -2   0  16    6.04    1.26
  -3   0 -16    1.75    1.18
  -3   0  16    1.15    1.49
  -3   0  16    2.47    1.24
   3   0  16    0.85    1.17
  -4   0 -16   38.20    3.63
   4   0  16   39.17    3.35
  -4   0  16   36.47    3.71
  -4   0  16   38.14    3.77
  -5   0  16   40.69    4.09
  -5   0 -16   38.75    3.99
   5   0  16   39.88    3.55
  -5   0  16   41.23    3.90
  -6   0  16   14.83    2.23
  -6   0 -16   14.53    2.47
  -6   0  16   12.81    2.45
  -7   0  16    1.44    2.31
  -7   0 -16   -0.14    2.08
  -8   0  16   -4.08    2.52
  -8   0 -16   -0.68    2.41
   0   1  16    6.47    1.11
   0   1  16    7.40    1.50
   0   1 -16    7.49    1.06
   0  -1  16    3.27    1.40
  -1   1  16   11.70    1.64
   1  -1  16   11.75    1.84
  -1  -1 -16   15.57    1.61
  -1   1  16   11.97    1.94
  -1   1 -16   19.49    1.76
  -1  -1  16   17.45    1.58
  -1  -1  16   18.61    2.12
   1   1  16   18.74    1.92
   1   1  16   19.18    1.97
  -2   1  16   44.52    3.29
  -2  -1  16   25.88    2.80
   2   1  16   28.69    2.76
  -2  -1  16   30.15    3.22
   2   1  16   29.41    2.92
  -2   1 -16   30.72    2.93
  -3   1  16   39.30    3.62
   3  -1  16   36.23    3.45
  -3  -1 -16   38.10    3.49
  -3   1  16   38.95    3.69
  -3  -1  16   42.65    3.55
  -3  -1  16   41.51    3.76
  -3   1 -16   39.72    3.54
   3   1  16   40.04    3.33
   3   1  16   38.40    3.45
   4  -1  16   34.19    3.07
  -4   1  16   34.77    3.56
  -4  -1 -16   33.22    3.36
  -4   1  16   26.86    3.10
  -4   1 -16   35.43    3.42
  -4  -1  16   35.60    3.54
   4   1  16   30.65    3.06
  -4  -1  16   35.22    3.49
  -5  -1 -16    0.75    1.53
  -5   1  16    1.73    1.64
  -5   1  16    4.05    1.71
   5  -1  16    1.55    1.19
   5   1  16    4.05    1.24
  -5  -1  16    4.19    1.78
  -5   1 -16    3.78    1.63
  -5  -1  16    4.38    1.74
  -6   1  16   38.50    3.94
  -6   1  16   41.57    3.97
  -6  -1 -16   36.12    3.86
  -6  -1  16   44.77    3.98
  -6   1 -16   38.08    4.10
  -6  -1  16   39.56    3.96
  -7   1  16    6.29    2.51
  -7  -1 -16    2.23    2.17
  -7   1 -16    0.41    2.10
  -7  -1  16    2.29    2.28
  -8  -1 -16    1.08    2.44
  -8   1  16    3.55    2.74
  -8  -1  16   -1.88    2.61
  -8   1 -16    0.34    2.43
   0   2  16  158.35   10.94
   0  -2  16  152.34   10.98
   0   2  16  157.35   10.81
   0   2 -16  163.60   11.13
   1   2 -16   11.63    1.22
   1  -2  16    9.02    1.60
  -1  -2 -16    9.02    1.17
  -1   2  16    7.95    1.36
  -1   2  16   10.49    1.67
   1   2  16    5.92    1.44
  -1  -2  16    6.32    1.64
   1   2  16    5.52    1.19
   2  -2  16   17.58    2.06
  -2  -2 -16   19.94    2.21
  -2   2  16   19.19    2.27
  -2   2  16   19.93    2.00
  -2  -2  16   17.16    2.30
   2   2  16   18.19    1.84
  -2   2 -16   18.38    1.99
  -2  -2  16   19.79    1.79
   2   2  16   16.45    2.04
  -3   2  16    2.27    1.33
  -3   2  16    1.38    1.48
  -3  -2 -16    1.20    1.13
   3  -2  16    0.56    1.21
  -3  -2  16    0.45    1.56
  -3  -2  16    0.94    1.12
   3   2  16    1.20    1.09
  -3   2 -16    1.66    1.22
   3   2  16   -0.22    1.14
  -4   2  16   40.91    3.74
   4  -2  16   36.97    3.30
  -4  -2 -16   33.70    3.52
  -4   2  16   35.64    3.62
  -4   2 -16   32.48    3.48
   4   2  16   32.62    3.19
  -4  -2  16   37.31    3.63
  -4  -2  16   33.60    3.60
  -5   2  16    0.08    1.63
  -5  -2 -16    0.85    1.60
  -5   2  16   -1.59    1.64
   5   2  16    1.53    1.14
  -5   2 -16    3.55    1.66
  -5  -2  16    0.15    1.57
  -5  -2  16    3.33    1.72
  -6   2  16    5.53    2.22
  -6   2  16    7.23    1.94
  -6  -2 -16    4.31    2.07
  -6  -2  16   12.78    2.25
  -6   2 -16    8.81    2.16
  -6  -2  16   10.93    2.10
  -7   2  16    2.05    2.42
  -7  -2 -16    2.17    2.24
  -7  -2  16    3.84    2.34
  -7   2 -16    2.40    2.19
  -8  -2 -16    3.25    2.65
  -8   2  16    3.79    2.83
  -8  -2  16    6.42    2.86
  -8   2 -16    4.88    2.66
   0  -3  16   23.42    2.54
   0   3 -16   22.98    2.37
   0   3  16   23.04    2.13
   0   3  16   20.42    2.30
   1   3 -16   20.63    2.10
   1  -3  16   21.69    2.23
  -1   3  16   21.58    2.02
  -1   3  16   19.44    2.19
   1   3  16   14.49    2.01
  -1   3 -16   18.19    1.91
   1   3  16   17.04    1.88
  -1  -3  16   14.67    2.23
  -2   3  16   87.57    6.84
  -2   3  16   94.56    6.76
  -2  -3 -16   86.28    6.72
   2  -3  16   82.73    6.68
   2   3 -16   94.53    6.72
   2   3  16   95.56    6.56
  -2   3 -16  100.17    6.87
   2   3  16   95.11    6.70
  -2  -3  16   92.04    6.95
  -3   3  16    1.09    1.49
  -3   3  16    1.24    1.41
  -3  -3 -16    0.92    1.18
   3  -3  16    1.48    1.27
  -3  -3  16    1.88    1.65
   3   3  16    1.99    1.22
  -3   3 -16    1.33    1.26
   3   3  16    2.56    1.22
   4  -3  16   13.22    1.79
  -4   3  16   14.27    2.10
  -4   3  16   12.26    2.13
  -4  -3 -16   15.42    1.99
  -4   3 -16   13.71    2.00
  -4  -3  16    9.97    2.19
   4   3  16   14.57    1.87
   4   3  16   15.57    2.02
  -4  -3  16   12.81    1.81
   4   3  16   12.89    1.72
  -5   3  16   13.36    2.40
  -5   3  16   17.84    2.48
  -5  -3 -16   15.85    2.38
   5   3  16   22.12    2.55
  -5  -3  16   18.56    2.34
  -5  -3  16   17.89    2.50
   5   3  16   18.53    1.93
  -5   3 -16   17.07    2.41
  -6   3  16    9.91    2.09
  -6  -3 -16    9.91    2.33
  -6   3  16   12.58    2.48
  -6  -3  16   11.25    2.17
  -6  -3  16    9.18    2.21
  -6   3 -16   10.30    2.21
   6   3  16    8.01    2.26
  -7   3  16    9.08    2.63
  -7  -3 -16   10.53    2.57
  -7   3 -16    9.00    2.44
   7   3  16    8.56    2.56
  -7  -3  16    7.61    2.48
  -8  -3 -16   35.22    4.43
  -8   3  16   43.56    4.59
  -8   3 -16   41.56    4.50
   8   3  16   39.35    4.64
  -8  -3  16   40.77    4.45
   0   4  16   42.48    3.53
   0   4  16   39.10    3.50
   0   4 -16   37.35    3.39
   0  -4  16   35.49    3.72
   1  -4  16    4.76    1.60
   1   4 -16    5.58    1.19
  -1   4  16    3.47    1.48
  -1   4  16    5.19    1.39
   1   4  16    2.50    1.30
  -1   4 -16    1.32    1.13
  -1  -4  16    0.30    1.61
   1   4  16    2.99    1.20
  -2   4  16    7.79    1.56
   2   4 -16    6.32    1.26
   2  -4  16    7.52    1.68
  -2  -4 -16    7.19    1.25
  -2   4  16    7.79    1.74
   2   4  16    6.27    1.24
   2   4  16    7.28    1.41
  -2  -4  16    5.09    1.86
   2   4  16    8.08    1.48
  -2   4 -16    7.32    1.48
  -3   4  16   16.93    2.18
  -3   4  16   18.49    2.34
   3  -4  16   14.88    2.05
  -3   4 -16   18.92    2.19
  -3  -4  16   17.66    2.53
   3   4  16   17.22    1.99
   3   4  16   17.16    1.97
   3   4  16   19.14    2.06
   4  -4  16   41.42    3.62
  -4   4  16   34.82    3.82
  -4   4  16   40.01    4.01
   4   4  16   40.38    3.74
   4   4  16   41.65    3.52
   4   4  16   42.98    3.81
  -4   4 -16   39.61    3.89
  -4  -4  16   41.67    4.05
  -5   4  16    1.98    1.84
  -5   4  16    3.66    1.74
  -5   4 -16    4.42    1.76
  -5  -4  16    1.54    1.84
   5   4  16    3.12    1.78
  -6   4  16   24.10    3.30
  -6   4  16   24.51    3.02
   6   4  16   33.16    3.52
  -6   4 -16   28.52    3.24
  -6  -4  16   29.45    3.17
  -7   4  16   -2.59    2.29
  -7  -4  16   -0.66    2.22
  -7   4 -16   -0.27    2.05
   7   4  16    0.17    2.24
  -8   4  16    5.06    2.91
  -8   4 -16    8.95    2.75
  -8  -4  16    8.60    2.87
   8   4  16    5.09    2.81
   0   5  16    0.35    1.33
   0   5 -16    1.92    1.18
   0  -5  16   -0.66    1.59
   0   5  16    1.92    1.29
  -1   5  16    5.04    1.56
   1  -5  16    3.52    1.63
  -1   5  16    3.50    1.45
   1   5 -16    3.81    1.25
   1   5  16    6.67    1.50
  -1  -5  16    8.84    1.97
   1   5  16    5.50    1.37
  -1   5 -16    5.57    1.38
  -2   5  16   95.71    6.84
   2  -5  16   86.38    6.75
  -2   5  16   99.66    6.83
   2   5 -16   95.80    6.79
  -2   5 -16   91.20    6.85
  -2  -5  16   82.96    6.97
   2   5  16   85.62    6.59
   2   5  16   88.61    6.57
  -3   5  16    5.52    1.76
   3   5 -16    7.67    1.50
  -3   5  16    6.07    1.77
   3  -5  16    7.80    1.72
   3   5  16    7.93    1.51
   3   5  16    5.76    1.55
  -3   5 -16    6.91    1.64
  -3  -5  16    7.17    2.05
  -4   5  16    4.82    1.87
   4  -5  16    7.21    1.64
  -4   5  16    7.21    1.94
   4   5  16    8.84    1.76
   4   5  16    9.85    1.76
  -4   5 -16    9.56    1.86
  -4  -5  16    4.02    2.03
  -5   5  16   -0.51    1.68
  -5   5  16    2.04    1.93
   5   5  16    2.68    1.76
  -5   5 -16    4.19    1.78
  -5  -5  16    3.50    1.98
  -6   5  16    1.04    2.19
   6   5  16    3.65    2.11
  -6   5 -16    5.26    2.05
  -6  -5  16    5.27    2.01
  -7   5  16    0.87    2.41
  -7   5 -16   -0.39    2.13
   7   5  16    0.58    2.30
  -8   5  16   16.16    3.43
   8   5  16   19.54    3.54
  -8   5 -16   19.97    3.28
   0   6  16   36.56    3.43
   0   6 -16   36.08    3.40
   0   6  16   37.86    3.52
   0  -6  16   36.15    3.84
   1  -6  16   20.94    2.66
  -1   6  16   21.49    2.36
   1   6 -16   20.43    2.23
  -1   6  16   20.53    2.39
  -1  -6  16   22.54    2.79
   1   6  16   21.07    2.26
  -1   6 -16   21.25    2.32
  -2   6  16   25.77    2.68
   2   6 -16   26.60    2.84
   2  -6  16   22.79    2.79
  -2   6  16   21.79    2.66
   2   6  16   24.71    2.51
  -2  -6  16   27.18    3.10
  -2   6 -16   29.49    2.96
  -3   6  16    3.33    1.78
   3  -6  16    4.21    1.63
   3   6 -16    4.07    1.43
  -3   6  16    3.81    1.68
   3   6  16    2.12    1.50
  -3   6 -16    3.13    1.54
  -3  -6  16    3.28    1.97
   4  -6  16   51.52    4.46
   4   6 -16   55.30    4.64
  -4   6  16   51.04    4.67
   4   6  16   47.42    4.54
   4   6  16   51.35    4.41
  -4   6 -16   50.45    4.59
  -4  -6  16   52.17    4.79
  -5   6  16    0.30    1.93
   5   6  16    2.28    1.72
   5   6  16    1.16    1.79
  -5   6 -16    3.28    1.80
  -5  -6  16    0.36    1.92
  -6   6  16    3.52    2.31
   6   6  16    4.89    2.18
  -6   6 -16    0.99    1.98
  -6  -6  16    4.40    2.04
  -7   6  16    3.07    2.56
   7   6  16    0.04    2.28
  -7   6 -16    0.96    2.15
   0  -7  16    2.66    1.90
   0   7  16    1.64    1.52
   0   7 -16    2.89    1.39
   1  -7  16    0.92    1.83
   1   7 -16    1.70    1.35
  -1   7  16    2.17    1.55
   1   7  16    5.88    1.58
  -1  -7  16    3.44    1.98
  -1   7 -16    4.56    1.50
  -2   7  16   39.72    3.87
   2   7 -16   43.49    3.73
   2  -7  16   37.63    3.93
  -2  -7  16   40.88    4.15
   2   7  16   34.86    3.52
  -2   7 -16   38.02    3.75
   3  -7  16   11.16    2.01
   3   7 -16    9.02    1.78
  -3   7  16    9.64    2.04
  -3  -7  16    7.01    2.18
   3   7  16    7.47    1.78
  -3   7 -16    8.51    1.85
   4  -7  16    3.23    1.67
   4   7 -16    0.12    1.53
  -4   7  16    2.57    2.00
  -4   7 -16    1.94    1.70
   4   7  16    1.96    1.70
  -4  -7  16    1.11    1.93
   4   7  16    2.53    1.71
  -5   7  16   34.26    3.38
  -5  -7  16   22.91    3.18
   5   7  16   26.43    3.21
  -5   7 -16   26.79    3.13
   5   7  16   28.81    3.08
  -6   7  16    7.30    2.51
   6   7  16    5.49    2.34
  -6  -7  16    6.18    2.21
  -6   7 -16    8.16    2.27
  -7   7  16   -0.20    2.54
  -7   7 -16    3.97    2.36
   7   7  16    3.04    2.38
   0   8  16   94.83    6.88
   0   8 -16   92.02    6.98
   0  -8  16   88.10    7.27
   1  -8  16   14.91    2.67
   1   8 -16   16.22    2.21
  -1   8  16   17.23    2.33
  -1  -8  16   17.20    2.80
   1   8  16   23.05    2.35
  -1   8 -16   21.60    2.39
  -2   8  16   -0.63    1.69
   2   8 -16   -2.02    1.43
   2  -8  16   -0.83    1.81
  -2   8 -16    0.01    1.53
   2   8  16    1.99    1.57
  -2  -8  16   -0.33    1.97
   3  -8  16    1.46    1.77
  -3   8  16   -0.93    1.82
   3   8 -16    0.90    1.56
   3   8  16   -0.09    1.62
  -3  -8  16    2.71    2.07
  -3   8 -16    0.82    1.66
   4   8 -16    8.88    2.04
   4  -8  16   11.37    2.13
  -4   8  16    9.55    2.32
  -4   8 -16   12.88    2.21
   4   8  16    8.62    2.09
  -4  -8  16   12.73    2.43
  -5   8  16   10.84    2.49
   5   8  16    9.09    2.26
  -5   8 -16    7.10    2.13
   5   8  16    8.32    2.24
  -5  -8  16    6.51    2.25
  -6   8  16    5.69    2.56
   6   8  16    5.87    2.35
  -6  -8  16    8.34    2.24
  -6   8 -16    6.99    2.27
  -7   8  16    1.94    2.63
   7   8  16    1.88    2.44
   0   9 -16    0.34    1.56
   0   9  16    0.37    1.68
   0  -9  16    1.82    2.11
   1   9 -16   23.39    2.66
   1  -9  16   20.02    3.09
  -1   9  16   22.35    2.72
   1   9  16   26.18    2.67
  -1   9 -16   26.10    2.76
  -1  -9  16   25.37    3.29
   2  -9  16   15.40    2.57
   2   9 -16   11.90    2.00
  -2   9  16   13.45    2.20
  -2   9 -16    9.72    2.07
  -2  -9  16   11.23    2.56
   2   9  16    9.28    2.01
   3   9 -16    1.99    1.68
   3  -9  16    1.10    1.97
  -3   9  16    4.01    2.02
  -3  -9  16    0.97    2.11
   3   9  16    1.92    1.75
  -3   9 -16    3.26    1.81
   4   9 -16   11.56    2.30
   4  -9  16   12.83    2.40
  -4   9  16   13.18    2.55
  -4   9 -16   17.94    2.53
   4   9  16   17.52    2.46
  -4  -9  16   14.95    2.68
   5   9 -16    5.20    2.09
  -5   9  16    4.36    2.44
  -5  -9  16    7.21    2.28
   5   9  16   12.51    2.40
  -5   9 -16    5.15    2.14
  -6   9  16   31.02    3.80
  -6   9 -16   28.06    3.53
   6   9  16   28.87    3.63
  -6  -9  16   31.82    3.48
   0  10  16   46.02    4.12
   0 -10  16   43.54    4.55
   0  10 -16   45.43    4.28
   1 -10  16   -2.31    2.09
   1  10 -16    1.35    1.65
  -1  10  16   -0.50    1.80
   1  10  16    2.28    1.75
  -1 -10  16    1.98    2.23
  -1  10 -16    1.56    1.74
   2 -10  16    2.00    2.22
   2  10 -16    4.21    1.75
  -2  10  16    4.61    2.02
   2  10  16    4.02    1.91
  -2 -10  16    4.57    2.34
  -2  10 -16    3.71    1.89
   3 -10  16    9.49    2.47
  -3  10  16   10.06    2.33
   3  10 -16    9.66    2.12
   3  10  16   11.65    2.20
  -3  10 -16    9.52    2.23
  -3 -10  16   11.46    2.58
   4 -10  16   10.05    2.32
   4  10 -16    9.67    2.27
  -4  10  16   11.46    2.56
   4  10  16   11.17    2.37
  -4  10 -16   11.36    2.38
  -4 -10  16   11.32    2.57
  -5  10  16    2.24    2.38
   5  10 -16    1.23    2.01
  -5  10 -16   -1.19    2.05
   5  10  16    3.41    2.23
  -5 -10  16    5.54    2.24
   0 -11  16    3.64    2.44
   0  11 -16    4.13    1.85
   0  11  16    4.05    1.99
   1 -11  16   10.16    2.75
  -1  11  16   12.78    2.37
   1  11 -16   11.10    2.22
  -1  11 -16   14.83    2.35
  -1 -11  16   15.30    2.94
   1  11  16   13.55    2.30
  -2  11  16    6.68    2.21
   2 -11  16    9.55    2.70
   2  11 -16   10.84    2.14
  -2  11 -16    9.54    2.20
   2  11  16   11.11    2.30
  -2 -11  16    8.93    2.64
   3 -11  16    8.53    2.49
   3  11 -16    6.34    2.11
  -3  11  16    9.46    2.38
   3  11  16   10.72    2.34
  -3  11 -16    9.33    2.29
  -3 -11  16    9.08    2.56
   4  11 -16    4.00    2.11
   4 -11  16    8.79    2.41
  -4  11  16    7.98    2.46
  -4  11 -16    4.62    2.22
   4  11  16    7.65    2.28
  -4 -11  16    7.96    2.48
   0  12  16    5.00    2.09
   0 -12  16    4.98    2.64
   0  12 -16    2.31    1.93
   1  12 -16    9.04    2.11
  -1  12  16    9.90    2.28
   1 -12  16   10.52    2.85
  -1  12 -16    5.06    2.06
   1  12  16    5.25    2.12
  -1 -12  16    4.98    2.61
   2  12 -16    1.01    1.90
  -2  12  16    3.19    2.16
   2 -12  16   -1.82    2.33
   2  12  16    0.82    2.05
  -2  12 -16   -1.08    1.95
  -2 -12  16    1.42    2.39
  -3  12  16   16.73    2.81
   3 -12  16   19.49    3.15
   3  12 -16   18.77    2.76
  -3  12 -16   10.84    2.61
  -3 -12  16   20.39    3.17
   3  12  16   17.35    2.74
   0   0  17    3.37    1.46
   0   0  17    3.08    0.98
  -1   0  17   46.96    3.70
  -1   0 -17   44.81    3.67
  -1   0  17   44.77    3.97
   1   0  17   41.64    3.88
  -2   0 -17   27.77    2.79
  -2   0  17   25.43    2.87
   2   0  17   27.47    2.92
  -2   0  17   29.57    2.92
  -3   0  17   13.74    1.79
  -3   0  17   11.93    2.13
  -3   0 -17   12.75    1.78
   3   0  17   13.31    1.78
  -4   0  17    3.00    1.53
   4   0  17    3.62    1.37
  -4   0  17    3.38    1.74
  -4   0 -17    5.35    1.55
  -5   0  17    1.64    1.71
  -5   0  17    1.46    1.72
  -5   0 -17    1.06    1.63
  -6   0 -17   22.32    2.91
  -6   0  17   16.18    2.61
  -6   0  17   25.90    3.05
  -7   0  17    6.17    2.62
  -7   0 -17    1.73    2.27
  -8   0 -17    9.62    2.94
  -8   0  17    9.95    3.12
   0   1  17   52.38    4.21
   0  -1  17   45.27    4.22
   0   1  17   50.29    3.92
   0   1 -17   50.02    3.87
  -1   1  17   12.34    1.99
  -1   1  17   10.85    1.58
   1  -1  17   11.38    1.87
   1   1  17   12.15    1.84
   1   1  17   16.23    1.57
  -1  -1  17   15.55    2.10
  -1   1 -17   17.28    1.67
  -2  -1 -17   -1.24    1.00
  -2   1  17   -1.14    1.43
  -2   1  17    0.53    1.17
   2  -1  17    1.80    1.33
  -2  -1  17    1.20    1.04
  -2  -1  17   -1.40    1.43
  -2   1 -17    0.41    1.10
   2   1  17    1.38    1.26
   2   1  17   -0.49    0.96
  -3   1  17    2.58    1.40
  -3   1  17    4.64    1.68
   3  -1  17    3.29    1.36
  -3  -1 -17    3.87    1.28
  -3   1 -17    5.14    1.37
  -3  -1  17    6.00    1.78
  -3  -1  17    2.63    1.26
   3   1  17    3.00    1.34
   4  -1  17   30.82    3.24
  -4   1  17   32.28    3.19
  -4  -1 -17   31.73    3.53
  -4   1  17   25.97    3.26
  -4  -1  17   40.10    3.73
   4   1  17   43.74    3.35
  -4   1 -17   41.54    3.62
  -4  -1  17   39.98    3.82
  -5  -1 -17   43.89    4.25
  -5   1  17   44.15    4.20
  -5   1  17   40.91    4.43
  -5  -1  17   40.85    4.22
  -5  -1  17   42.61    4.37
  -5   1 -17   44.84    4.27
  -6  -1 -17    8.26    2.23
  -6   1  17   11.15    2.35
  -6   1  17   11.12    2.16
  -6   1 -17    5.07    2.07
  -6  -1  17    4.69    1.93
  -6  -1  17    5.81    2.28
  -7  -1 -17    0.70    2.20
  -7   1  17    1.01    2.48
  -7   1 -17    4.32    2.26
  -7  -1  17    5.87    2.58
  -8  -1 -17    8.61    2.88
  -8   1  17   12.37    3.23
  -8   1 -17    5.96    2.74
  -8  -1  17    8.28    3.06
   0   2  17    3.57    1.39
   0  -2  17    2.20    1.47
   1  -2  17    6.52    1.57
  -1   2  17    5.75    1.33
  -1   2  17    7.86    1.65
   1   2  17    3.52    1.44
  -1   2 -17    4.78    1.20
  -1  -2  17    4.35    1.70
   1   2  17    4.99    1.21
  -2   2  17   61.06    4.68
   2  -2  17   60.35    4.48
  -2  -2 -17   62.96    4.43
  -2   2  17   62.21    4.53
   2   2  17   48.29    4.26
   2   2  17   53.28    4.50
  -2  -2  17   44.45    4.65
  -2   2 -17   50.04    4.45
  -3  -2 -17    5.16    1.34
   3  -2  17    5.65    1.44
  -3   2  17    1.59    1.38
  -3   2  17    1.72    1.61
   3   2  17    3.81    1.38
  -3  -2  17    5.02    1.79
   3   2  17    4.19    1.25
  -3   2 -17    3.30    1.40
  -4  -2 -17   17.67    2.23
   4  -2  17   17.89    2.10
  -4   2  17   21.55    2.41
  -4   2  17   14.82    2.42
  -4  -2  17   18.77    2.58
   4   2  17   17.89    2.07
  -4   2 -17   20.64    2.34
  -4  -2  17   18.89    2.17
  -5  -2 -17    0.77    1.61
  -5   2  17    0.49    1.72
  -5   2  17    0.54    1.81
  -5  -2  17    2.81    1.79
  -5   2 -17   -0.71    1.61
  -5  -2  17    2.45    1.84
   5   2  17    2.20    1.29
  -6  -2 -17    8.56    2.29
  -6   2  17    7.17    2.03
  -6   2  17   10.09    2.42
  -6  -2  17    6.86    2.27
  -6  -2  17    3.53    2.01
  -6   2 -17    7.16    2.18
  -7  -2 -17   -2.69    2.10
  -7   2  17    0.01    2.31
  -7  -2  17   -0.32    2.24
  -7   2 -17   -1.34    2.16
  -8  -2 -17    3.14    2.63
  -8   2  17    3.65    2.92
  -8  -2  17    7.62    2.90
  -8   2 -17    5.29    2.78
   0   3  17  120.19    8.54
   0   3 -17  123.93    8.60
   0   3  17  117.54    8.44
   0  -3  17  115.59    8.62
   1   3 -17   -0.24    0.97
   1  -3  17   -0.66    1.35
  -1   3  17    0.66    1.40
  -1   3  17   -0.73    1.21
   1   3  17    0.37    1.11
  -1   3 -17   -0.86    1.05
   1   3  17    1.63    1.36
  -1  -3  17    0.18    1.53
   2  -3  17   27.16    2.92
  -2   3  17   26.52    3.04
  -2   3  17   27.65    2.84
   2   3  17   37.33    3.08
   2   3  17   32.55    3.12
  -2  -3  17   35.19    3.38
  -2   3 -17   37.14    3.15
  -3   3  17    1.71    1.61
  -3   3  17    2.62    1.48
   3  -3  17   -1.72    1.26
  -3  -3 -17    1.24    1.20
  -3   3 -17    1.82    1.37
   3   3  17    0.32    1.21
   3   3  17    0.84    1.27
  -3  -3  17    2.80    1.78
  -4   3  17   36.10    4.11
  -4   3  17   42.60    4.16
   4  -3  17   41.43    3.77
  -4  -3 -17   40.87    4.09
  -4  -3  17   48.44    4.32
   4   3  17   47.71    3.76
  -4   3 -17   41.96    4.08
   4   3  17   48.29    3.92
  -5  -3 -17    0.85    1.67
  -5   3  17    2.48    1.80
  -5   3  17    0.45    1.83
  -5   3 -17   -0.57    1.61
   5   3  17   -0.49    1.17
  -5  -3  17    0.42    1.80
  -6   3  17   11.27    2.20
  -6   3  17   14.66    2.60
  -6  -3 -17   12.97    2.47
  -6   3 -17    9.01    2.30
   6   3  17    9.60    2.34
  -6  -3  17    6.20    2.14
  -7  -3 -17    7.29    2.54
  -7   3  17    8.10    2.77
  -7   3 -17    7.04    2.48
  -7  -3  17   14.71    2.82
  -8  -3 -17    8.18    2.89
  -8   3  17   14.41    3.25
  -8  -3  17    6.37    2.87
  -8   3 -17    4.02    2.66
   0  -4  17    4.00    1.77
   0   4  17    6.28    1.62
   0   4 -17    7.40    1.34
   0   4  17    5.82    1.45
   1   4 -17    2.50    1.16
  -1   4  17    3.74    1.45
   1  -4  17    3.75    1.66
  -1   4  17    4.16    1.61
  -1   4 -17    3.84    1.27
   1   4  17    2.04    1.39
   1   4  17    3.58    1.31
  -1  -4  17    2.69    1.75
  -2   4  17   79.60    6.25
   2   4 -17   85.43    6.18
   2  -4  17   77.27    6.22
  -2   4  17   80.06    6.31
  -2  -4  17   82.59    6.47
   2   4  17   81.94    6.11
  -2   4 -17   84.90    6.27
   2   4  17   81.23    6.00
   3  -4  17   22.68    2.55
  -3   4  17   25.86    2.65
  -3  -4 -17   23.88    2.43
  -3   4  17   22.98    2.75
  -3  -4  17   25.77    3.01
   3   4  17   24.26    2.42
  -3   4 -17   26.72    2.64
   3   4  17   21.22    2.37
   3   4  17   24.36    2.69
  -4   4  17   10.15    2.07
  -4   4  17    8.48    2.02
   4  -4  17   11.49    1.79
  -4  -4 -17   13.09    1.95
  -4   4 -17   10.42    1.96
  -4  -4  17    6.78    2.18
   4   4  17   12.86    1.87
   4   4  17    9.72    1.63
   4   4  17   12.18    1.94
  -5   4  17    1.43    1.73
  -5   4  17    1.08    1.92
   5   4  17   -1.16    1.65
  -5   4 -17   -0.48    1.69
  -5  -4  17    1.36    1.90
  -6   4  17   18.45    2.70
  -6   4  17   22.83    3.08
  -6  -4  17   19.93    2.73
   6   4  17   22.08    2.96
  -6   4 -17   16.15    2.70
  -7   4  17   -0.16    2.51
  -7   4 -17   -0.16    2.18
   7   4  17    1.35    2.35
  -8  -4 -17    3.44    2.55
  -8   4  17    7.16    3.04
  -8   4 -17    9.60    2.82
   8   4  17    6.67    2.94
   0  -5  17   72.70    5.84
   0   5  17   68.33    5.55
   0   5  17   70.27    5.50
   0   5 -17   75.43    5.55
   1  -5  17    5.21    1.84
  -1   5  17    3.83    1.55
  -1   5  17    5.78    1.71
   1   5 -17    6.94    1.43
  -1   5 -17    7.30    1.51
   1   5  17   10.81    1.72
   1   5  17    8.99    1.59
  -1  -5  17    7.17    2.06
   2   5 -17    4.31    1.32
  -2   5  17    7.82    1.68
   2  -5  17    4.31    1.74
  -2   5  17    3.22    1.68
  -2   5 -17    6.49    1.52
   2   5  17    1.40    1.36
  -2  -5  17    0.82    1.87
   2   5  17    4.83    1.46
  -3   5  17    6.72    1.89
   3  -5  17    7.24    1.76
  -3   5  17    6.82    1.88
  -3  -5  17    6.05    2.14
   3   5  17    6.19    1.60
  -3   5 -17    5.82    1.67
  -4   5  17   62.43    5.35
  -4   5  17   67.77    5.53
   4  -5  17   60.96    5.13
   4   5  17   63.52    5.15
  -4   5 -17   64.01    5.40
  -4  -5  17   63.00    5.56
   4   5  17   65.63    5.29
  -5   5  17    2.08    1.89
  -5   5  17    2.89    2.12
   5   5  17    6.11    1.98
  -5   5 -17    4.60    1.92
  -5  -5  17    8.21    2.22
  -6   5  17   17.08    2.96
  -6  -5  17   23.16    2.90
  -6   5 -17   21.81    2.90
   6   5  17   20.19    3.03
  -7   5  17    5.41    2.71
  -7   5 -17    5.55    2.38
   7   5  17    5.35    2.60
   0   6 -17   18.62    2.20
   0   6  17   19.80    2.34
   0   6  17   20.40    2.33
   0  -6  17   22.82    2.82
   1   6 -17    5.14    1.40
  -1   6  17    6.85    1.65
  -1   6  17    6.15    1.76
   1   6  17    4.41    1.54
  -1  -6  17    4.53    2.01
  -1   6 -17    3.29    1.49
   2   6 -17   29.29    3.25
  -2   6  17   30.11    3.14
   2  -6  17   30.57    3.31
  -2   6  17   26.64    3.20
  -2   6 -17   41.22    3.46
   2   6  17   37.11    3.32
  -2  -6  17   38.83    3.69
   3   6 -17    9.73    1.74
  -3   6  17    7.64    1.96
  -3   6  17    5.76    1.92
   3  -6  17    7.93    1.93
  -3  -6  17    9.46    2.28
   3   6  17    7.41    1.77
  -3   6 -17   10.16    1.86
   4  -6  17   20.24    2.43
  -4   6  17   17.74    2.64
   4   6  17   16.19    2.34
  -4  -6  17   19.68    2.83
  -4   6 -17   17.23    2.46
  -5   6  17    5.08    2.18
  -5  -6  17    7.23    2.23
  -5   6 -17    5.50    1.99
   5   6  17    4.40    1.95
  -6   6  17   16.94    2.98
  -6  -6  17   18.89    2.78
  -6   6 -17   17.85    2.83
   6   6  17   18.51    2.93
  -7   6  17    3.62    2.63
   7   6  17    2.50    2.43
  -7   6 -17    4.09    2.40
   0   7  17   67.12    5.25
   0  -7  17   61.33    5.57
   0   7 -17   65.55    5.26
   1   7 -17   15.02    1.94
  -1   7  17   13.23    2.05
   1  -7  17   12.94    2.41
  -1   7 -17   13.29    1.99
  -1  -7  17   13.86    2.51
   1   7  17    8.99    1.89
   2  -7  17    4.92    1.96
   2   7 -17    5.53    1.59
  -2   7  17    6.39    1.92
  -2   7 -17    6.25    1.73
   2   7  17    4.65    1.65
  -2  -7  17    8.98    2.35
   3  -7  17    3.96    1.80
  -3   7  17    3.50    1.89
   3   7 -17    3.73    1.61
   3   7  17    2.30    1.67
  -3   7 -17    1.66    1.62
  -3  -7  17    3.54    2.12
   4  -7  17   41.58    3.60
  -4   7  17   40.48    3.99
  -4  -7  17   26.16    3.42
   4   7  17   27.43    3.08
  -4   7 -17   25.99    3.17
  -5   7  17    7.49    2.37
   5   7  17    7.20    2.15
   5   7  17    8.19    2.09
  -5  -7  17    7.03    2.29
  -5   7 -17    5.71    2.05
  -6   7  17   13.29    2.91
  -6   7 -17   18.50    2.80
   6   7  17   17.12    2.84
  -6  -7  17   14.67    2.67
  -7   7  17   -1.95    2.63
   7   7  17    3.07    2.43
  -7   7 -17    2.08    2.35
   0   8  17   19.49    2.36
   0   8 -17   15.24    2.24
   0  -8  17   15.56    2.77
   1  -8  17   18.42    2.78
  -1   8  17   19.11    2.36
   1   8 -17   15.77    2.19
  -1   8 -17   15.69    2.25
  -1  -8  17   15.72    2.77
   1   8  17   14.20    2.18
  -2   8  17   39.17    4.13
   2   8 -17   44.22    4.11
   2  -8  17   40.33    4.35
  -2   8 -17   47.19    4.11
   2   8  17   41.10    3.92
  -2  -8  17   42.66    4.49
   3  -8  17    2.07    1.91
  -3   8  17    1.74    1.92
   3   8 -17   -0.92    1.56
   3   8  17    1.72    1.75
  -3   8 -17   -0.17    1.72
  -3  -8  17   -0.23    2.07
   4  -8  17   12.91    2.31
  -4   8  17   13.68    2.53
   4   8 -17   16.84    2.37
  -4   8 -17   12.34    2.34
  -4  -8  17   13.33    2.67
   4   8  17   14.65    2.34
  -5   8  17    1.93    2.35
  -5  -8  17    0.98    2.08
   5   8  17    4.60    2.09
  -5   8 -17    1.46    1.98
  -6   8  17   10.68    2.84
  -6   8 -17    5.06    2.31
   6   8  17   13.08    2.70
  -6  -8  17    9.43    2.41
   0  -9  17   22.36    3.22
   0   9 -17   17.40    2.45
   0   9  17   19.86    2.52
   1  -9  17    7.91    2.43
  -1   9  17    5.26    1.92
   1   9 -17    6.47    1.81
  -1   9 -17    3.76    1.78
   1   9  17    3.91    1.79
  -1  -9  17    1.55    2.27
   2  -9  17   -0.61    2.04
   2   9 -17    0.11    1.57
  -2   9  17   -0.24    1.83
  -2  -9  17   -0.27    2.17
   2   9  17   -0.37    1.75
  -2   9 -17   -1.83    1.68
   3  -9  17   17.97    2.77
  -3   9  17   16.24    2.67
   3   9 -17   16.14    2.49
   3   9  17   21.56    2.63
  -3   9 -17   19.99    2.65
  -3  -9  17   21.16    3.04
  -4   9  17   19.11    2.93
   4  -9  17   23.79    2.86
   4   9 -17   19.15    2.70
   4   9  17   20.87    2.78
  -4  -9  17   17.13    2.93
  -4   9 -17   17.92    2.75
  -5   9  17    3.02    2.36
   5   9  17    4.28    2.20
  -5  -9  17    4.63    2.28
  -5   9 -17    2.74    2.11
   0  10 -17    4.21    1.83
   0  10  17    4.56    1.88
   0 -10  17    1.99    2.39
   1  10 -17   15.75    2.27
  -1  10  17   12.64    2.33
   1 -10  17   11.68    2.79
  -1  10 -17    9.25    2.19
  -1 -10  17   12.05    2.84
   1  10  17   11.18    2.17
   2  10 -17    6.64    1.93
   2 -10  17    8.51    2.57
  -2  10  17   10.14    2.23
  -2  10 -17    5.46    2.04
   2  10  17    6.14    2.07
  -2 -10  17    5.66    2.55
   3 -10  17    5.00    2.30
  -3  10  17    3.68    2.14
   3  10 -17    2.41    1.87
  -3 -10  17    5.17    2.44
   3  10  17    0.57    1.98
  -3  10 -17    2.76    2.00
   4  10 -17    1.82    1.99
  -4  10  17    2.08    2.30
   4 -10  17    3.00    2.07
   4  10  17    3.52    2.09
  -4  10 -17    5.38    2.17
  -4 -10  17    5.22    2.33
  -5  10  17    5.47    2.56
   5  10  17    8.59    2.44
  -5  10 -17    5.92    2.38
  -5 -10  17   13.92    2.63
   0  11 -17   15.26    2.46
   0 -11  17   14.08    3.09
   0  11  17   17.65    2.56
   1 -11  17    5.75    2.63
  -1  11  17    2.88    2.09
   1  11 -17    4.35    1.98
   1  11  17    5.93    2.05
  -1  11 -17    5.04    2.04
  -1 -11  17    0.81    2.42
  -2  11  17    6.67    2.24
   2  11 -17    5.71    2.08
   2 -11  17    4.18    2.53
  -2  11 -17    7.86    2.18
   2  11  17   11.14    2.38
  -2 -11  17   10.59    2.78
   3  11 -17    1.52    2.00
   3 -11  17    1.80    2.40
  -3  11  17    0.46    2.17
  -3 -11  17    4.80    2.52
   3  11  17    5.65    2.18
  -3  11 -17    4.56    2.09
   4 -11  17    6.05    2.38
  -4 -11  17    6.64    2.52
   0  12  17    0.92    2.02
   0  12 -17   -1.44    1.88
   0 -12  17    0.85    2.53
   1  12 -17    4.13    2.05
  -1  12  17    5.49    2.22
   1 -12  17    4.72    2.70
  -1  12 -17    3.58    2.06
   1  12  17    2.42    2.08
  -1 -12  17    2.47    2.55
   2 -12  17   18.44    3.25
  -2  12  17   18.20    2.84
   2  12 -17   18.11    2.72
   2  12  17   14.56    2.69
  -2  12 -17   11.92    2.62
  -2 -12  17   15.57    3.12
   0   0  18   -0.04    1.42
   1   0  18   31.01    3.13
  -1   0  18   26.90    2.91
  -2   0  18   14.28    1.75
  -2   0  18   11.96    2.15
  -2   0 -18   15.99    1.79
   2   0  18   12.52    1.91
  -3   0  18    7.85    1.97
   3   0  18    7.71    1.63
  -3   0  18   10.19    1.66
  -3   0 -18    7.59    1.59
   4   0  18   13.09    1.84
  -4   0  18   12.75    1.99
  -4   0 -18   13.62    2.04
  -4   0  18   11.15    2.22
  -5   0  18   20.21    2.81
  -5   0 -18   22.27    2.69
  -5   0  18   21.15    2.71
  -6   0  18   11.44    2.37
  -6   0 -18   14.94    2.58
  -6   0  18   13.81    2.59
  -7   0  18    0.84    2.50
  -7   0 -18   -2.14    2.14
  -8   0 -18   17.79    3.42
  -8   0  18   19.37    3.66
   0   1  18    9.40    1.36
   0  -1  18    7.60    1.76
   0   1  18    5.75    1.64
  -1   1  18   43.11    3.99
  -1   1  18   47.21    3.80
   1  -1  18   41.05    3.97
  -1  -1  18   43.25    4.05
  -1   1 -18   44.02    3.70
   1   1  18   46.87    3.93
   2  -1  18   47.94    4.32
  -2   1  18   52.79    4.47
  -2  -1 -18   53.51    4.19
  -2   1  18   50.90    4.31
   2   1  18   48.33    4.24
  -2   1 -18   53.71    4.29
  -2  -1  18   49.42    4.56
  -3  -1 -18   53.86    4.44
   3  -1  18   55.06    4.31
  -3   1  18   53.78    4.42
  -3   1  18   49.85    4.55
   3   1  18   47.68    4.29
  -3  -1  18   50.50    4.65
  -3   1 -18   48.89    4.35
  -4   1  18    4.25    1.87
   4  -1  18    4.21    1.49
  -4   1  18    1.88    1.65
  -4  -1 -18    4.08    1.56
   4   1  18    6.40    1.50
  -4  -1  18    5.21    1.96
  -4  -1  18    4.88    1.66
  -4   1 -18    4.72    1.65
  -5  -1 -18    9.64    2.07
  -5   1  18    8.44    2.12
  -5   1  18    4.80    2.04
  -5  -1  18    9.92    2.00
  -5  -1  18    6.75    2.10
  -5   1 -18    6.37    1.99
  -6   1  18    3.86    2.24
  -6   1  18    3.70    1.96
  -6  -1 -18    1.09    2.01
  -6   1 -18    1.38    2.04
  -6  -1  18    0.89    2.14
  -6  -1  18    0.85    1.83
  -7   1  18   25.58    3.47
  -7  -1 -18   26.70    3.45
  -7   1 -18   20.65    3.31
  -7  -1  18   19.81    3.34
  -8  -1 -18   12.64    3.20
  -8   1  18   10.74    3.29
  -8  -1  18   16.15    3.36
  -8   1 -18   13.41    3.19
   0   2  18   17.88    1.96
   0  -2  18   19.00    2.44
   0   2 -18   20.48    1.93
   0   2  18   18.24    2.31
  -1   2  18   67.63    4.86
  -1   2  18   67.78    5.06
   1  -2  18   67.88    5.00
   1   2  18   58.11    4.63
  -1  -2  18   54.55    5.10
  -1   2 -18   57.91    4.82
   1   2  18   58.98    4.97
   2  -2  18   13.99    2.07
  -2   2  18   14.92    1.95
  -2   2  18   13.92    2.22
   2   2  18   14.78    2.05
   2   2  18   17.04    1.82
  -2  -2  18   16.51    2.39
  -2   2 -18   18.31    2.00
   3  -2  18    4.51    1.54
  -3   2  18    6.27    1.87
  -3   2  18    5.43    1.59
  -3  -2 -18    4.61    1.42
   3   2  18    6.08    1.52
   3   2  18    5.08    1.36
  -3   2 -18    6.62    1.57
  -3  -2  18    5.96    1.94
  -4   2  18   30.93    3.02
  -4   2  18   27.85    3.17
  -4  -2 -18   29.33    3.27
   4  -2  18   31.04    3.08
   4   2  18   26.36    2.68
  -4  -2  18   26.02    3.15
  -4   2 -18   25.95    2.90
  -5   2  18   37.04    4.05
  -5   2  18   42.15    3.81
  -5  -2 -18   40.61    4.15
  -5  -2  18   37.45    4.12
  -5   2 -18   37.45    4.00
  -6   2  18    7.75    2.17
  -6  -2 -18    7.66    2.24
  -6   2  18    5.77    2.41
  -6   2 -18    9.70    2.29
  -6  -2  18    8.91    2.26
  -6  -2  18    8.18    2.34
  -7   2  18    2.01    2.63
  -7  -2 -18    2.04    2.27
  -7   2 -18    1.94    2.35
  -7  -2  18    1.91    2.48
  -8  -2 -18    4.36    2.70
  -8   2  18   10.97    3.20
  -8  -2  18    8.31    3.06
  -8   2 -18    6.24    2.81
   0  -3  18    1.23    1.61
   0   3  18    3.44    1.52
   0   3  18    3.19    1.27
  -1   3  18   22.76    2.62
   1  -3  18   27.56    2.75
  -1   3  18   26.92    2.46
   1   3  18   23.71    2.30
  -1   3 -18   25.05    2.70
   1   3  18   21.23    2.52
  -1  -3  18   19.78    2.72
  -2   3  18   14.80    2.19
  -2   3  18   16.82    2.00
   2  -3  18   14.06    2.06
  -2   3 -18   14.90    1.91
   2   3  18    9.72    1.88
  -2  -3  18   13.17    2.30
   2   3  18   12.61    1.77
  -3   3  18   24.47    2.99
   3  -3  18   25.31    2.76
  -3  -3 -18   27.71    2.71
   3   3  18   31.40    2.98
  -3   3 -18   31.11    3.24
   3   3  18   28.38    2.67
  -3  -3  18   30.63    3.23
  -4   3  18    7.31    2.12
   4  -3  18    8.42    1.75
  -4   3  18    9.28    2.08
  -4  -3 -18   11.52    1.90
  -4  -3  18   11.71    2.36
   4   3  18    9.71    1.72
   4   3  18   15.21    1.92
  -4   3 -18    9.99    1.96
  -5   3  18   14.48    2.40
  -5  -3 -18   13.55    2.27
  -5   3  18    9.46    2.25
  -5   3 -18    9.55    2.13
  -5  -3  18   11.49    2.38
  -6   3  18   23.21    3.17
  -6  -3 -18   19.13    3.00
  -6   3  18   16.03    2.68
  -6  -3  18   23.80    2.91
  -6   3 -18   23.83    2.99
  -7   3  18   21.39    3.32
  -7  -3 -18   16.27    3.09
  -7   3 -18   14.99    2.96
   0   4  18   38.51    3.79
   0   4 -18   41.84    3.60
   0  -4  18   40.88    4.05
   0   4  18   43.66    3.84
  -1   4  18   24.84    2.68
  -1   4  18   26.18    2.49
   1  -4  18   22.82    2.70
   1   4 -18   26.38    2.68
   1   4  18   22.20    2.51
   1   4  18   21.89    2.37
  -1   4 -18   27.09    2.76
  -1  -4  18   20.63    2.81
  -2   4  18    1.68    1.65
   2  -4  18    1.12    1.60
  -2   4  18    1.25    1.54
   2   4  18    2.62    1.42
  -2  -4  18    1.96    1.87
   2   4  18    4.84    1.50
  -2   4 -18    4.44    1.45
  -3   4  18    7.10    1.97
  -3   4  18    9.41    1.89
   3  -4  18    8.67    1.76
  -3   4 -18    4.84    1.63
   3   4  18    5.01    1.52
  -3  -4  18    7.03    2.13
   3   4  18    5.04    1.51
  -4   4  18    3.45    1.92
  -4  -4 -18    8.49    1.79
  -4   4  18    2.37    1.81
   4  -4  18    5.16    1.61
   4   4  18    2.76    1.40
  -4  -4  18    0.20    1.97
   4   4  18    4.43    1.65
  -4   4 -18    2.62    1.71
  -5   4  18   15.35    2.60
  -5   4  18   18.42    2.75
  -5  -4 -18   17.91    2.58
  -5   4 -18   17.50    2.59
  -5  -4  18   25.02    2.97
   5   4  18   18.87    2.63
  -6  -4 -18    4.52    2.08
  -6   4  18    2.50    1.95
  -6   4  18    2.04    2.36
   6   4  18    0.27    2.08
  -6  -4  18    5.75    2.16
  -6   4 -18    2.68    2.06
  -7   4  18   -0.76    2.54
  -7  -4 -18    0.56    2.22
   7   4  18   -0.26    2.39
  -7   4 -18   -1.02    2.22
   0   5  18   12.91    1.87
   0  -5  18    9.65    2.20
   0   5  18   11.20    1.98
   0   5 -18   11.04    1.72
  -1   5  18    9.07    1.96
   1  -5  18   11.60    2.21
   1   5 -18    9.44    1.62
  -1   5  18   10.16    1.83
   1   5  18    9.88    1.73
  -1   5 -18   11.14    1.75
   1   5  18   11.64    1.87
  -1  -5  18    8.07    2.26
  -2   5  18   18.69    2.46
  -2   5  18   21.43    2.40
   2  -5  18   23.06    2.60
   2   5  18   15.56    2.16
  -2  -5  18   15.97    2.69
   2   5  18   19.22    2.19
  -2   5 -18   15.27    2.18
  -3   5  18   17.43    2.37
  -3   5  18   18.49    2.57
   3  -5  18   14.78    2.22
  -3   5 -18   14.67    2.18
   3   5  18   15.58    2.14
  -3  -5  18   14.30    2.62
  -4   5  18   22.93    2.86
  -4   5  18   17.53    2.76
   4  -5  18   23.16    2.53
  -4   5 -18   20.07    2.66
   4   5  18   23.28    2.60
  -4  -5  18   24.00    3.10
  -5   5  18   -0.47    1.86
  -5   5  18    0.30    2.10
   5   5  18    1.22    1.85
  -5   5 -18    1.66    1.87
  -5  -5  18    2.96    2.11
  -6   5  18   19.84    3.01
  -6   5  18   16.66    2.58
  -6   5 -18   14.82    2.76
   6   5  18   17.14    2.87
  -6  -5  18   16.32    2.72
  -7   5  18   -2.55    2.59
   7   5  18    3.42    2.54
  -7   5 -18   -0.21    2.27
   0   6 -18   68.81    5.36
   0   6  18   63.74    5.37
   0  -6  18   64.91    5.66
   0   6  18   66.24    5.29
   1  -6  18    4.42    2.05
   1   6 -18    6.55    1.60
  -1   6  18    6.03    1.86
  -1   6  18    6.31    1.81
  -1   6 -18   12.12    1.86
   1   6  18   12.47    1.85
  -1  -6  18   12.75    2.45
   2  -6  18    2.21    1.87
  -2   6  18    4.87    1.85
  -2   6  18    2.16    1.74
   2   6 -18    4.00    1.48
  -2  -6  18    5.13    2.22
   2   6  18    5.41    1.64
  -2   6 -18    6.22    1.69
  -3   6  18    1.48    1.79
   3  -6  18    2.78    1.78
  -3   6  18    3.03    1.86
  -3  -6  18    1.93    2.15
   3   6  18    3.74    1.68
  -3   6 -18    4.12    1.69
  -4   6  18    5.13    1.95
   4  -6  18    6.53    1.83
  -4   6  18    8.57    2.25
  -4   6 -18    4.20    1.86
   4   6  18    4.11    1.84
  -4  -6  18    4.95    2.25
  -5   6  18   11.90    2.57
  -5  -6  18    8.36    2.46
  -5   6 -18   10.25    2.29
  -6   6  18    9.30    2.65
  -6   6 -18    4.86    2.31
   6   6  18    5.26    2.39
  -6  -6  18    9.30    2.41
  -7   6  18   -0.32    2.64
  -7   6 -18   -0.81    2.31
   7   6  18    3.64    2.62
   0   7 -18    1.75    1.50
   0  -7  18    2.93    2.11
   0   7  18    4.52    1.72
  -1   7  18    3.71    1.75
   1  -7  18    3.45    2.06
   1   7 -18    3.92    1.57
  -1   7 -18    7.17    1.71
   1   7  18    1.95    1.59
  -1  -7  18    1.09    2.12
   2  -7  18   18.36    2.72
  -2   7  18   16.71    2.51
   2   7 -18   17.31    2.29
   2   7  18   21.56    2.41
  -2   7 -18   18.82    2.42
  -2  -7  18   18.65    2.97
  -3   7  18   19.28    2.61
   3  -7  18   16.98    2.49
  -3  -7  18   12.86    2.68
   3   7  18   14.94    2.26
  -3   7 -18   12.42    2.28
  -4   7  18    6.68    2.32
   4  -7  18    8.83    2.06
  -4  -7  18    8.95    2.52
  -4   7 -18    9.63    2.09
   4   7  18    9.68    2.11
  -5   7  18    1.64    2.29
  -5  -7  18    3.36    2.22
  -5   7 -18   -0.19    1.94
   5   7  18    3.43    2.01
  -6   7  18    9.18    2.84
  -6   7 -18   12.66    2.59
  -6  -7  18   10.73    2.60
   0   8 -18    1.23    1.61
   0  -8  18   -1.96    2.02
   0   8  18    1.36    1.74
   1   8 -18   10.10    2.08
  -1   8  18   14.76    2.33
   1  -8  18    9.08    2.53
  -1   8 -18   16.90    2.26
   1   8  18   18.01    2.27
  -1  -8  18   13.20    2.73
   2   8 -18   15.47    2.19
   2  -8  18   13.06    2.60
  -2   8  18   15.86    2.41
   2   8  18   12.93    2.23
  -2  -8  18   14.69    2.84
  -2   8 -18   14.19    2.29
   3  -8  18    9.46    2.29
  -3   8  18    9.49    2.35
   3   8 -18    6.55    1.95
   3   8  18   12.20    2.16
  -3   8 -18   13.47    2.25
  -3  -8  18    8.36    2.57
  -4   8  18    8.86    2.49
   4  -8  18   11.54    2.33
   4   8  18   13.80    2.33
  -4  -8  18   14.58    2.73
  -4   8 -18   11.92    2.34
  -5   8  18   11.76    2.75
  -5   8 -18    7.23    2.30
   5   8  18   10.64    2.41
  -5  -8  18   10.01    2.61
  -6   8  18   -1.17    2.57
  -6   8 -18    0.54    2.21
  -6  -8  18    5.73    2.29
   0  -9  18   11.08    2.71
   0   9 -18   13.81    2.20
   0   9  18   11.82    2.17
  -1   9  18   12.13    2.29
   1  -9  18   11.14    2.67
   1   9 -18   13.50    2.17
  -1  -9  18   10.41    2.71
   1   9  18    9.68    2.10
  -1   9 -18   11.60    2.15
   2  -9  18   31.66    3.71
  -2   9  18   33.07    3.43
   2   9 -18   31.43    3.28
   2   9  18   31.67    3.37
  -2  -9  18   37.33    4.02
  -2   9 -18   31.91    3.41
   3   9 -18   15.69    2.46
  -3   9  18   13.86    2.64
   3  -9  18   14.99    2.69
  -3  -9  18   13.23    2.88
  -3   9 -18   16.99    2.57
   3   9  18   15.46    2.47
  -4   9  18    1.03    2.27
   4  -9  18    1.45    2.00
  -4  -9  18    4.40    2.36
  -4   9 -18    3.16    2.09
   4   9  18    4.34    2.07
  -5   9  18    0.70    2.41
  -5   9 -18    2.25    2.13
  -5  -9  18    5.85    2.36
   5   9  18    3.57    2.24
   0  10  18    3.93    1.94
   0 -10  18    1.02    2.43
   0  10 -18    1.64    1.81
  -1  10  18    8.82    2.26
   1 -10  18   11.38    2.79
   1  10 -18    4.78    1.99
   1  10  18    5.11    2.03
  -1  10 -18    6.44    2.08
  -1 -10  18    3.95    2.58
   2 -10  18    9.56    2.72
   2  10 -18   13.34    2.27
  -2  10  18   15.19    2.51
  -2  10 -18    8.61    2.26
   2  10  18    8.43    2.29
  -2 -10  18   11.22    2.84
   3 -10  18   -2.16    2.10
   3  10 -18   -0.08    1.88
  -3  10  18   -0.15    2.12
   3  10  18    0.46    1.99
  -3 -10  18    2.03    2.32
  -3  10 -18    1.12    2.05
  -4  10  18   21.40    3.23
   4 -10  18   26.12    3.16
   4  10 -18   15.52    2.86
  -4 -10  18   24.38    3.38
   4  10  18   25.34    3.11
  -4  10 -18   25.77    3.17
   0  11 -18    2.10    1.98
   0  11  18    0.23    1.98
   0 -11  18    2.18    2.64
  -1  11  18    0.48    2.08
   1  11 -18   -0.58    1.91
   1 -11  18   -2.07    2.50
   1  11  18   -1.28    1.96
  -1 -11  18    0.41    2.51
  -1  11 -18   -1.91    1.90
  -2  11  18    7.10    2.45
   2 -11  18    7.95    2.83
   2  11 -18    9.43    2.32
   2  11  18   10.44    2.43
  -2 -11  18   14.42    3.05
  -2  11 -18   11.90    2.40
   3 -11  18    7.35    2.60
  -3 -11  18    9.88    2.82
   0   0  19   -1.25    1.46
  -1   0  19    1.98    1.64
   1   0  19    4.15    1.60
  -2   0 -19    9.63    1.56
  -2   0  19    7.23    1.93
   2   0  19    7.17    1.71
  -3   0  19   91.16    7.09
  -3   0  19   92.72    6.84
  -3   0 -19   92.70    7.02
   3   0  19   90.45    6.80
  -4   0 -19   -0.15    1.55
  -4   0  19   -0.09    1.83
   4   0  19    0.09    1.39
  -4   0  19   -1.38    1.51
  -5   0  19    1.08    1.91
  -5   0  19    0.69    1.91
  -5   0 -19    0.34    1.79
  -6   0  19    3.02    2.04
  -6   0 -19    4.72    2.14
  -6   0  19    2.99    2.23
  -7   0 -19   32.02    4.03
  -7   0  19   38.70    4.14
   0   1  19   -0.94    1.49
   0  -1  19    1.74    1.64
  -1   1  19   52.89    4.59
  -1   1  19   53.34    4.27
   1  -1  19   49.01    4.50
   1   1  19   52.52    4.44
  -1  -1  19   51.80    4.59
  -2   1  19    0.35    1.32
  -2   1  19    2.27    1.71
   2  -1  19    2.90    1.54
  -2   1 -19    2.55    1.34
   2   1  19    1.27    1.44
  -2  -1  19    1.49    1.76
   3  -1  19   24.11    2.55
  -3  -1 -19   25.24    2.55
  -3   1  19   21.09    2.86
  -3   1  19   26.42    2.59
  -3  -1  19   18.59    2.86
   3   1  19   24.05    2.57
  -3   1 -19   26.50    2.61
   4  -1  19    4.28    1.57
  -4   1  19    4.68    1.81
  -4   1  19    5.64    2.05
  -4  -1 -19    4.69    1.71
  -4   1 -19    6.95    1.78
   4   1  19    4.65    1.57
  -4  -1  19    3.05    2.01
  -5   1  19   17.72    2.76
  -5   1  19   18.90    2.88
  -5  -1 -19   20.06    2.78
  -5  -1  19   27.65    3.10
  -5   1 -19   33.56    3.07
  -6  -1 -19    2.75    2.11
  -6   1  19   -0.28    2.25
  -6   1  19    3.42    2.03
  -6   1 -19   -0.17    2.03
  -6  -1  19    3.14    2.19
  -6  -1  19    0.49    1.93
  -7   1  19    2.09    2.65
  -7  -1 -19    3.03    2.47
  -7   1 -19    3.31    2.46
  -7  -1  19    0.37    2.51
   0   2  19   29.32    2.94
   0  -2  19   23.68    2.77
   0   2  19   23.52    2.72
   1  -2  19   18.81    2.44
  -1   2  19   17.89    2.47
  -1   2  19   19.88    2.18
  -1   2 -19   24.18    2.56
  -1  -2  19   16.46    2.54
   1   2  19   21.92    2.10
   1   2  19   24.11    2.52
   2  -2  19   13.19    2.11
  -2   2  19   15.83    1.99
  -2   2  19   13.59    2.29
   2   2  19   15.22    2.13
  -2  -2  19   15.81    2.45
  -2   2 -19   17.67    2.02
  -3   2  19   55.69    4.77
  -3   2  19   54.39    4.70
   3  -2  19   53.07    4.46
  -3  -2  19   42.12    4.68
   3   2  19   53.78    4.43
  -3   2 -19   51.13    4.52
  -4  -2 -19   12.89    2.04
   4  -2  19   10.40    1.85
  -4   2  19   10.25    2.29
  -4   2  19    8.36    2.09
  -4  -2  19   13.27    2.46
  -4   2 -19   11.42    2.06
   4   2  19   12.14    1.84
  -5   2  19    0.82    1.89
  -5  -2 -19    2.56    1.85
  -5   2  19    0.38    1.97
  -5  -2  19    1.38    2.01
  -5   2 -19    2.65    1.85
  -6   2  19    4.08    2.36
  -6  -2 -19    2.89    2.15
  -6   2  19    1.27    2.00
  -6   2 -19    3.14    2.13
  -6  -2  19    5.65    2.16
  -7   2  19   18.30    3.41
  -7  -2 -19   18.41    3.17
  -7   2 -19   20.44    3.23
   0  -3  19   -1.45    1.62
   0   3  19    0.91    1.55
   0   3  19    0.37    1.33
  -1   3  19   60.68    4.94
   1  -3  19   53.98    4.95
  -1   3  19   56.09    4.79
  -1   3 -19   61.01    4.77
   1   3  19   62.02    4.87
  -1  -3  19   57.44    5.12
   1   3  19   58.54    4.58
  -2   3  19    0.69    1.68
  -2   3  19    0.76    1.48
   2  -3  19   -0.46    1.52
   2   3  19    0.21    1.48
   2   3  19    0.03    1.35
  -2   3 -19   -1.05    1.31
  -2  -3  19   -0.37    1.83
   3  -3  19    9.86    1.92
  -3   3  19   10.43    2.21
  -3   3  19   12.57    2.06
   3   3  19   11.74    1.88
  -3  -3  19   10.63    2.35
   3   3  19   12.24    1.77
  -3   3 -19   13.31    2.00
  -4  -3 -19    9.72    1.89
  -4   3  19    6.84    2.01
   4  -3  19    8.67    1.80
  -4   3  19    8.51    2.19
  -4  -3  19    6.80    2.20
   4   3  19    4.13    1.58
  -4   3 -19    8.54    1.93
  -5   3  19   54.13    5.05
  -5  -3 -19   53.74    4.82
  -5   3  19   44.38    4.65
  -5   3 -19   46.16    4.67
  -5  -3  19   44.13    4.72
  -6   3  19    6.65    2.51
  -6   3  19    8.25    2.26
  -6  -3 -19    8.67    2.35
  -6  -3  19    5.56    2.22
  -6   3 -19    7.80    2.32
  -7   3  19    5.61    2.81
  -7  -3 -19    3.80    2.47
  -7   3 -19    8.22    2.61
   0   4 -19    9.65    1.58
   0   4  19    8.80    1.66
   0  -4  19    5.05    1.97
   0   4  19    4.82    1.73
  -1   4  19   55.33    4.95
  -1   4  19   63.32    5.07
   1  -4  19   52.95    5.04
  -1  -4  19   61.17    5.28
  -1   4 -19   65.21    4.89
   1   4  19   58.41    4.73
   1   4  19   62.65    4.91
  -2   4  19    4.68    1.88
   2  -4  19    4.03    1.76
  -2   4  19    5.67    1.76
   2   4  19    5.79    1.65
  -2  -4  19    6.12    2.19
   2   4  19    4.46    1.54
  -2   4 -19    6.35    1.62
  -3   4  19   20.45    2.45
  -3   4  19   14.20    2.46
   3  -4  19   16.85    2.31
  -3  -4  19   11.77    2.58
   3   4  19   17.67    2.15
   3   4  19   16.01    2.14
  -3   4 -19   17.89    2.28
  -4   4  19    4.27    2.02
  -4   4  19    4.15    2.02
   4  -4  19    4.87    1.68
   4   4  19    3.80    1.68
   4   4  19    4.06    1.53
  -4   4 -19    4.54    1.85
  -4  -4  19    3.97    2.14
  -5   4  19    0.42    1.92
  -5  -4 -19    1.02    1.85
  -5   4  19    0.81    2.12
  -5   4 -19    0.83    1.88
  -5  -4  19    0.46    2.05
  -6   4  19    0.70    2.38
  -6   4  19    4.61    2.07
  -6  -4 -19    0.97    2.21
  -6   4 -19    0.84    2.09
  -6  -4  19    2.12    2.11
  -7   4  19   19.51    3.43
  -7  -4 -19   15.42    3.18
  -7   4 -19   21.02    3.26
   0   5  19    0.16    1.61
   0   5 -19    2.85    1.41
   0   5  19    1.22    1.58
   0  -5  19    2.01    2.01
  -1   5  19   28.49    3.08
  -1   5  19   32.27    2.94
   1   5 -19   30.34    3.03
   1  -5  19   29.16    3.24
   1   5  19   30.34    3.10
   1   5  19   25.20    2.92
  -1  -5  19   29.12    3.50
  -1   5 -19   30.87    3.22
   2  -5  19   12.75    2.21
  -2   5  19   11.60    2.24
  -2   5  19   11.93    2.12
   2   5  19   11.09    1.89
  -2  -5  19    8.21    2.46
  -2   5 -19   13.20    2.00
   2   5  19   13.04    1.98
  -3   5  19    3.04    1.93
   3  -5  19    2.75    1.76
  -3   5  19    4.44    1.91
  -3  -5  19    1.16    2.11
   3   5  19    3.03    1.54
  -3   5 -19    2.40    1.68
   3   5  19    1.62    1.57
   4  -5  19   -0.30    1.59
  -4   5  19   -0.22    1.89
  -4   5  19    0.04    2.03
  -4   5 -19    1.13    1.72
   4   5  19    0.50    1.73
  -4  -5  19    0.38    2.10
  -5   5  19   50.13    5.30
  -5   5  19   48.44    4.93
  -5  -5  19   54.20    5.10
  -5   5 -19   57.77    5.10
  -6  -5 -19    1.14    2.07
  -6   5  19    4.52    2.55
  -6   5  19    0.74    1.99
  -6  -5  19    4.90    2.24
  -6   5 -19    1.51    2.17
   6   5  19    3.80    2.29
   0  -6  19    4.05    2.19
   0   6  19    3.34    1.75
   0   6  19    5.18    1.75
   0   6 -19    5.13    1.57
  -1   6  19   21.81    2.86
  -1   6  19   31.82    2.89
   1  -6  19   23.92    3.17
   1   6 -19   28.10    3.00
   1   6  19   22.90    2.75
  -1   6 -19   26.78    2.77
   1   6  19   25.50    2.69
  -1  -6  19   24.79    3.31
   2  -6  19   15.29    2.53
  -2   6  19   16.00    2.50
  -2   6  19   19.89    2.46
  -2  -6  19   13.46    2.81
  -2   6 -19   15.06    2.26
   2   6  19   15.06    2.25
  -3   6  19   26.68    2.90
  -3   6  19   18.50    2.80
   3  -6  19   16.92    2.65
   3   6  19   24.61    2.65
  -3   6 -19   22.41    2.69
  -3  -6  19   19.95    3.11
  -4   6  19    5.75    2.29
  -4   6  19    4.76    2.11
   4  -6  19    7.93    1.99
   4   6  19    7.36    1.96
  -4   6 -19    7.80    2.08
  -4  -6  19   10.23    2.60
  -5   6  19   -1.05    2.25
  -5   6 -19    3.63    2.03
  -5  -6  19    2.95    2.21
  -6   6  19    1.41    2.51
  -6   6 -19    1.14    2.16
  -6  -6  19    2.57    2.22
   0   7  19   -0.92    1.71
   0  -7  19    1.27    2.12
   0   7 -19    0.26    1.55
   1  -7  19   19.11    2.94
   1   7 -19   19.57    2.44
  -1   7  19   23.23    2.66
  -1  -7  19   20.94    3.09
  -1   7 -19   21.54    2.55
   1   7  19   19.96    2.47
   2   7 -19   22.79    2.52
  -2   7  19   22.27    2.68
   2  -7  19   22.87    2.99
   2   7  19   16.41    2.46
  -2  -7  19   16.81    3.06
  -2   7 -19   18.86    2.54
   3  -7  19    3.05    2.05
  -3   7  19    6.77    2.19
  -3  -7  19    3.80    2.41
   3   7  19    6.44    1.96
  -3   7 -19    9.79    2.04
  -4   7  19    0.99    2.19
   4  -7  19    1.05    1.89
   4   7  19    3.07    1.96
  -4   7 -19    4.26    1.95
  -4  -7  19    4.11    2.40
  -5   7  19   15.62    3.07
   5   7  19   22.25    2.83
  -5  -7  19   21.30    3.22
  -5   7 -19   16.92    2.78
  -6   7  19    5.70    2.79
  -6  -7  19    4.88    2.33
  -6   7 -19    3.41    2.29
   0   8  19   -2.22    1.75
   0  -8  19   -2.51    2.13
   0   8 -19   -0.68    1.65
   1  -8  19    3.93    2.36
  -1   8  19    4.13    1.95
   1   8 -19    5.53    1.79
  -1   8 -19    4.57    1.83
  -1  -8  19    5.41    2.46
   1   8  19    1.77    1.77
   2   8 -19    1.12    1.68
  -2   8  19    2.13    2.00
   2  -8  19    4.53    2.19
  -2  -8  19    1.25    2.39
  -2   8 -19   -0.03    1.79
   2   8  19   -0.24    1.87
  -3   8  19   22.92    3.09
   3  -8  19   26.98    3.23
  -3   8 -19   24.43    3.00
   3   8  19   25.82    2.91
  -3  -8  19   23.42    3.46
  -4   8  19    3.75    2.35
   4  -8  19    5.49    2.15
  -4   8 -19    3.41    2.08
   4   8  19    6.59    2.13
  -4  -8  19    8.41    2.58
  -5   8  19    0.25    2.40
   5   8  19    5.58    2.17
  -5  -8  19    2.84    2.35
  -5   8 -19   -1.32    2.01
   0   9  19    4.89    2.00
   0  -9  19    2.81    2.47
   0   9 -19    7.46    1.97
  -1   9  19   17.45    2.58
   1   9 -19   16.06    2.36
   1  -9  19   14.43    2.92
  -1   9 -19   12.99    2.33
   1   9  19   11.68    2.33
  -1  -9  19   14.94    3.01
   2  -9  19   13.15    2.82
   2   9 -19   12.15    2.26
  -2   9  19   20.22    2.66
   2   9  19   14.15    2.45
  -2   9 -19   13.93    2.44
  -2  -9  19   13.31    3.00
   3  -9  19   17.95    2.90
  -3   9  19   19.64    2.83
   3   9  19   14.95    2.62
  -3   9 -19   16.45    2.69
  -3  -9  19   16.69    3.15
  -4   9  19    0.71    2.32
   4  -9  19   -0.50    2.01
  -4   9 -19   -1.09    1.99
  -4  -9  19    2.33    2.36
   4   9  19   -0.46    2.08
   0  10 -19   20.62    2.75
   0  10  19   21.26    2.81
   0 -10  19   16.76    3.32
   1  10 -19   -1.40    1.84
  -1  10  19   -0.87    2.04
   1 -10  19   -0.37    2.41
  -1 -10  19    2.38    2.51
  -1  10 -19    4.39    2.06
   1  10  19    1.38    1.97
  -2  10  19    1.90    2.17
   2  10 -19    1.46    1.93
   2 -10  19    2.89    2.48
  -2 -10  19    0.76    2.47
   2  10  19    0.98    2.16
  -2  10 -19    3.26    2.03
   3  10 -19    9.40    2.34
   3 -10  19   10.32    2.68
  -3  10  19    8.71    2.53
  -3 -10  19    8.78    2.80
   3  10  19    8.30    2.38
  -3  10 -19   10.37    2.47
   0  11 -19   -0.69    2.00
   0  11  19    2.26    2.09
   0 -11  19    1.09    2.67
   1 -11  19    4.72    2.74
  -1  11  19    2.47    2.19
   1  11 -19    4.23    2.05
  -1  11 -19    3.04    2.10
  -1 -11  19    3.32    2.69
   1  11  19    4.50    2.20
   0   0  20    2.59    1.68
  -1   0  20   55.00    4.95
   1   0  20   58.97    4.88
  -2   0  20   33.10    3.50
   2   0  20   32.81    3.44
  -3   0  20   10.01    2.28
   3   0  20   12.70    2.00
  -3   0 -20   11.29    1.92
  -4   0  20   12.85    2.60
  -4   0 -20   17.69    2.38
   4   0  20   17.19    2.25
  -5   0 -20   39.15    4.34
  -5   0  20   40.66    4.10
  -6   0  20   11.91    2.60
  -6   0  20   15.48    2.85
  -6   0 -20   14.65    2.75
  -7   0 -20    3.25    2.57
  -7   0  20    3.53    2.75
   0   1  20    0.99    1.63
   0  -1  20   -0.62    1.65
  -1   1  20   37.91    3.76
   1  -1  20   35.94    3.69
  -1  -1  20   30.64    3.43
   1   1  20   33.78    3.55
  -2   1  20   37.35    3.73
   2  -1  20   35.05    3.71
   2   1  20   39.36    3.76
  -2  -1  20   36.84    3.96
  -3   1  20   22.61    2.91
  -3   1  20   26.65    2.59
   3  -1  20   21.54    2.54
   3   1  20   20.74    2.53
  -3   1 -20   22.66    2.53
  -3  -1  20   19.12    2.92
   4  -1  20    5.54    1.68
  -4   1  20    4.83    1.84
  -4   1  20    1.38    2.01
  -4  -1 -20    7.35    1.82
   4   1  20    2.63    1.59
  -4  -1  20    0.69    2.02
  -4   1 -20    3.77    1.74
  -5   1  20    8.36    2.24
  -5   1  20    5.42    2.20
  -5  -1 -20    5.70    2.07
  -5  -1  20    7.20    2.27
  -5   1 -20    5.42    2.07
  -6  -1 -20    3.57    2.23
  -6   1  20    4.01    2.43
  -6   1  20    5.25    2.26
  -6   1 -20    3.27    2.19
  -6  -1  20    3.70    2.19
  -7  -1 -20   15.24    3.05
  -7   1  20   14.39    3.26
  -7   1 -20   16.73    3.12
   0   2  20    1.69    1.67
   0  -2  20    0.98    1.71
  -1   2  20   38.58    3.81
  -1   2  20   34.92    3.96
   1  -2  20   36.48    3.94
   1   2  20   44.42    4.04
  -1  -2  20   46.96    4.13
   2  -2  20    3.35    1.73
  -2   2  20    4.24    1.90
  -2   2  20    4.02    1.61
  -2   2 -20    6.07    1.54
   2   2  20    2.66    1.65
  -2  -2  20    3.60    2.06
   3  -2  20   11.78    2.06
  -3   2  20   13.04    2.39
  -3   2  20   11.14    2.06
   3   2  20   12.98    2.03
  -3   2 -20   14.05    2.09
  -3  -2  20   12.81    2.53
  -4   2  20    7.50    2.26
  -4   2  20    9.04    2.12
   4  -2  20   10.33    1.86
  -4  -2  20    7.17    2.33
  -4   2 -20    7.32    1.96
   4   2  20    6.15    1.72
  -5   2  20   24.90    3.21
  -5  -2 -20   30.55    3.26
  -5   2  20   23.88    3.21
  -5   2 -20   29.12    3.18
  -5  -2  20   25.02    3.34
  -6   2  20    0.42    2.07
  -6   2  20   -1.21    2.29
  -6  -2 -20    1.35    2.11
  -6  -2  20   -0.25    2.06
  -6   2 -20    0.04    2.14
  -7  -2 -20   -0.26    2.37
  -7   2  20   -2.31    2.67
  -7   2 -20    2.26    2.47
   0  -3  20   -1.08    1.74
   0   3  20   -1.33    1.36
   0   3  20    1.02    1.65
  -1   3  20   16.72    2.02
  -1   3  20   11.92    2.22
   1  -3  20   14.48    2.33
   1   3  20   17.56    2.31
  -1  -3  20   13.58    2.45
   1   3  20   13.49    1.90
   2  -3  20    6.23    1.87
  -2   3  20    7.15    2.04
  -2   3  20    7.95    1.85
  -2   3 -20    7.99    1.68
  -2  -3  20    7.83    2.23
   2   3  20    4.02    1.75
  -3   3  20   42.65    4.14
   3  -3  20   40.36    3.86
  -3   3  20   42.07    4.14
   3   3  20   36.72    3.72
  -3   3 -20   41.95    3.92
  -3  -3  20   31.20    3.88
  -4   3  20    2.51    2.00
  -4   3  20    2.36    2.03
   4  -3  20    0.73    1.62
  -4   3 -20    3.65    1.82
   4   3  20    1.09    1.50
  -4  -3  20    3.04    2.18
  -5   3  20   12.62    2.55
  -5  -3 -20   15.46    2.46
  -5   3  20   11.28    2.51
  -5   3 -20   11.10    2.37
  -5  -3  20   11.47    2.62
  -6  -3 -20    2.55    2.20
  -6   3  20    3.55    2.53
  -6   3  20    2.93    2.15
  -6  -3  20   -0.24    2.12
  -6   3 -20    0.12    2.09
   0   4  20   27.54    2.76
   0  -4  20   29.48    3.23
   0   4  20   26.73    3.01
  -1   4  20   41.57    3.85
   1  -4  20   36.36    3.68
  -1   4  20   36.82    3.80
   1   4  20   35.19    3.46
  -1  -4  20   36.00    3.88
   1   4  20   34.68    3.73
  -1   4 -20   39.51    3.59
   2  -4  20    2.21    1.81
  -2   4  20    3.80    1.92
  -2   4  20    4.88    1.77
  -2   4 -20    2.58    1.55
   2   4  20    3.30    1.59
   2   4  20    2.42    1.62
  -2  -4  20    0.51    2.09
   3  -4  20   13.07    2.22
  -3   4  20   12.18    2.25
  -3   4  20   13.77    2.49
  -3  -4  20   13.22    2.65
  -3   4 -20   16.41    2.24
   3   4  20   12.46    2.05
   3   4  20   15.66    2.04
  -4   4  20    0.75    1.96
  -4   4  20   -2.02    1.91
   4  -4  20    0.07    1.65
  -4   4 -20   -1.23    1.71
   4   4  20    1.31    1.52
  -4  -4  20    1.56    2.17
  -5   4  20   14.07    2.62
  -5   4  20   10.52    2.43
  -5   4 -20    7.87    2.31
  -5  -4  20    6.85    2.43
  -6   4  20    2.70    2.57
  -6  -4 -20    5.33    2.29
  -6   4  20    3.34    2.18
  -6  -4  20    8.80    2.43
  -6   4 -20    5.13    2.36
   0   5  20    0.05    1.66
   0  -5  20   -2.01    1.90
   0   5  20    0.04    1.58
   0   5 -20   -0.37    1.41
   1  -5  20    5.77    2.13
  -1   5  20    7.71    2.06
  -1   5  20    7.55    1.84
   1   5  20    6.74    1.93
  -1  -5  20    5.17    2.22
  -1   5 -20    9.76    1.82
   1   5  20    8.38    1.76
  -2   5  20    3.14    1.93
  -2   5  20    2.37    1.81
   2  -5  20    2.41    1.91
  -2   5 -20    1.94    1.65
   2   5  20    1.21    1.62
  -2  -5  20    1.30    2.15
   2   5  20    3.59    1.65
   3  -5  20   38.18    4.05
  -3   5  20   42.06    4.24
  -3   5  20   47.28    4.46
  -3   5 -20   36.50    4.02
  -3  -5  20   37.27    4.19
   3   5  20   39.52    3.90
   3   5  20   39.36    3.85
  -4   5  20   10.18    2.47
   4  -5  20   12.19    2.16
  -4   5  20    7.27    2.40
  -4  -5  20   14.08    2.80
  -4   5 -20   12.25    2.30
   4   5  20   10.83    2.14
  -5   5  20    2.64    2.41
  -5   5  20    1.69    2.16
  -5   5 -20    1.41    2.00
  -5  -5  20    1.81    2.24
  -6   5  20    5.04    2.26
  -6   5  20    3.02    2.64
  -6  -5  20    6.45    2.39
  -6   5 -20    7.30    2.48
   0  -6  20    3.30    2.21
   0   6  20    5.17    1.87
   0   6  20    3.46    1.83
   0   6 -20    2.31    1.58
   1  -6  20   16.55    2.83
  -1   6  20   23.41    2.60
  -1   6  20   17.99    2.61
  -1   6 -20   18.63    2.40
  -1  -6  20   14.22    2.84
   1   6  20   18.27    2.34
   1   6  20   16.41    2.41
  -2   6  20    2.92    2.01
   2  -6  20    1.69    2.02
  -2   6  20    4.21    1.93
   2   6  20    2.60    1.79
  -2   6 -20    2.53    1.71
  -2  -6  20    1.86    2.32
   3  -6  20   13.15    2.39
  -3   6  20   17.21    2.60
  -3   6  20   14.09    2.58
  -3   6 -20   11.36    2.25
   3   6  20   13.73    2.23
  -3  -6  20   11.92    2.85
  -4   6  20   -1.57    1.95
   4  -6  20   -1.11    1.80
  -4   6  20    2.38    2.19
  -4  -6  20    1.90    2.32
   4   6  20    1.79    1.93
  -4   6 -20    3.17    1.95
  -5   6  20   13.01    2.83
  -5  -6  20   11.52    2.77
  -5   6 -20   11.60    2.49
   0   7 -20   13.20    2.16
   0   7  20   14.37    2.30
   0  -7  20   10.87    2.76
   1   7 -20   11.03    2.00
  -1   7  20   11.07    2.22
   1  -7  20   12.32    2.70
  -1   7 -20    8.58    2.00
   1   7  20    7.48    1.96
  -1  -7  20    5.39    2.56
  -2   7  20    7.12    2.11
   2  -7  20    6.62    2.29
  -2  -7  20    0.75    2.47
  -2   7 -20    2.37    1.87
   2   7  20    2.34    1.90
   3  -7  20   17.13    2.79
  -3   7  20   15.86    2.78
  -3   7 -20   20.15    2.75
  -3  -7  20   19.91    3.27
   3   7  20   23.50    2.69
   4  -7  20    4.08    2.03
  -4   7  20    3.11    2.37
  -4   7 -20    3.72    2.03
   4   7  20    6.37    2.08
  -4  -7  20    3.39    2.50
  -5   7  20    0.49    2.43
  -5   7 -20    1.90    2.12
  -5  -7  20    2.16    2.36
   0   8  20   -0.34    1.79
   0  -8  20    0.59    2.28
   0   8 -20    0.16    1.73
  -1   8  20   15.36    2.50
   1   8 -20   14.84    2.29
   1  -8  20   14.10    2.88
  -1   8 -20   10.67    2.22
   1   8  20   13.04    2.26
  -1  -8  20   10.89    2.88
  -2   8  20   13.11    2.50
   2  -8  20   12.29    2.76
  -2   8 -20   15.01    2.43
   2   8  20   12.95    2.41
  -2  -8  20   16.18    3.11
   3  -8  20    6.02    2.36
  -3   8  20    5.76    2.36
   3   8  20    7.42    2.15
  -3  -8  20    4.57    2.65
  -3   8 -20    4.91    2.10
   4  -8  20    6.58    2.29
  -4   8  20    7.87    2.60
  -4   8 -20    7.04    2.32
   4   8  20    6.55    2.27
  -4  -8  20   10.45    2.82
   0  -9  20   10.04    2.93
   0   9  20   13.46    2.41
   0   9 -20   12.92    2.32
  -1   9  20    9.15    2.37
   1  -9  20    6.43    2.68
   1   9 -20    8.35    2.11
   1   9  20    9.30    2.20
  -1  -9  20    5.19    2.71
  -1   9 -20    8.59    2.19
   2  -9  20    2.64    2.44
  -2   9  20    7.51    2.34
  -2  -9  20    4.36    2.64
  -2   9 -20    6.24    2.16
   2   9  20    6.80    2.26
  -3   9  20    8.12    2.53
   3  -9  20    9.42    2.65
   3   9  20   10.50    2.44
  -3  -9  20   13.80    2.97
  -3   9 -20   10.46    2.44
   0  10 -20   -0.51    1.94
   0  10  20   -0.38    2.03
   0 -10  20    0.43    2.64
   1  10 -20    4.50    2.12
  -1  10  20    8.32    2.41
   1 -10  20    4.22    2.74
  -1  10 -20    9.76    2.35
  -1 -10  20    6.73    2.89
   1  10  20    6.50    2.28
   2  10 -20    0.89    2.02
   2 -10  20   -0.98    2.47
  -2  10  20   -0.34    2.27
  -2  10 -20    1.16    2.10
   2  10  20    4.66    2.27
  -2 -10  20    4.23    2.73
   0   0  21   -3.38    1.63
  -1   0  21   59.55    5.34
   1   0  21   65.84    5.26
  -2   0  21   10.13    2.35
   2   0  21   13.48    2.14
  -3   0  21   -1.00    1.96
   3   0  21    0.63    1.62
  -4   0 -21    9.16    2.05
  -4   0  21    5.23    2.30
   4   0  21    9.71    1.95
  -5   0 -21    2.56    2.00
  -5   0  21    4.12    2.28
  -6   0  21   11.49    2.61
  -6   0 -21    9.85    2.62
   0  -1  21   43.78    4.43
   0   1  21   51.64    4.52
   1  -1  21    5.07    1.85
  -1   1  21    5.59    1.98
  -1  -1  21    0.97    1.97
   1   1  21    4.01    1.81
   2  -1  21   -0.05    1.63
  -2   1  21    1.55    1.97
   2   1  21    1.89    1.68
  -2  -1  21   -1.17    1.94
   3  -1  21    4.77    1.76
  -3   1  21    0.75    2.00
   3   1  21    2.93    1.75
  -3  -1  21    3.10    2.15
  -4   1  21    8.32    2.36
   4  -1  21   10.37    1.96
  -4  -1  21    4.94    2.29
  -4   1 -21    8.76    2.04
   4   1  21    6.15    1.86
  -5   1  21   24.36    3.32
  -5  -1 -21   29.72    3.26
  -5   1 -21   24.88    3.17
  -5  -1  21   25.15    3.35
  -6  -1 -21   11.38    2.67
  -6   1  21   13.92    2.81
  -6   1  21    8.26    2.50
  -6   1 -21   11.73    2.68
  -6  -1  21   12.02    2.61
   0   2  21   20.88    2.79
   0  -2  21   23.36    2.90
  -1   2  21   10.13    2.24
   1  -2  21   12.96    2.26
   1   2  21   11.45    2.17
  -1  -2  21   12.60    2.41
  -2   2  21   25.18    3.30
   2  -2  21   29.83    3.20
  -2  -2  21   35.69    3.61
   2   2  21   30.48    3.09
  -3   2  21   13.43    2.11
  -3   2  21   10.22    2.46
   3  -2  21   10.43    2.10
  -3  -2  21   12.07    2.63
  -3   2 -21   13.97    2.13
   3   2  21    8.58    2.00
  -4   2  21   34.06    3.18
  -4   2  21   29.05    3.41
   4  -2  21   30.40    2.91
  -4   2 -21   24.30    3.00
  -4  -2  21   22.28    3.35
   4   2  21   20.27    2.69
  -5   2  21    3.56    2.22
  -5   2  21    1.85    2.15
  -5  -2  21    3.50    2.31
  -5   2 -21    6.74    2.16
  -6   2  21    5.69    2.56
  -6  -2 -21    5.03    2.36
  -6   2  21    5.78    2.35
  -6   2 -21    3.32    2.30
  -6  -2  21    5.82    2.34
   0   3  21   27.89    3.07
   0  -3  21   25.60    3.14
   1  -3  21   14.15    2.47
  -1   3  21   17.04    2.51
  -1   3  21   16.46    2.12
  -1  -3  21   17.57    2.73
   1   3  21   12.78    2.35
  -2   3  21    9.92    2.01
   2  -3  21   10.63    2.16
  -2   3  21   10.79    2.33
  -2  -3  21    7.33    2.37
  -2   3 -21    8.97    1.85
   2   3  21    9.32    2.01
  -3   3  21    4.73    1.88
  -3   3  21    2.76    2.08
   3  -3  21    3.11    1.82
  -3  -3  21    2.71    2.24
   3   3  21    3.29    1.69
  -3   3 -21    1.72    1.67
   4  -3  21   15.97    2.31
  -4   3  21   14.45    2.70
  -4   3  21   19.47    2.69
  -4  -3  21   13.90    2.82
   4   3  21   10.23    2.09
  -4   3 -21   18.31    2.59
  -5   3  21    0.87    2.22
  -5   3  21    1.31    2.19
  -5  -3  21    5.81    2.43
  -5   3 -21    3.95    2.12
  -6   3  21    9.95    2.58
  -6   3  21   15.11    3.05
  -6   3 -21   16.92    2.88
  -6  -3  21   13.03    2.78
   0  -4  21    3.27    2.12
   0   4  21    3.95    1.85
   0   4  21    3.74    1.68
  -1   4  21    6.75    2.04
   1  -4  21    6.16    2.10
  -1   4  21    7.05    1.83
   1   4  21    4.01    1.62
   1   4  21    4.32    1.84
  -1  -4  21    3.09    2.20
   2  -4  21   40.34    4.28
  -2   4  21   40.99    4.47
  -2   4  21   39.58    4.32
  -2  -4  21   46.19    4.63
   2   4  21   43.88    4.14
  -2   4 -21   45.52    4.17
  -3   4  21   14.45    2.71
  -3   4  21   19.31    2.61
   3  -4  21   17.04    2.51
   3   4  21   20.29    2.45
  -3  -4  21   14.40    2.92
  -3   4 -21   17.54    2.44
  -4   4  21    0.51    2.06
   4  -4  21    0.63    1.75
  -4   4  21    1.59    2.16
  -4   4 -21    2.12    1.87
  -4  -4  21    1.81    2.29
   4   4  21   -0.43    1.57
  -5   4  21    6.58    2.49
  -5   4  21    4.20    2.32
  -5   4 -21    8.06    2.32
  -5  -4  21    7.36    2.51
  -6   4  21    4.43    2.39
  -6   4  21    8.10    2.81
  -6   4 -21    3.99    2.39
  -6  -4  21    5.47    2.44
   0   5  21    5.23    1.85
   0   5  21    6.91    2.03
   0  -5  21    7.07    2.33
   1  -5  21    2.61    2.12
  -1   5  21    3.13    2.00
  -1   5  21    4.04    1.87
  -1   5 -21    7.39    1.81
   1   5  21    4.42    1.71
   1   5  21    5.98    1.94
  -1  -5  21    7.09    2.39
  -2   5  21    5.77    1.95
  -2   5  21    4.46    2.10
   2  -5  21    0.74    1.99
  -2   5 -21    2.77    1.79
   2   5  21    2.40    1.72
  -2  -5  21   -0.57    2.23
   2   5  21    3.56    1.79
  -3   5  21   17.36    2.97
   3  -5  21   21.39    2.87
  -3   5  21   22.73    2.95
   3   5  21   23.90    2.69
  -3   5 -21   25.39    2.85
   3   5  21   23.08    2.66
  -3  -5  21   26.92    3.46
  -4   5  21   23.53    3.20
   4  -5  21   23.50    2.78
  -4   5  21   24.15    3.06
  -4   5 -21   20.28    2.83
  -4  -5  21   17.12    3.19
  -5   5  21    7.92    2.49
  -5   5  21    5.68    2.63
  -5  -5  21    7.72    2.60
  -5   5 -21    9.80    2.39
   0   6  21   10.10    2.13
   0  -6  21    5.32    2.43
   0   6  21    6.19    1.92
  -1   6  21   12.45    2.30
   1  -6  21   11.79    2.63
  -1   6  21    9.03    2.33
  -1   6 -21   12.28    2.12
   1   6  21   10.59    2.07
  -1  -6  21   12.95    2.81
   1   6  21   13.11    2.26
  -2   6  21   33.53    3.54
   2  -6  21   34.39    3.58
  -2   6  21   40.03    3.43
  -2  -6  21   22.65    3.66
   2   6  21   27.69    3.21
  -2   6 -21   28.55    3.23
  -3   6  21   20.95    2.83
   3  -6  21   16.57    2.64
  -3   6  21   13.13    2.72
  -3   6 -21   17.73    2.57
   3   6  21   17.02    2.47
  -3  -6  21   16.14    3.12
   4  -6  21   -2.63    1.79
  -4   6  21    0.09    2.09
  -4   6  21    0.94    2.29
  -4  -6  21    1.16    2.43
  -4   6 -21   -1.75    1.88
   4   6  21    1.84    1.95
  -5   6  21    5.47    2.65
  -5  -6  21    6.61    2.56
  -5   6 -21    1.14    2.15
   0  -7  21   16.52    3.01
   0   7 -21   15.17    2.30
   0   7  21   11.28    2.25
  -1   7  21   21.26    2.84
   1  -7  21   23.67    3.31
   1   7  21   19.60    2.61
  -1  -7  21   19.22    3.35
  -1   7 -21   24.97    2.77
  -2   7  21    1.44    2.05
   2  -7  21    2.46    2.27
  -2   7 -21    3.92    1.98
  -2  -7  21    6.12    2.65
   2   7  21    2.63    2.00
  -3   7  21    4.65    2.35
   3  -7  21    2.72    2.13
   3   7  21    4.20    1.98
  -3  -7  21   -0.21    2.49
  -3   7 -21    5.50    2.07
  -4   7  21   23.34    3.41
   4  -7  21   19.72    2.98
  -4   7 -21   26.87    3.22
  -4  -7  21   26.68    3.65
   4   7  21   28.11    3.15
   0   8  21    3.59    2.03
   0   8 -21    3.69    1.90
   0  -8  21    1.85    2.58
   1  -8  21    9.13    2.87
  -1   8  21   11.82    2.44
  -1   8 -21    8.26    2.16
  -1  -8  21    7.93    2.88
   1   8  21   10.20    2.25
  -2   8  21   11.05    2.55
   2  -8  21    9.17    2.76
  -2   8 -21   17.74    2.59
  -2  -8  21   12.61    3.17
   2   8  21   14.97    2.51
   3  -8  21    0.38    2.27
  -3   8  21   -0.36    2.24
  -3  -8  21    2.62    2.60
   3   8  21   -0.68    1.98
  -3   8 -21    1.59    2.11
   0   9 -21   24.95    3.09
   0   9  21   26.49    3.15
   0  -9  21   25.91    3.86
  -1   9  21    1.96    2.21
   1   9 -21   -0.13    1.96
   1  -9  21   -0.98    2.51
  -1   9 -21    4.17    2.12
  -1  -9  21    1.52    2.70
   1   9  21   -0.15    2.03
  -2   9  21    1.25    2.23
   2  -9  21   -0.08    2.50
  -2  -9  21    0.76    2.62
   2   9  21   -1.90    2.07
  -2   9 -21    2.01    2.07
   0   0  22  113.61    8.47
  -1   0  22    8.83    2.27
   1   0  22   10.10    2.17
  -2   0  22    2.39    2.10
   2   0  22    2.51    1.85
  -3   0  22    2.87    2.19
   3   0  22    2.01    1.78
  -4   0  22   11.43    2.67
   4   0  22   11.14    2.17
  -5   0  22   15.37    2.93
  -6   0  22    3.85    2.41
   0  -1  22    1.90    1.95
   0   1  22    3.24    1.94
   1  -1  22    4.29    1.97
  -1   1  22    7.72    2.17
  -1  -1  22    5.10    2.14
   1   1  22    4.66    1.98
   2  -1  22   49.86    4.35
  -2   1  22   49.85    4.55
  -2  -1  22   38.95    4.25
   2   1  22   36.93    4.28
   3  -1  22    2.38    1.79
  -3   1  22   -1.34    2.09
   3   1  22   -0.60    1.69
  -3  -1  22    0.28    2.11
   4  -1  22   11.48    2.19
  -4   1  22   13.62    2.76
  -4  -1  22   17.79    2.89
   4   1  22   14.41    2.26
  -5   1  22    2.82    2.36
  -5   1 -22    4.71    2.16
  -5  -1  22    4.52    2.38
  -6   1  22    6.34    2.48
  -6  -1  22    9.70    2.61
   0   2  22   55.59    4.92
   0  -2  22   52.64    5.04
   1  -2  22    3.10    1.99
  -1   2  22    3.40    2.06
   1   2  22    3.42    1.89
  -1  -2  22    7.09    2.23
   2  -2  22    1.48    1.88
  -2   2  22    1.18    2.09
   2   2  22    2.09    1.80
  -2  -2  22    5.20    2.32
  -3   2  22    6.49    2.35
   3  -2  22    6.41    1.97
   3   2  22    6.55    1.94
  -3  -2  22    2.77    2.30
  -4   2  22   20.24    3.18
   4  -2  22   23.94    2.90
  -4   2 -22   30.79    3.17
  -4  -2  22   27.72    3.58
   4   2  22   23.87    2.79
  -5   2  22    0.97    2.25
  -5   2 -22    1.25    2.04
  -5  -2  22   -2.16    2.20
   0   3  22    0.60    1.87
   0  -3  22    1.79    2.04
  -1   3  22   10.34    2.34
   1  -3  22    9.14    2.33
   1   3  22   12.85    2.27
  -1  -3  22    8.30    2.46
  -2   3  22   34.89    3.52
   2  -3  22   29.83    3.18
  -2  -3  22   22.70    3.40
   2   3  22   24.47    3.00
   3  -3  22   -1.01    1.81
  -3   3  22   -0.67    2.09
  -3   3  22    0.73    1.92
   3   3  22   -1.26    1.68
  -3  -3  22    0.99    2.32
  -3   3 -22    1.28    1.73
  -4   3  22   13.49    2.83
   4  -3  22   14.14    2.35
  -4   3  22   11.55    2.52
   4   3  22   13.83    2.25
  -4   3 -22   17.74    2.54
  -4  -3  22   15.55    2.98
  -5   3  22    6.70    2.55
  -5   3  22    6.25    2.48
  -5   3 -22    7.03    2.34
  -5  -3  22    6.63    2.62
   0   4  22    7.44    2.09
   0  -4  22    9.82    2.45
  -1   4  22    3.03    2.00
  -1   4  22    3.64    1.81
   1  -4  22    0.19    2.05
  -1  -4  22    1.27    2.20
   1   4  22    3.51    1.91
  -2   4  22   11.43    2.18
   2  -4  22   12.49    2.42
  -2   4  22   15.36    2.59
  -2  -4  22   12.85    2.85
   2   4  22   12.36    2.27
  -3   4  22   12.59    2.63
   3  -4  22   12.91    2.36
  -3   4  22   12.97    2.45
  -3  -4  22    9.90    2.74
  -3   4 -22   10.63    2.20
   3   4  22    9.50    2.12
  -4   4  22   30.45    3.27
   4  -4  22   26.48    2.98
  -4   4  22   21.85    3.26
   4   4  22   21.13    2.73
  -4   4 -22   25.83    3.09
  -4  -4  22   21.64    3.45
  -5   4  22    9.48    2.65
  -5   4  22    9.66    2.79
  -5  -4  22   10.92    2.80
  -5   4 -22   10.68    2.46
   0  -5  22   -0.69    2.15
   0   5  22    1.11    1.92
   0   5  22   -2.82    1.57
  -1   5  22    4.94    1.98
   1  -5  22    3.33    2.27
  -1   5  22    7.47    2.21
   1   5  22    8.55    2.16
  -1  -5  22    5.66    2.50
   1   5  22    5.17    1.84
  -2   5  22   11.60    2.61
   2  -5  22   12.10    2.58
  -2   5  22   12.94    2.45
  -2   5 -22   18.41    2.41
  -2  -5  22   16.03    3.04
   2   5  22   15.93    2.42
   3  -5  22    3.47    2.01
  -3   5  22    0.50    2.13
  -3   5  22   -0.13    2.18
  -3   5 -22    0.81    1.84
   3   5  22    0.37    1.71
  -3  -5  22   -0.29    2.45
  -4   5  22   -2.46    2.20
  -4   5  22   -1.86    2.19
   4  -5  22   -0.85    1.85
  -4   5 -22   -1.38    1.93
  -4  -5  22   -2.12    2.38
   0  -6  22   27.72    3.51
   0   6  22   22.79    2.76
   0   6  22   21.46    2.95
  -1   6  22    9.98    2.35
   1  -6  22    2.58    2.39
  -1   6  22    6.75    2.20
  -1  -6  22   10.78    2.81
   1   6  22    9.33    2.12
   1   6  22    7.41    2.02
  -2   6  22    5.50    2.32
   2  -6  22    4.56    2.28
  -2   6  22    7.39    2.20
   2   6  22    2.38    1.99
  -2   6 -22    3.03    1.92
  -2  -6  22    0.56    2.55
   3  -6  22    0.43    2.10
  -3   6  22    0.98    2.18
  -3   6  22    1.18    2.25
  -3  -6  22    2.23    2.61
  -3   6 -22    1.59    1.96
  -4   6  22   13.66    2.87
  -4   6  22   12.21    2.76
   4  -6  22   14.53    2.53
  -4  -6  22   16.92    3.14
  -4   6 -22   13.86    2.58
   0   7  22    5.93    2.06
   0  -7  22    5.54    2.70
  -1   7  22   -0.73    2.02
   1  -7  22   -1.38    2.33
   1   7  22    2.07    1.97
  -1  -7  22    2.83    2.66
  -1   7 -22    1.23    1.84
  -2   7  22   18.75    2.92
   2  -7  22   19.69    3.16
  -2  -7  22   24.86    3.64
  -2   7 -22   25.51    3.00
   2   7  22   20.85    2.89
   3  -7  22    2.95    2.28
  -3   7  22    5.09    2.42
  -3  -7  22    3.08    2.64
   3   7  22    3.48    2.04
  -3   7 -22    5.04    2.16
   0   8  22   19.80    2.70
   0  -8  22   12.87    3.21
   1  -8  22    3.15    2.63
  -1   8  22    7.41    2.36
  -1   8 -22    4.67    2.06
  -1  -8  22   -1.97    2.55
   1   8  22    4.23    2.12
   2  -8  22    0.39    2.48
  -2   8  22    6.51    2.41
  -2   8 -22    3.63    2.14
   2   8  22    3.09    2.20
  -2  -8  22    2.79    2.73
   0   0  23    9.82    2.29
   1   0  23   20.72    2.82
  -1   0  23   17.45    2.89
  -2   0  23   38.99    4.22
   2   0  23   45.35    4.29
  -3   0  23   -0.70    2.24
   3   0  23    1.16    1.91
  -4   0  23    2.76    2.45
   4   0  23    1.67    1.87
  -5   0  23    2.67    2.42
   0   1  23   14.19    2.60
   0  -1  23   18.43    2.75
  -1   1  23   16.38    2.65
   1  -1  23   10.61    2.38
   1   1  23    9.46    2.35
  -1  -1  23   10.21    2.49
  -2   1  23   17.71    2.91
   2  -1  23   20.70    2.71
  -2  -1  23   13.97    2.86
   2   1  23   18.55    2.69
  -3   1  23    3.91    2.37
   3  -1  23    3.75    1.96
  -3  -1  23    3.12    2.41
   3   1  23    2.71    1.92
  -4   1  23   20.49    3.26
   4  -1  23   19.90    2.67
  -4  -1  23   23.35    3.40
   4   1  23   19.06    2.65
  -5   1  23    4.97    2.63
  -5  -1  23   10.15    2.74
   0  -2  23    4.86    2.27
   0   2  23    7.04    2.18
   1  -2  23   11.21    2.47
  -1   2  23   11.75    2.58
   1   2  23   13.59    2.46
  -1  -2  23   15.15    2.79
  -2   2  23   26.55    3.27
   2  -2  23   25.17    2.95
  -2  -2  23   19.23    3.24
   2   2  23   19.48    2.79
   3  -2  23   20.21    2.71
  -3   2  23   14.80    2.94
  -3  -2  23   21.56    3.28
   3   2  23   18.58    2.62
  -4   2  23    4.22    2.47
   4  -2  23    6.12    2.02
   4   2  23    4.47    1.89
  -4  -2  23    0.46    2.42
  -5   2  23    4.22    2.48
  -5  -2  23    3.76    2.49
  -5   2 -23    4.96    2.30
   0  -3  23   12.90    2.64
   0   3  23    8.84    2.34
  -1   3  23   23.47    3.10
   1  -3  23   23.64    3.08
  -1  -3  23   23.24    3.28
   1   3  23   19.13    2.86
   2  -3  23    3.13    2.08
  -2   3  23    1.67    2.24
  -2  -3  23    0.68    2.39
   2   3  23    3.54    1.98
  -3   3  23    4.70    2.41
   3  -3  23    0.83    1.96
   3   3  23    1.47    1.84
  -3  -3  23    3.31    2.56
  -4   3  23    6.85    2.66
   4  -3  23    8.06    2.16
  -4  -3  23    7.66    2.76
   4   3  23    9.66    2.10
   0  -4  23    0.98    2.23
   0   4  23    1.39    2.01
  -1   4  23    3.72    2.15
   1  -4  23    4.86    2.28
  -1  -4  23    1.53    2.37
   1   4  23    1.43    1.95
   2  -4  23    4.38    2.15
  -2   4  23    5.30    2.33
  -2  -4  23    4.18    2.54
   2   4  23    4.84    2.00
  -3   4  23   12.48    2.79
   3  -4  23   12.81    2.52
  -3   4  23   17.41    2.64
   3   4  23   13.09    2.35
  -3  -4  23   15.04    3.14
  -4   4  23    0.36    2.20
  -4   4  23    1.38    2.34
   4  -4  23    2.30    1.98
   4   4  23    0.46    1.74
  -4  -4  23    0.15    2.50
  -4   4 -23    2.16    2.02
   0  -5  23   51.57    5.26
   0   5  23   52.23    4.89
   1  -5  23    1.58    2.27
  -1   5  23    2.59    2.00
  -1   5  23    3.81    2.21
  -1  -5  23    2.57    2.53
   1   5  23    5.08    2.08
  -2   5  23    0.75    1.96
  -2   5  23    0.21    2.22
   2  -5  23    0.50    2.13
  -2  -5  23    1.57    2.57
   2   5  23    2.19    1.98
  -3   5  23    0.52    2.20
   3  -5  23    2.89    2.16
  -3   5  23    3.24    2.37
  -3  -5  23    4.77    2.71
  -3   5 -23    2.65    2.00
  -4   5  23    3.48    2.52
  -4  -5  23    3.79    2.62
   0   6  23   10.48    2.48
   0   6  23   14.48    2.38
   0  -6  23   18.81    3.16
   1  -6  23    5.62    2.63
  -1   6  23    8.31    2.41
  -1   6  23    7.57    2.22
   1   6  23   10.71    2.22
  -1  -6  23    7.35    2.82
  -2   6  23    1.30    2.28
  -2   6  23    3.00    2.14
   2  -6  23   -0.27    2.25
  -2  -6  23    6.15    2.79
   3  -6  23    3.53    2.23
  -3   6  23    5.26    2.39
  -3   6  23    3.27    2.43
  -3   6 -23    6.53    2.26
  -3  -6  23    6.52    2.87
   0   7  23    1.41    2.01
   0  -7  23    4.30    2.72
   1  -7  23    1.26    2.54
  -1   7  23    7.36    2.33
  -1  -7  23    5.82    2.85
   1   7  23    9.24    2.18
  -2   7  23   -1.05    2.25
   2  -7  23   -1.14    2.36
   2   7  23    2.36    2.10
  -2  -7  23    4.78    2.82
  -2   7 -23    2.37    2.07
   0   0  24   12.10    2.57
   1   0  24   18.37    2.80
  -1   0  24   19.32    3.00
  -2   0  24    2.09    2.38
   2   0  24    3.10    2.05
   3   0  24    8.46    2.32
  -3   0  24    7.13    2.69
  -4   0  24   -2.25    2.38
   4   0  24   -0.37    1.86
   0  -1  24    1.16    2.16
   0   1  24    1.18    2.16
  -1   1  24    2.39    2.27
   1  -1  24    3.92    2.12
   1   1  24    0.85    2.07
  -1  -1  24    2.61    2.30
  -2   1  24   10.79    2.69
   2  -1  24    6.40    2.29
  -2  -1  24    9.59    2.73
   2   1  24   11.87    2.40
  -3   1  24   32.48    4.00
   3  -1  24   29.98    3.53
  -3  -1  24   39.27    4.22
   3   1  24   36.26    3.61
  -4   1  24    7.01    2.77
   4  -1  24    4.92    2.06
   4   1  24    5.70    2.09
  -4  -1  24    5.91    2.72
   0  -2  24   -1.51    2.14
   0   2  24    0.22    2.11
  -1   2  24   12.82    2.68
   1  -2  24   10.15    2.50
   1   2  24   10.88    2.49
  -1  -2  24   16.23    2.90
   2  -2  24    0.25    2.04
  -2   2  24    2.09    2.33
   2   2  24    2.47    2.05
  -2  -2  24    0.40    2.44
   3  -2  24    0.66    2.03
  -3   2  24    1.82    2.38
   3   2  24    3.84    2.07
  -3  -2  24   -0.32    2.45
   4  -2  24    7.00    2.12
  -4   2  24    5.25    2.67
   4   2  24    6.83    2.12
  -4  -2  24    5.62    2.71
   0  -3  24   10.25    2.70
   0   3  24    9.35    2.51
   1  -3  24   19.15    2.96
  -1   3  24   16.93    2.91
   1   3  24   16.71    2.76
  -1  -3  24   12.20    2.97
   2  -3  24    5.73    2.35
  -2   3  24    6.22    2.53
   2   3  24    6.31    2.18
  -2  -3  24   12.05    2.94
   3  -3  24    1.78    2.08
  -3   3  24    3.53    2.51
   3   3  24    5.24    2.04
  -3  -3  24    6.76    2.80
   0   4  24    7.76    2.34
   0  -4  24    1.39    2.43
  -1   4  24   18.36    2.97
   1  -4  24   16.51    2.99
  -1  -4  24   17.28    3.20
   1   4  24   17.22    2.72
   2  -4  24    0.72    2.20
  -2   4  24    1.13    2.29
   2   4  24    5.23    2.12
  -2  -4  24    2.47    2.58
   3  -4  24    0.81    2.11
  -3   4  24    2.64    2.43
  -3  -4  24    2.10    2.69
   3   4  24    1.50    1.94
   0   5  24    2.13    2.15
   0  -5  24    1.95    2.46
  -1   5  24   37.01    3.79
   1  -5  24   26.96    3.66
   1   5  24   26.73    3.40
  -1  -5  24   32.43    4.00
   2  -5  24    9.02    2.61
  -2   5  24    7.93    2.64
   2   5  24    8.18    2.29
  -2  -5  24    4.31    2.78
   0  -6  24    1.67    2.62
   0   6  24    0.93    2.10
  -1   6  24    8.01    2.46
   1  -6  24    5.36    2.70
  -1  -6  24    4.47    2.86
   0   0  25   -0.87    2.21
  -1   0  25   -0.39    2.25
   1   0  25    1.36    2.18
  -2   0  25   12.13    2.87
   2   0  25   11.88    2.61
   3   0  25   13.35    2.59
  -3   0  25   11.05    2.99
   0  -1  25    1.18    2.28
   0   1  25   -1.33    2.23
  -1   1  25   21.06    3.28
   1  -1  25   19.81    3.08
   1   1  25   22.58    3.18
  -1  -1  25   24.83    3.46
   2  -1  25    2.49    2.23
  -2   1  25    2.68    2.53
  -2  -1  25    4.02    2.54
   2   1  25    3.83    2.20
   3  -1  25    9.15    2.43
  -3   1  25    5.53    2.85
   3   1  25   11.29    2.44
  -3  -1  25    9.27    2.95
   0   2  25   10.09    2.58
   0  -2  25    8.10    2.64
   1  -2  25   16.11    2.95
  -1   2  25   17.74    3.06
   1   2  25   18.87    2.98
  -1  -2  25   17.89    3.17
   2  -2  25   -0.10    2.20
  -2   2  25    1.40    2.42
  -2  -2  25   -0.14    2.47
   2   2  25    0.86    2.16
   0   3  25    1.85    2.26
   0  -3  25   -1.34    2.37
   1  -3  25   22.37    3.37
  -1   3  25   20.91    3.32
  -1  -3  25   28.84    3.73
   1   3  25   27.45    3.29
   2  -3  25    0.03    2.23
  -2   3  25    0.34    2.47
   2   3  25    0.67    2.07
  -2  -3  25   -1.22    2.57
   0  -4  25   -0.63    2.46
   0   4  25   -0.70    2.21
   1  -4  25    5.95    2.62
  -1   4  25    7.32    2.51
   1   4  25    5.80    2.31
  -1  -4  25    4.78    2.84
   0   0  26   -0.39    2.33
   0   0   0    0.00    0.00
;
_shelx_hkl_checksum              16889
_olex2_submission_special_instructions 'No special instructions were received'
loop_
_space_group_symop_operation_xyz
'x, y, z'
'x+1/2, -y+1/2, -z'
'-x, y+1/2, -z+1/2'
'-x+1/2, -y, z+1/2'
loop_
_atom_site_label
_atom_site_type_symbol
_atom_site_fract_x
_atom_site_fract_y
_atom_site_fract_z
_atom_site_U_iso_or_equiv
_atom_site_adp_type
_atom_site_occupancy
_atom_site_site_symmetry_order
_atom_site_calc_flag
_atom_site_refinement_flags_posn
Br1 Br 0.85549(5) 0.75946(3) -0.09119(2) 0.02709(10) Uani 1 1 d .
S1 S 0.53968(10) 0.85707(7) 0.27856(4) 0.01797(17) Uani 1 1 d .
O1 O 0.8571(3) 0.8449(2) 0.35253(11) 0.0251(5) Uani 1 1 d .
O2 O 0.5883(3) 0.7378(2) 0.27158(12) 0.0248(5) Uani 1 1 d .
O3 O 0.4144(3) 0.9024(2) 0.22985(13) 0.0243(5) Uani 1 1 d .
N1 N 0.7081(3) 0.9441(2) 0.26523(13) 0.0165(6) Uani 1 1 d .
C1 C 0.8542(5) 0.9199(3) 0.30490(16) 0.0203(6) Uani 1 1 d .
C2 C 1.0012(4) 0.9931(3) 0.28781(19) 0.0257(8) Uani 1 1 d .
H2 H 1.1087 0.9710 0.3064 0.031 Uiso 1 1 calc R
C3 C 0.9891(5) 1.0882(3) 0.24756(18) 0.0269(8) Uani 1 1 d .
H3 H 1.0868 1.1347 0.2399 0.032 Uiso 1 1 calc R
C4 C 0.8272(5) 1.1246(3) 0.21393(18) 0.0241(8) Uani 1 1 d .
H4A H 0.8505 1.1645 0.1667 0.029 Uiso 1 1 calc R
H4B H 0.7706 1.1811 0.2470 0.029 Uiso 1 1 calc R
C5 C 0.7084(4) 1.0218(3) 0.19990(17) 0.0179(7) Uani 1 1 d .
H5 H 0.5917 1.0540 0.1943 0.021 Uiso 1 1 calc R
C6 C 0.7503(4) 0.9554(3) 0.12956(17) 0.0165(6) Uani 1 1 d .
C7 C 0.6973(4) 1.0016(3) 0.06274(19) 0.0218(7) Uani 1 1 d .
H7 H 0.6389 1.0740 0.0623 0.026 Uiso 1 1 calc R
C8 C 0.7277(4) 0.9449(3) -0.00318(16) 0.0227(7) Uani 1 1 d .
H8 H 0.6894 0.9771 -0.0484 0.027 Uiso 1 1 calc R
C9 C 0.8145(4) 0.8406(3) -0.00200(15) 0.0200(7) Uani 1 1 d .
C10 C 0.8740(4) 0.7940(3) 0.06306(17) 0.0193(7) Uani 1 1 d .
H10 H 0.9380 0.7239 0.0628 0.023 Uiso 1 1 calc R
C11 C 0.8392(4) 0.8507(3) 0.12910(17) 0.0197(6) Uani 1 1 d .
H11 H 0.8766 0.8178 0.1743 0.024 Uiso 1 1 calc R
C12 C 0.4766(4) 0.8852(3) 0.36934(17) 0.0169(6) Uani 1 1 d .
C13 C 0.5002(4) 0.8015(3) 0.42284(18) 0.0225(7) Uani 1 1 d .
H13 H 0.5579 0.7311 0.4114 0.027 Uiso 1 1 calc R
C14 C 0.4392(5) 0.8207(3) 0.49349(17) 0.0231(7) Uani 1 1 d .
H14 H 0.4540 0.7629 0.5304 0.028 Uiso 1 1 calc R
C15 C 0.3566(4) 0.9244(3) 0.51051(16) 0.0184(6) Uani 1 1 d .
C16 C 0.3367(4) 1.0083(3) 0.45541(18) 0.0205(7) Uani 1 1 d .
H16 H 0.2812 1.0796 0.4665 0.025 Uiso 1 1 calc R
C17 C 0.3966(4) 0.9890(3) 0.38509(17) 0.0183(7) Uani 1 1 d .
H17 H 0.3827 1.0466 0.3479 0.022 Uiso 1 1 calc R
C18 C 0.2947(4) 0.9479(3) 0.58693(17) 0.0239(7) Uani 1 1 d .
H18A H 0.3667 1.0069 0.6102 0.036 Uiso 1 1 calc GR
H18B H 0.2988 0.8757 0.6158 0.036 Uiso 1 1 calc GR
H18C H 0.1781 0.9764 0.5849 0.036 Uiso 1 1 calc GR
loop_
_atom_site_aniso_label
_atom_site_aniso_U_11
_atom_site_aniso_U_22
_atom_site_aniso_U_33
_atom_site_aniso_U_23
_atom_site_aniso_U_13
_atom_site_aniso_U_12
Br1 0.03379(19) 0.02881(18) 0.01868(15) -0.00651(14) 0.00673(14) -0.00649(17)
S1 0.0171(4) 0.0197(4) 0.0171(4) -0.0021(3) 0.0002(3) -0.0042(3)
O1 0.0261(13) 0.0297(13) 0.0195(11) 0.0046(9) -0.0037(11) 0.0009(13)
O2 0.0296(12) 0.0173(11) 0.0275(11) -0.0059(10) 0.0045(10) -0.0031(11)
O3 0.0192(12) 0.0340(14) 0.0198(11) -0.0013(10) -0.0033(10) -0.0033(11)
N1 0.0155(13) 0.0193(13) 0.0146(13) 0.0027(10) -0.0004(10) -0.0025(11)
C1 0.0199(16) 0.0242(16) 0.0169(14) -0.0039(12) 0.0014(14) 0.0016(16)
C2 0.0167(17) 0.038(2) 0.0223(18) -0.0032(15) -0.0014(14) -0.0061(15)
C3 0.027(2) 0.031(2) 0.0226(17) -0.0099(14) 0.0050(14) -0.0145(16)
C4 0.034(2) 0.0160(15) 0.0225(16) -0.0038(13) 0.0072(15) -0.0057(15)
C5 0.0197(17) 0.0170(16) 0.0169(15) 0.0009(12) 0.0028(13) 0.0004(13)
C6 0.0160(15) 0.0178(15) 0.0157(14) 0.0003(12) 0.0021(13) -0.0033(13)
C7 0.0237(18) 0.0199(16) 0.0217(16) 0.0017(13) 0.0012(14) 0.0031(14)
C8 0.0255(18) 0.0289(19) 0.0139(16) 0.0038(13) 0.0001(14) -0.0033(15)
C9 0.0190(16) 0.0256(17) 0.0153(15) -0.0034(12) 0.0046(12) -0.0080(14)
C10 0.0184(17) 0.0207(15) 0.0188(14) -0.0018(12) 0.0002(13) 0.0032(13)
C11 0.0193(17) 0.0211(15) 0.0187(14) -0.0013(12) -0.0025(14) 0.0007(15)
C12 0.0129(15) 0.0193(15) 0.0184(15) -0.0010(12) 0.0003(13) -0.0050(13)
C13 0.0231(18) 0.0167(15) 0.0276(18) 0.0018(13) 0.0054(14) 0.0011(13)
C14 0.0252(18) 0.0213(17) 0.0229(17) 0.0048(13) 0.0021(14) -0.0012(15)
C15 0.0124(14) 0.0223(16) 0.0204(15) -0.0014(12) 0.0000(14) -0.0057(14)
C16 0.0163(17) 0.0214(15) 0.0238(17) -0.0014(12) -0.0040(14) 0.0021(15)
C17 0.0179(17) 0.0185(15) 0.0184(15) 0.0008(12) -0.0041(12) 0.0001(13)
C18 0.0234(17) 0.0267(17) 0.0214(16) -0.0018(15) 0.0018(15) -0.0046(14)
loop_
_atom_type_symbol
_atom_type_description
_atom_type_scat_dispersion_real
_atom_type_scat_dispersion_imag
_atom_type_scat_source
C C 0.0033 0.0016 'International Tables Vol C Tables 4.2.6.8 and 6.1.1.4'
H H 0.0000 0.0000 'International Tables Vol C Tables 4.2.6.8 and 6.1.1.4'
Br Br -0.2901 2.4595 'International Tables Vol C Tables 4.2.6.8 and 6.1.1.4'
N N 0.0061 0.0033 'International Tables Vol C Tables 4.2.6.8 and 6.1.1.4'
O O 0.0106 0.0060 'International Tables Vol C Tables 4.2.6.8 and 6.1.1.4'
S S 0.1246 0.1234 'International Tables Vol C Tables 4.2.6.8 and 6.1.1.4'
loop_
_geom_angle_atom_site_label_1
_geom_angle_atom_site_label_2
_geom_angle_atom_site_label_3
_geom_angle
O2 S1 O3 118.80(14)
O2 S1 N1 110.02(14)
O2 S1 C12 109.68(15)
O3 S1 N1 104.22(14)
O3 S1 C12 108.54(15)
N1 S1 C12 104.58(14)
C1 N1 S1 117.8(2)
C1 N1 C5 122.2(3)
C5 N1 S1 118.2(2)
O1 C1 N1 121.6(3)
O1 C1 C2 122.5(3)
N1 C1 C2 115.8(3)
C1 C2 H2 118.9
C3 C2 C1 122.2(3)
C3 C2 H2 118.9
C2 C3 H3 119.1
C2 C3 C4 121.7(3)
C4 C3 H3 119.1
C3 C4 H4A 109.1
C3 C4 H4B 109.1
C3 C4 C5 112.6(3)
H4A C4 H4B 107.8
C5 C4 H4A 109.1
C5 C4 H4B 109.1
N1 C5 C4 109.3(3)
N1 C5 H5 107.5
N1 C5 C6 111.7(3)
C4 C5 H5 107.5
C6 C5 C4 113.0(3)
C6 C5 H5 107.5
C7 C6 C5 118.4(3)
C7 C6 C11 118.5(3)
C11 C6 C5 123.1(3)
C6 C7 H7 119.2
C8 C7 C6 121.6(3)
C8 C7 H7 119.2
C7 C8 H8 120.6
C9 C8 C7 118.7(3)
C9 C8 H8 120.6
C8 C9 Br1 119.8(2)
C10 C9 Br1 118.9(3)
C10 C9 C8 121.3(3)
C9 C10 H10 120.4
C9 C10 C11 119.3(3)
C11 C10 H10 120.4
C6 C11 C10 120.6(3)
C6 C11 H11 119.7
C10 C11 H11 119.7
C13 C12 S1 119.8(3)
C13 C12 C17 121.2(3)
C17 C12 S1 119.0(2)
C12 C13 H13 120.2
C12 C13 C14 119.6(3)
C14 C13 H13 120.2
C13 C14 H14 119.9
C13 C14 C15 120.3(3)
C15 C14 H14 119.9
C14 C15 C16 118.8(3)
C14 C15 C18 120.9(3)
C16 C15 C18 120.2(3)
C15 C16 H16 119.5
C17 C16 C15 120.9(3)
C17 C16 H16 119.5
C12 C17 C16 119.2(3)
C12 C17 H17 120.4
C16 C17 H17 120.4
C15 C18 H18A 109.5
C15 C18 H18B 109.5
C15 C18 H18C 109.5
H18A C18 H18B 109.5
H18A C18 H18C 109.5
H18B C18 H18C 109.5
loop_
_geom_bond_atom_site_label_1
_geom_bond_atom_site_label_2
_geom_bond_distance
Br1 C9 1.895(3)
S1 O2 1.426(2)
S1 O3 1.427(2)
S1 N1 1.683(3)
S1 C12 1.752(3)
O1 C1 1.220(4)
N1 C1 1.390(4)
N1 C5 1.483(4)
C1 C2 1.468(5)
C2 H2 0.9500
C2 C3 1.317(5)
C3 H3 0.9500
C3 C4 1.479(5)
C4 H4A 0.9900
C4 H4B 0.9900
C4 C5 1.528(5)
C5 H5 1.0000
C5 C6 1.523(4)
C6 C7 1.389(5)
C6 C11 1.391(4)
C7 H7 0.9500
C7 C8 1.383(5)
C8 H8 0.9500
C8 C9 1.380(5)
C9 C10 1.379(4)
C10 H10 0.9500
C10 C11 1.392(4)
C11 H11 0.9500
C12 C13 1.378(4)
C12 C17 1.379(4)
C13 H13 0.9500
C13 C14 1.388(4)
C14 H14 0.9500
C14 C15 1.391(5)
C15 C16 1.397(4)
C15 C18 1.496(4)
C16 H16 0.9500
C16 C17 1.379(5)
C17 H17 0.9500
C18 H18A 0.9800
C18 H18B 0.9800
C18 H18C 0.9800
loop_
_geom_hbond_atom_site_label_D
_geom_hbond_atom_site_label_H
_geom_hbond_atom_site_label_A
_geom_hbond_distance_DH
_geom_hbond_distance_HA
_geom_hbond_distance_DA
_geom_hbond_angle_DHA
_geom_hbond_site_symmetry_A
C5 H5 O2 1.00 2.62 3.452(4) 140.9 3_655
C14 H14 O1 0.95 2.58 3.441(4) 151.7 2_466
loop_
_geom_torsion_atom_site_label_1
_geom_torsion_atom_site_label_2
_geom_torsion_atom_site_label_3
_geom_torsion_atom_site_label_4
_geom_torsion
Br1 C9 C10 C11 -177.7(3)
S1 N1 C1 O1 -6.3(4)
S1 N1 C1 C2 176.0(2)
S1 N1 C5 C4 156.7(2)
S1 N1 C5 C6 -77.4(3)
S1 C12 C13 C14 -175.4(3)
S1 C12 C17 C16 175.7(3)
O1 C1 C2 C3 -166.1(3)
O2 S1 N1 C1 -50.5(3)
O2 S1 N1 C5 114.4(2)
O2 S1 C12 C13 8.3(3)
O2 S1 C12 C17 -168.5(2)
O3 S1 N1 C1 -178.9(2)
O3 S1 N1 C5 -14.0(3)
O3 S1 C12 C13 139.6(3)
O3 S1 C12 C17 -37.3(3)
N1 S1 C12 C13 -109.6(3)
N1 S1 C12 C17 73.5(3)
N1 C1 C2 C3 11.6(5)
N1 C5 C6 C7 156.8(3)
N1 C5 C6 C11 -23.3(4)
C1 N1 C5 C4 -39.1(4)
C1 N1 C5 C6 86.8(4)
C1 C2 C3 C4 -2.9(5)
C2 C3 C4 C5 -26.4(5)
C3 C4 C5 N1 44.2(4)
C3 C4 C5 C6 -80.9(3)
C4 C5 C6 C7 -79.4(4)
C4 C5 C6 C11 100.5(4)
C5 N1 C1 O1 -170.6(3)
C5 N1 C1 C2 11.7(4)
C5 C6 C7 C8 -178.6(3)
C5 C6 C11 C10 -179.9(3)
C6 C7 C8 C9 -0.8(5)
C7 C6 C11 C10 0.0(5)
C7 C8 C9 Br1 179.1(3)
C7 C8 C9 C10 -1.4(5)
C8 C9 C10 C11 2.8(5)
C9 C10 C11 C6 -2.1(5)
C11 C6 C7 C8 1.5(5)
C12 S1 N1 C1 67.3(3)
C12 S1 N1 C5 -127.8(2)
C12 C13 C14 C15 -0.8(5)
C13 C12 C17 C16 -1.1(5)
C13 C14 C15 C16 -0.1(5)
C13 C14 C15 C18 -178.2(3)
C14 C15 C16 C17 0.5(5)
C15 C16 C17 C12 0.1(5)
C17 C12 C13 C14 1.4(5)
C18 C15 C16 C17 178.5(3)
