#------------------------------------------------------------------------------
#$Date: 2015-12-09 14:04:27 +0200 (Wed, 09 Dec 2015) $
#$Revision: 170991 $
#$URL: svn://www.crystallography.net/cod/cif/1/52/93/1529328.cif $
#------------------------------------------------------------------------------
#
# This file is available in the Crystallography Open Database (COD),
# http://www.crystallography.net/
#
# All data on this site have been placed in the public domain by the
# contributors.
#
data_1529328
loop_
_publ_author_name
'Chitnis, Saurabh S.'
'Robertson, Alasdair P. M.'
'Burford, Neil'
'Patrick, Brian O.'
'McDonald, Robert'
'Ferguson, Michael J.'
_publ_section_title
;
 Bipyridine complexes of E3+(E = P, As, Sb, Bi): strong Lewis acids,
 sources of E(OTf)3and synthons for EIand EVcations
;
_journal_issue                   11
_journal_name_full               'Chem. Sci.'
_journal_page_first              6545
_journal_paper_doi               10.1039/C5SC02423D
_journal_volume                  6
_journal_year                    2015
_chemical_formula_moiety         'C21 H30 N6 P, 3(C F3 O3 S), 1.5(C2 H3 N)'
_chemical_formula_sum            'C27 H34.5 F9 N7.5 O9 P S3'
_chemical_formula_weight         906.27
_space_group_crystal_system      triclinic
_space_group_IT_number           2
_space_group_name_Hall           '-P 1'
_space_group_name_H-M_alt        'P -1'
_symmetry_space_group_name_Hall  '-P 1'
_symmetry_space_group_name_H-M   'P -1'
_atom_sites_solution_hydrogens   geom
_audit_creation_method           SHELXL-2014/7
_audit_update_record
;
2015-07-05 deposited with the CCDC.
2015-08-03 downloaded from the CCDC.
;
_cell_angle_alpha                76.0415(7)
_cell_angle_beta                 87.9220(7)
_cell_angle_gamma                73.5660(7)
_cell_formula_units_Z            4
_cell_length_a                   13.2699(7)
_cell_length_b                   15.7880(8)
_cell_length_c                   20.4958(10)
_cell_measurement_reflns_used    9948
_cell_measurement_temperature    193(2)
_cell_measurement_theta_max      26.55
_cell_measurement_theta_min      2.20
_cell_volume                     3994.6(4)
_computing_cell_refinement       'Bruker SAINT'
_computing_data_collection       'Bruker APEX2'
_computing_data_reduction        'Bruker SAINT'
_computing_molecular_graphics    'Bruker SHELXTL'
_computing_publication_material  'Bruker SHELXTL'
_computing_structure_refinement  'SHELXL-2014/7 (Sheldrick, 2014)'
_computing_structure_solution    'SHELXD (Schneider & Sheldrick, 2002)'
_diffrn_ambient_temperature      193(2)
_diffrn_measured_fraction_theta_full 0.999
_diffrn_measured_fraction_theta_max 0.967
_diffrn_measurement_device_type  'Bruker APEX-II CCD'
_diffrn_measurement_method       '\w scans'
_diffrn_radiation_type           MoK\a
_diffrn_radiation_wavelength     0.71073
_diffrn_reflns_av_R_equivalents  0.0213
_diffrn_reflns_av_unetI/netI     0.0321
_diffrn_reflns_laue_measured_fraction_full 0.999
_diffrn_reflns_laue_measured_fraction_max 0.967
_diffrn_reflns_limit_h_max       17
_diffrn_reflns_limit_h_min       -17
_diffrn_reflns_limit_k_max       20
_diffrn_reflns_limit_k_min       -21
_diffrn_reflns_limit_l_max       27
_diffrn_reflns_limit_l_min       -27
_diffrn_reflns_number            37238
_diffrn_reflns_point_group_measured_fraction_full 0.999
_diffrn_reflns_point_group_measured_fraction_max 0.967
_diffrn_reflns_theta_full        25.242
_diffrn_reflns_theta_max         28.315
_diffrn_reflns_theta_min         1.024
_exptl_absorpt_coefficient_mu    0.325
_exptl_absorpt_correction_T_max  0.9878
_exptl_absorpt_correction_T_min  0.8870
_exptl_absorpt_correction_type   numerical
_exptl_absorpt_process_details   'SADABS 2014/5'
_exptl_crystal_colour            colourless
_exptl_crystal_density_diffrn    1.507
_exptl_crystal_description       prism
_exptl_crystal_F_000             1860
_exptl_crystal_size_max          0.427
_exptl_crystal_size_mid          0.407
_exptl_crystal_size_min          0.198
_refine_diff_density_max         0.863
_refine_diff_density_min         -0.386
_refine_diff_density_rms         0.065
_refine_ls_extinction_method     none
_refine_ls_goodness_of_fit_ref   1.087
_refine_ls_hydrogen_treatment    constr
_refine_ls_matrix_type           full
_refine_ls_number_parameters     1040
_refine_ls_number_reflns         19236
_refine_ls_number_restraints     1
_refine_ls_restrained_S_all      1.087
_refine_ls_R_factor_all          0.0746
_refine_ls_R_factor_gt           0.0544
_refine_ls_shift/su_max          0.001
_refine_ls_shift/su_mean         0.000
_refine_ls_structure_factor_coef Fsqd
_refine_ls_weighting_details
'w=1/[\s^2^(Fo^2^)+(0.0999P)^2^+0.3039P] where P=(Fo^2^+2Fc^2^)/3'
_refine_ls_weighting_scheme      calc
_refine_ls_wR_factor_gt          0.1577
_refine_ls_wR_factor_ref         0.1744
_reflns_Friedel_coverage         0.000
_reflns_number_gt                13732
_reflns_number_total             19236
_reflns_threshold_expression     'I > 2\s(I)'
_cod_data_source_file            c5sc02423d2.cif
_cod_data_source_block           vic1514
_cod_depositor_comments
'Adding full bibliography for 1529324--1529330.cif.'
_cod_database_code               1529328
_shelx_shelxl_version_number     2014/7
_shelx_space_group_comment
; 
The symmetry employed for this shelxl refinement is uniquely defined 
by the following loop, which should always be used as a source of 
symmetry information in preference to the above space-group names. 
They are only intended as comments. 
;
_platon_squeeze_void_probe_radius 1.20
_shelx_res_file
; 
  
    vic1514.res created by SHELXL-2014/7 
  
  
TITL vic1514 in P-1 
CELL 0.71073 13.2699 15.7880 20.4958 76.0415 87.9220 73.5660 
ZERR    4.00  0.0007  0.0008  0.0010  0.0007  0.0007  0.0007 
LATT 1 
SFAC C   H   N  O  F  P S 
UNIT 108 138 30 36 36 4 12 
TEMP -80 
SADI 0.01 S4A C40A S4B C40B 
BIND P1 O11 
BIND P1 O22 
BIND P1 O31 
BIND P2 O12 
BIND P2 O21 
BIND P2 O41A 
BIND P2 O41B 
REM ABIN 
ABIN 
L.S. 8 
ACTA 
CONF 
WGHT    0.099900    0.303900 
FVAR       0.07189   0.44992 
P1    6    0.371992    0.163552    0.189101    11.00000    0.03068    0.03159 = 
         0.02641   -0.00690    0.00208   -0.01009 
N11   3    0.254437    0.168455    0.148975    11.00000    0.03077    0.03273 = 
         0.03029   -0.01002    0.00372   -0.01078 
N12   3   -0.033083    0.147795    0.095917    11.00000    0.03288    0.04550 = 
         0.04307   -0.01314   -0.00060   -0.01170 
N21   3    0.451347    0.061724    0.172477    11.00000    0.02886    0.03118 = 
         0.02696   -0.00537    0.00065   -0.00702 
N22   3    0.637402   -0.188240    0.151945    11.00000    0.05409    0.03645 = 
         0.04766   -0.01270   -0.00312   -0.00009 
N31   3    0.417790    0.238921    0.125362    11.00000    0.03002    0.02976 = 
         0.02748   -0.00368   -0.00075   -0.00813 
N32   3    0.564162    0.395618   -0.015929    11.00000    0.04146    0.03663 = 
         0.03704    0.00040    0.00324   -0.01528 
C11   1    0.163000    0.220719    0.168081    11.00000    0.03436    0.03305 = 
         0.03273   -0.01158    0.00395   -0.00767 
AFIX  43 
H11   2    0.166990    0.259934    0.195908    11.00000   -1.20000 
AFIX   0 
C12   1    0.067150    0.219338    0.149316    11.00000    0.03243    0.03353 = 
         0.03627   -0.01111    0.00234   -0.00477 
AFIX  43 
H12   2    0.005673    0.258696    0.162478    11.00000   -1.20000 
AFIX   0 
C13   1    0.058227    0.158716    0.109693    11.00000    0.02997    0.03219 = 
         0.03232   -0.00391   -0.00114   -0.00833 
C14   1    0.154267    0.108833    0.086873    11.00000    0.03608    0.04105 = 
         0.03981   -0.01965    0.00002   -0.00655 
AFIX  43 
H14   2    0.152641    0.071238    0.057281    11.00000   -1.20000 
AFIX   0 
C15   1    0.246998    0.114343    0.106700    11.00000    0.03045    0.04283 = 
         0.03642   -0.01860    0.00462   -0.00811 
AFIX  43 
H15   2    0.309749    0.079734    0.091055    11.00000   -1.20000 
AFIX   0 
C16   1   -0.131589    0.197046    0.121561    11.00000    0.02940    0.07206 = 
         0.06318   -0.02361    0.00394   -0.01408 
AFIX 137 
H16A  2   -0.191285    0.186392    0.101341    11.00000   -1.20000 
H16B  2   -0.137871    0.262330    0.109858    11.00000   -1.20000 
H16C  2   -0.131269    0.175244    0.170577    11.00000   -1.20000 
AFIX   0 
C17   1   -0.038931    0.078561    0.060023    11.00000    0.04149    0.07359 = 
         0.08979   -0.04459   -0.00467   -0.01875 
AFIX 137 
H17A  2   -0.112768    0.083005    0.051840    11.00000   -1.20000 
H17B  2   -0.003611    0.017804    0.087453    11.00000   -1.20000 
H17C  2   -0.004295    0.088941    0.016964    11.00000   -1.20000 
AFIX   0 
C21   1    0.503549    0.052878    0.114224    11.00000    0.03685    0.03571 = 
         0.02765   -0.00495    0.00437   -0.00935 
AFIX  43 
H21   2    0.496709    0.105346    0.078396    11.00000   -1.20000 
AFIX   0 
C22   1    0.564230   -0.028343    0.106593    11.00000    0.03377    0.04219 = 
         0.03361   -0.01126    0.00330   -0.01060 
AFIX  43 
H22   2    0.598615   -0.031900    0.065461    11.00000   -1.20000 
AFIX   0 
C23   1    0.577677   -0.108587    0.158856    11.00000    0.03495    0.03695 = 
         0.04037   -0.01337   -0.00375   -0.00900 
C24   1    0.524268   -0.096963    0.219413    11.00000    0.04735    0.03399 = 
         0.03575   -0.00355   -0.00199   -0.01375 
AFIX  43 
H24   2    0.531126   -0.147945    0.256507    11.00000   -1.20000 
AFIX   0 
C25   1    0.464438   -0.014396    0.224200    11.00000    0.03957    0.03508 = 
         0.02836   -0.00647    0.00215   -0.01479 
AFIX  43 
H25   2    0.429934   -0.008623    0.264996    11.00000   -1.20000 
AFIX   0 
C26   1    0.690947   -0.197546    0.088884    11.00000    0.05160    0.05282 = 
         0.05531   -0.02435    0.00573    0.00009 
AFIX 137 
H26A  2    0.738104   -0.259325    0.094886    11.00000   -1.20000 
H26B  2    0.731853   -0.153495    0.076821    11.00000   -1.20000 
H26C  2    0.638564   -0.186020    0.052923    11.00000   -1.20000 
AFIX   0 
C27   1    0.650670   -0.271494    0.203403    11.00000    0.16165    0.04232 = 
         0.06724   -0.00577    0.02559    0.01096 
AFIX 137 
H27A  2    0.707617   -0.319795    0.191623    11.00000   -1.20000 
H27B  2    0.585221   -0.289176    0.206867    11.00000   -1.20000 
H27C  2    0.668177   -0.262019    0.246645    11.00000   -1.20000 
AFIX   0 
C31   1    0.368962    0.286301    0.063901    11.00000    0.03065    0.03631 = 
         0.03080   -0.00532   -0.00482   -0.00937 
AFIX  43 
H31   2    0.301673    0.281675    0.053858    11.00000   -1.20000 
AFIX   0 
C32   1    0.414341    0.339091    0.017642    11.00000    0.03655    0.03432 = 
         0.02913   -0.00210   -0.00435   -0.00700 
AFIX  43 
H32   2    0.378419    0.370826   -0.024251    11.00000   -1.20000 
AFIX   0 
C33   1    0.514936    0.348185    0.030345    11.00000    0.03558    0.02756 = 
         0.03224   -0.00632    0.00278   -0.00719 
C34   1    0.560029    0.303834    0.096276    11.00000    0.03013    0.03690 = 
         0.03338   -0.00694   -0.00066   -0.01017 
AFIX  43 
H34   2    0.624690    0.311135    0.108868    11.00000   -1.20000 
AFIX   0 
C35   1    0.511458    0.251532    0.140935    11.00000    0.03070    0.03022 = 
         0.02930   -0.00540   -0.00287   -0.00630 
AFIX  43 
H35   2    0.543126    0.222607    0.184445    11.00000   -1.20000 
AFIX   0 
C36   1    0.523010    0.431885   -0.085457    11.00000    0.06062    0.05157 = 
         0.03877    0.00337    0.00363   -0.02134 
AFIX 137 
H36A  2    0.571288    0.461917   -0.112419    11.00000   -1.20000 
H36B  2    0.453876    0.476022   -0.086450    11.00000   -1.20000 
H36C  2    0.516314    0.381996   -0.104052    11.00000   -1.20000 
AFIX   0 
C37   1    0.668768    0.402317   -0.002946    11.00000    0.04568    0.05702 = 
         0.05698    0.00615   -0.00140   -0.02703 
AFIX 137 
H37A  2    0.685800    0.448496   -0.039459    11.00000   -1.20000 
H37B  2    0.720670    0.343351   -0.000442    11.00000   -1.20000 
H37C  2    0.670038    0.419602    0.039775    11.00000   -1.20000 
AFIX   0 
P2    6    0.617206    0.329420    0.306587    11.00000    0.03118    0.03066 = 
         0.02754   -0.00718    0.00246   -0.00921 
N41   3    0.579380    0.246622    0.368338    11.00000    0.03106    0.02693 = 
         0.03007   -0.00494   -0.00004   -0.00783 
N42   3    0.428504    0.101681    0.515082    11.00000    0.03418    0.03077 = 
         0.03735   -0.00446    0.00257   -0.01116 
N51   3    0.535578    0.424578    0.330810    11.00000    0.02922    0.02858 = 
         0.03095   -0.00598    0.00083   -0.00629 
N52   3    0.351154    0.661920    0.373863    11.00000    0.05053    0.03839 = 
         0.06839   -0.02181   -0.00771    0.00122 
N61   3    0.735726    0.324641    0.344952    11.00000    0.02970    0.03109 = 
         0.03143   -0.00916    0.00430   -0.00980 
N62   3    1.029905    0.339177    0.391640    11.00000    0.03002    0.05086 = 
         0.04184   -0.00851    0.00194   -0.01133 
C41   1    0.486796    0.231601    0.353690    11.00000    0.03081    0.03033 = 
         0.03034   -0.00825   -0.00216   -0.00647 
AFIX  43 
H41   2    0.456397    0.257104    0.309539    11.00000   -1.20000 
AFIX   0 
C42   1    0.437274    0.182064    0.399501    11.00000    0.03026    0.03101 = 
         0.03485   -0.00899   -0.00161   -0.00896 
AFIX  43 
H42   2    0.373941    0.172409    0.386972    11.00000   -1.20000 
AFIX   0 
C43   1    0.479454    0.143944    0.466849    11.00000    0.03474    0.02237 = 
         0.03362   -0.00497   -0.00069   -0.00493 
C44   1    0.580468    0.153990    0.479149    11.00000    0.03355    0.03131 = 
         0.03101   -0.00456   -0.00338   -0.00645 
AFIX  43 
H44   2    0.615339    0.125172    0.521765    11.00000   -1.20000 
AFIX   0 
C45   1    0.626952    0.203720    0.431199    11.00000    0.02968    0.03014 = 
         0.03415   -0.00530   -0.00308   -0.00688 
AFIX  43 
H45   2    0.693895    0.209399    0.440835    11.00000   -1.20000 
AFIX   0 
C46   1    0.323558    0.096016    0.503133    11.00000    0.03960    0.05002 = 
         0.05102   -0.00117    0.00105   -0.02036 
AFIX 137 
H46A  2    0.306228    0.050737    0.540241    11.00000   -1.20000 
H46B  2    0.321151    0.077990    0.460819    11.00000   -1.20000 
H46C  2    0.272545    0.155503    0.500285    11.00000   -1.20000 
AFIX   0 
C47   1    0.467304    0.071907    0.585083    11.00000    0.04629    0.04408 = 
         0.03742   -0.00109    0.00246   -0.01585 
AFIX 137 
H47A  2    0.420617    0.040600    0.612643    11.00000   -1.20000 
H47B  2    0.468913    0.124935    0.601467    11.00000   -1.20000 
H47C  2    0.538402    0.030220    0.588079    11.00000   -1.20000 
AFIX   0 
C51   1    0.488732    0.424422    0.391719    11.00000    0.03457    0.03080 = 
         0.03262   -0.00523    0.00279   -0.00759 
AFIX  43 
H51   2    0.499360    0.368290    0.424338    11.00000   -1.20000 
AFIX   0 
C52   1    0.428566    0.500611    0.406791    11.00000    0.03460    0.04059 = 
         0.04171   -0.01591    0.00369   -0.00702 
AFIX  43 
H52   2    0.398314    0.497453    0.449724    11.00000   -1.20000 
AFIX   0 
C53   1    0.409497    0.585886    0.359451    11.00000    0.03276    0.03537 = 
         0.05151   -0.01494   -0.00905   -0.00456 
C54   1    0.455465    0.584018    0.295646    11.00000    0.05042    0.03006 = 
         0.04556   -0.00298   -0.00834   -0.01219 
AFIX  43 
H54   2    0.443134    0.638720    0.261338    11.00000   -1.20000 
AFIX   0 
C55   1    0.515873    0.505974    0.283511    11.00000    0.04506    0.03437 = 
         0.03156   -0.00230   -0.00198   -0.01502 
AFIX  43 
H55   2    0.546114    0.506998    0.240700    11.00000   -1.20000 
AFIX   0 
C56   1    0.326911    0.749002    0.323658    11.00000    0.08370    0.03289 = 
         0.09109   -0.01298   -0.02116    0.00806 
AFIX 137 
H56A  2    0.275636    0.795330    0.341468    11.00000   -1.20000 
H56B  2    0.297490    0.742462    0.282583    11.00000   -1.20000 
H56C  2    0.391378    0.767500    0.313319    11.00000   -1.20000 
AFIX   0 
C57   1    0.312807    0.663365    0.440773    11.00000    0.07119    0.07112 = 
         0.08430   -0.04553    0.00132    0.01245 
AFIX 137 
H57A  2    0.284986    0.726545    0.444254    11.00000   -1.20000 
H57B  2    0.370601    0.631430    0.474034    11.00000   -1.20000 
H57C  2    0.256889    0.633099    0.449301    11.00000   -1.20000 
AFIX   0 
C61   1    0.747174    0.385838    0.379898    11.00000    0.03339    0.03661 = 
         0.03659   -0.01613    0.00507   -0.00783 
AFIX  43 
H61   2    0.686047    0.426681    0.392038    11.00000   -1.20000 
AFIX   0 
C62   1    0.842049    0.389584    0.397350    11.00000    0.03488    0.04442 = 
         0.03981   -0.01840    0.00301   -0.01317 
AFIX  43 
H62   2    0.846382    0.432029    0.422278    11.00000   -1.20000 
AFIX   0 
C63   1    0.936301    0.331363    0.379328    11.00000    0.03372    0.03454 = 
         0.02698   -0.00138    0.00151   -0.01020 
C64   1    0.922500    0.265940    0.345660    11.00000    0.03086    0.03373 = 
         0.04142   -0.00827    0.00687   -0.00297 
AFIX  43 
H64   2    0.982220    0.222068    0.335200    11.00000   -1.20000 
AFIX   0 
C65   1    0.825478    0.265938    0.328615    11.00000    0.03807    0.02953 = 
         0.03756   -0.01077    0.00433   -0.00833 
AFIX  43 
H65   2    0.818822    0.223550    0.304265    11.00000   -1.20000 
AFIX   0 
C66   1    1.126119    0.281640    0.370314    11.00000    0.03018    0.05851 = 
         0.07384   -0.01365    0.00174   -0.00675 
AFIX 137 
H66A  2    1.187287    0.288102    0.391936    11.00000   -1.20000 
H66B  2    1.130486    0.300310    0.321342    11.00000   -1.20000 
H66C  2    1.125021    0.217975    0.383381    11.00000   -1.20000 
AFIX   0 
C67   1    1.038499    0.413993    0.420132    11.00000    0.04771    0.10838 = 
         0.09235   -0.05707    0.00972   -0.03939 
AFIX 137 
H67A  2    1.112705    0.411538    0.424085    11.00000   -1.20000 
H67B  2    1.008122    0.407983    0.464738    11.00000   -1.20000 
H67C  2    1.000395    0.472312    0.390557    11.00000   -1.20000 
AFIX   0 
S1    7    0.294681    0.418626    0.205091    11.00000    0.03738    0.03771 = 
         0.03631   -0.00701    0.00032   -0.01342 
F11   5    0.238647    0.578476    0.231690    11.00000    0.07304    0.04315 = 
         0.20457   -0.04602   -0.00379   -0.01050 
F12   5    0.120366    0.506781    0.250932    11.00000    0.03170    0.10744 = 
         0.15112   -0.07720    0.00444   -0.01038 
F13   5    0.254045    0.468464    0.317690    11.00000    0.06913    0.13463 = 
         0.07837   -0.07015    0.01275   -0.03298 
O11   4    0.268323    0.336413    0.235518    11.00000    0.06954    0.04520 = 
         0.07009   -0.02104    0.01640   -0.03152 
O12   4    0.402585    0.412824    0.216855    11.00000    0.03546    0.05337 = 
         0.06708   -0.02221    0.00484   -0.01316 
O13   4    0.254372    0.459940    0.137844    11.00000    0.07502    0.11294 = 
         0.04130    0.00174   -0.01061   -0.02009 
C10   1    0.222855    0.497011    0.253494    11.00000    0.03523    0.05214 = 
         0.09163   -0.03359    0.00067   -0.01216 
S2    7    0.700498    0.074845    0.287382    11.00000    0.03380    0.03387 = 
         0.03499   -0.00657   -0.00224   -0.01130 
F21   5    0.759483   -0.090254    0.269842    11.00000    0.07599    0.03755 = 
         0.18482   -0.03634    0.00008   -0.01019 
F22   5    0.877856   -0.019143    0.248351    11.00000    0.03340    0.09093 = 
         0.14555   -0.06575    0.00212   -0.00617 
F23   5    0.747915    0.013488    0.179355    11.00000    0.07204    0.11472 = 
         0.08444   -0.06989    0.01063   -0.02733 
O21   4    0.724452    0.156908    0.252074    11.00000    0.05791    0.04052 = 
         0.05202   -0.01501    0.01065   -0.02439 
O22   4    0.593322    0.076928    0.276577    11.00000    0.03507    0.04394 = 
         0.05250   -0.01102   -0.00080   -0.01298 
O23   4    0.739743    0.040925    0.355510    11.00000    0.06019    0.08191 = 
         0.03832   -0.00108   -0.01175   -0.01614 
C20   1    0.775590   -0.009573    0.244026    11.00000    0.03615    0.04525 = 
         0.09239   -0.03030   -0.00469   -0.00912 
S3    7    0.210679    0.024854    0.348309    11.00000    0.03815    0.03904 = 
         0.04137   -0.00857    0.00198   -0.01291 
F31   5    0.094019   -0.074286    0.325097    11.00000    0.06458    0.05099 = 
         0.06240   -0.00476   -0.00474   -0.03034 
F32   5    0.037829    0.068607    0.276203    11.00000    0.05503    0.06666 = 
         0.09675    0.01138   -0.02893   -0.01608 
F33   5    0.170890   -0.017224    0.239238    11.00000    0.11789    0.11223 = 
         0.04565   -0.03203    0.01320   -0.05162 
O31   4    0.243100    0.098052    0.305942    11.00000    0.06735    0.06530 = 
         0.06528   -0.00588    0.01235   -0.03956 
O32   4    0.291471   -0.058505    0.368921    11.00000    0.06050    0.05610 = 
         0.08787   -0.01128   -0.02988   -0.00436 
O33   4    0.143327    0.051361    0.400834    11.00000    0.08608    0.07345 = 
         0.05800   -0.03129    0.02952   -0.03869 
C30   1    0.124208   -0.001096    0.295301    11.00000    0.05081    0.04694 = 
         0.04524   -0.00156   -0.00500   -0.01760 
PART   1 
S4A   7    0.783196    0.472075    0.154214    10.60000    0.04709    0.04809 = 
         0.06229   -0.01024   -0.00632   -0.02004 
F41A  5    0.926586    0.555504    0.161760    10.60000    0.16694    0.12698 = 
         0.08880    0.05484   -0.06252   -0.11940 
F42A  5    0.966040    0.411991    0.215901    10.60000    0.05434    0.07305 = 
         0.11979   -0.02376   -0.03994    0.00490 
F43A  5    0.857553    0.515795    0.250534    10.60000    0.14207    0.12356 = 
         0.06628   -0.04569   -0.03527   -0.00968 
O41A  4    0.748859    0.407612    0.197820    10.60000    0.09126    0.15877 = 
         0.10595    0.06040   -0.03028   -0.09129 
O42A  4    0.720005    0.559025    0.126888    10.60000    0.10526    0.04875 = 
         0.13675   -0.02580   -0.07830    0.01417 
O43A  4    0.842442    0.433798    0.099666    10.60000    0.09189    0.12213 = 
         0.10019   -0.07284    0.00934   -0.03173 
C40A  1    0.889688    0.492882    0.195230    10.60000    0.04975 
PART   2 
S4B   7    0.787365    0.469012    0.159624    10.40000    0.02879    0.04275 = 
         0.05553   -0.01465   -0.00965    0.00498 
F41B  5    0.975435    0.472146    0.140352    10.40000    0.04125    0.16642 = 
         0.08611   -0.02749    0.02706   -0.03030 
F42B  5    0.949970    0.436430    0.240723    10.40000    0.12067    0.14014 = 
         0.07382    0.07489   -0.06954   -0.10082 
F43B  5    0.895887    0.566690    0.185741    10.40000    0.08071    0.06896 = 
         0.26259   -0.04945    0.00157   -0.04788 
O41B  4    0.719883    0.483332    0.219232    10.40000    0.04632    0.08074 = 
         0.06921   -0.03182    0.02529   -0.03377 
O42B  4    0.748425    0.529370    0.103416    10.40000    0.09640    0.16267 = 
         0.07906    0.07491   -0.06420   -0.06699 
O43B  4    0.815152    0.377469    0.160608    10.40000    0.07041    0.08273 = 
         0.20640   -0.09246    0.02902   -0.03077 
C40B  1    0.908718    0.482701    0.185052    10.40000    0.04441 
PART   0 
S5    7    0.333705    0.865264    0.035540    11.00000    0.05033    0.05150 = 
         0.05111   -0.02195    0.01126   -0.00991 
F51   5    0.327246    0.871835    0.160811    11.00000    0.13585    0.16649 = 
         0.06578   -0.06070   -0.00273   -0.04532 
F52   5    0.321737    0.744568    0.144130    11.00000    0.22664    0.06901 = 
         0.09445    0.01230    0.03986   -0.00753 
F53   5    0.188770    0.860563    0.124098    11.00000    0.08716    0.13964 = 
         0.12188   -0.04643    0.05642   -0.04968 
O51   4    0.289166    0.817597   -0.000166    11.00000    0.08683    0.11112 = 
         0.07980   -0.06092   -0.01780   -0.00760 
O52   4    0.291775    0.960531    0.018971    11.00000    0.18334    0.05012 = 
         0.09318   -0.01559    0.08045   -0.00745 
O53   4    0.444801    0.832870    0.040841    11.00000    0.04799    0.14434 = 
         0.13136   -0.07791    0.02084   -0.02411 
C50   1    0.291720    0.833403    0.119648    11.00000    0.07949    0.06703 = 
         0.05635   -0.01601    0.00915   -0.02361 
S6    7    0.369617    0.343978    0.577957    11.00000    0.05482    0.03930 = 
         0.04931   -0.01572    0.01319   -0.01259 
F61   5    0.203431    0.367025    0.651273    11.00000    0.07330    0.12338 = 
         0.09188   -0.03331    0.03394   -0.01617 
F62   5    0.168888    0.400693    0.548167    11.00000    0.07968    0.14834 = 
         0.12556   -0.02563   -0.04205   -0.01942 
F63   5    0.225399    0.259208    0.600547    11.00000    0.11739    0.11230 = 
         0.20210   -0.06175    0.03975   -0.07946 
O61   4    0.389422    0.312505    0.517486    11.00000    0.14289    0.05458 = 
         0.06609   -0.03037    0.04447   -0.02786 
O62   4    0.426734    0.282975    0.636672    11.00000    0.06385    0.06907 = 
         0.07397   -0.00044   -0.00840   -0.00733 
O63   4    0.363359    0.437885    0.570187    11.00000    0.07332    0.04624 = 
         0.07121   -0.02402    0.01279   -0.01894 
C60   1    0.235624    0.342035    0.595133    11.00000    0.06433    0.07480 = 
         0.07188   -0.01410   -0.00700   -0.02671 
N1S   3   -0.132202    0.172586    0.499872    11.00000    0.06567    0.07207 = 
         0.06443    0.00082   -0.00105   -0.00547 
C1S   1   -0.051079    0.129146    0.521814    11.00000    0.05765    0.08839 = 
         0.04606   -0.00342    0.00845   -0.01100 
C2S   1    0.050310    0.070687    0.548460    11.00000    0.04162    0.19819 = 
         0.05304   -0.01361    0.00618   -0.00943 
AFIX 137 
H2SA  2    0.041237    0.022630    0.586618    11.00000   -1.20000 
H2SB  2    0.090336    0.106402    0.563507    11.00000   -1.20000 
H2SC  2    0.088456    0.043188    0.513414    11.00000   -1.20000 
  
AFIX   0 
HKLF 4 
  
REM  vic1514 in P-1 
REM R1 =  0.0544 for   13732 Fo > 4sig(Fo)  and  0.0746 for all   19236 data 
REM   1040 parameters refined using      1 restraints 
  
END 
  
WGHT      0.0999      0.3039 
  
REM Highest difference peak  0.863,  deepest hole -0.386,  1-sigma level  0.065 
Q1    1   0.3296  0.3683  0.5343  11.00000  0.05    0.86 
Q2    1   0.3687  0.8407  0.0776  11.00000  0.05    0.78 
Q3    1   0.3635  0.9370  0.0540  11.00000  0.05    0.52 
Q4    1   0.0749  0.0378  0.2484  11.00000  0.05    0.52 
Q5    1   0.0241  0.1570  0.5392  11.00000  0.05    0.48 
Q6    1   0.4149  0.7685  0.1408  11.00000  0.05    0.47 
Q7    1   0.2420  0.7649  0.1137  11.00000  0.05    0.45 
Q8    1   0.4422  0.7971  0.0926  11.00000  0.05    0.43 
Q9    1   0.3858  0.8079  0.1636  11.00000  0.05    0.43 
Q10   1   0.7417  0.3380  0.3527  11.00000  0.05    0.42 
Q11   1   0.2758  0.0018  0.2756  11.00000  0.05    0.42 
Q12   1   0.2001  0.3392  0.5275  11.00000  0.05    0.41 
Q13   1   0.7366  0.0381  0.2689  11.00000  0.05    0.40 
Q14   1   0.3816  0.8201  0.0026  11.00000  0.05    0.40 
Q15   1   0.4059  0.4306  0.2235  11.00000  0.05    0.40 
Q16   1   0.3072  0.4470  0.5455  11.00000  0.05    0.39 
Q17   1  -0.0248 -0.0396  0.6285  11.00000  0.05    0.39 
Q18   1   0.4451  0.0874  0.1688  11.00000  0.05    0.38 
Q19   1   0.1890  0.1281  0.3311  11.00000  0.05    0.37 
Q20   1   0.2713  0.3360  0.2512  11.00000  0.05    0.37 
;
_shelx_res_checksum              28675
_shelx_fab_file
; 
    0    7   27      0.28      0.00 
   -1    7   27      0.32      0.00 
    0    6   27      0.16      0.00 
    2    4   27      0.37      0.00 
    1    4   27      0.44      0.00 
    0    4   27      0.38      0.00 
   -1    4   27      0.30      0.00 
    2    3   27     -0.11      0.00 
    1    3   27      0.53      0.00 
    0    3   27      0.92      0.00 
   -1    3   27      0.79      0.00 
    1   11   26      0.05      0.00 
    2   10   26     -0.19      0.00 
    1   10   26     -0.09      0.00 
    0   10   26      0.16      0.00 
   -1   10   26      0.37      0.00 
    3    9   26      0.29      0.00 
    2    9   26      0.06      0.00 
    1    9   26     -0.12      0.00 
   -1    9   26     -0.17      0.00 
    3    8   26     -0.29      0.00 
    2    8   26     -0.04      0.00 
    1    8   26      0.12      0.00 
    0    8   26      0.07      0.00 
   -1    8   26     -0.06      0.00 
   -2    8   26     -0.08      0.00 
    4    7   26     -0.08      0.00 
    3    7   26     -0.26      0.00 
    2    7   26     -0.35      0.00 
    1    7   26     -0.32      0.00 
    0    7   26     -0.18      0.00 
   -1    7   26     -0.03      0.00 
   -2    7   26      0.02      0.00 
    4    6   26      0.33      0.00 
    3    6   26      0.41      0.00 
    2    6   26      0.34      0.00 
    1    6   26      0.24      0.00 
    0    6   26      0.27      0.00 
   -1    6   26      0.39      0.00 
    4    5   26     -0.09      0.00 
    3    5   26     -0.04      0.00 
    2    5   26      0.08      0.00 
    1    5   26      0.14      0.00 
    0    5   26      0.03      0.00 
    5    4   26      0.27      0.00 
    4    4   26      0.33      0.00 
    3    4   26      0.05      0.00 
    2    4   26     -0.43      0.00 
    1    4   26     -0.70      0.00 
    0    4   26     -0.53      0.00 
   -1    4   26     -0.18      0.00 
   -2    4   26     -0.04      0.00 
   -3    4   26     -0.15      0.00 
   -4    4   26     -0.23      0.00 
    5    3   26     -0.29      0.00 
    4    3   26     -0.44      0.00 
    3    3   26     -0.32      0.00 
    2    3   26      0.12      0.00 
    1    3   26      0.55      0.00 
    0    3   26      0.64      0.00 
   -1    3   26      0.42      0.00 
   -2    3   26      0.23      0.00 
   -3    3   26      0.27      0.00 
   -4    3   26      0.38      0.00 
    4    2   26     -0.23      0.00 
    3    2   26     -0.08      0.00 
    2    2   26      0.18      0.00 
    1    2   26      0.42      0.00 
    0    2   26      0.45      0.00 
   -1    2   26      0.25      0.00 
   -2    2   26     -0.04      0.00 
   -3    2   26     -0.21      0.00 
   -4    2   26     -0.13      0.00 
    3    1   26      0.28      0.00 
    2    1   26      0.01      0.00 
    1    1   26     -0.34      0.00 
    0    1   26     -0.51      0.00 
   -1    1   26     -0.36      0.00 
   -2    1   26     -0.07      0.00 
   -3    1   26      0.05      0.00 
    1    0   26     -0.02      0.00 
    0    0   26     -0.19      0.00 
   -1    0   26     -0.36      0.00 
   -2    0   26     -0.40      0.00 
    3   12   25      0.28      0.00 
    2   12   25     -0.03      0.00 
    1   12   25     -0.23      0.00 
    0   12   25     -0.21      0.00 
    4   11   25      0.09      0.00 
    3   11   25      0.36      0.00 
    2   11   25      0.46      0.00 
    1   11   25      0.28      0.00 
    0   11   25     -0.09      0.00 
   -1   11   25     -0.40      0.00 
   -2   11   25     -0.43      0.00 
    5   10   25     -0.46      0.00 
    4   10   25     -0.45      0.00 
    3   10   25     -0.30      0.00 
    2   10   25     -0.17      0.00 
    1   10   25     -0.07      0.00 
    0   10   25      0.06      0.00 
   -1   10   25      0.16      0.00 
   -2   10   25      0.14      0.00 
    5    9   25      0.63      0.00 
    4    9   25      0.37      0.00 
    3    9   25     -0.07      0.00 
    2    9   25     -0.39      0.00 
    1    9   25     -0.43      0.00 
    0    9   25     -0.23      0.00 
   -1    9   25      0.04      0.00 
    6    8   25     -0.49      0.00 
    5    8   25     -0.08      0.00 
    4    8   25      0.28      0.00 
    3    8   25      0.40      0.00 
    2    8   25      0.36      0.00 
    1    8   25      0.31      0.00 
    0    8   25      0.26      0.00 
   -1    8   25      0.21      0.00 
   -2    8   25      0.21      0.00 
    6    7   25      0.08      0.00 
    5    7   25     -0.38      0.00 
    4    7   25     -0.58      0.00 
    3    7   25     -0.43      0.00 
    2    7   25     -0.19      0.00 
    1    7   25     -0.12      0.00 
    0    7   25     -0.21      0.00 
   -1    7   25     -0.30      0.00 
   -2    7   25     -0.28      0.00 
   -3    7   25     -0.21      0.00 
    6    6   25      0.34      0.00 
    5    6   25      0.30      0.00 
    4    6   25      0.03      0.00 
    3    6   25     -0.29      0.00 
    2    6   25     -0.40      0.00 
    1    6   25     -0.25      0.00 
    0    6   25      0.03      0.00 
   -1    6   25      0.18      0.00 
   -2    6   25      0.09      0.00 
    6    5   25      0.01      0.00 
    5    5   25      0.04      0.00 
    4    5   25      0.28      0.00 
    3    5   25      0.53      0.00 
    2    5   25      0.53      0.00 
    1    5   25      0.24      0.00 
    0    5   25     -0.05      0.00 
   -1    5   25     -0.06      0.00 
   -2    5   25      0.22      0.00 
   -3    5   25      0.50      0.00 
   -4    5   25      0.54      0.00 
   -5    5   25      0.40      0.00 
   -6    5   25      0.26      0.00 
    7    4   25     -0.08      0.00 
    6    4   25     -0.02      0.00 
    5    4   25      0.11      0.00 
    4    4   25      0.20      0.00 
    3    4   25      0.16      0.00 
    2    4   25      0.05      0.00 
    1    4   25      0.00      0.00 
    0    4   25      0.04      0.00 
   -1    4   25      0.01      0.00 
   -2    4   25     -0.21      0.00 
   -3    4   25     -0.46      0.00 
   -4    4   25     -0.49      0.00 
   -5    4   25     -0.25      0.00 
   -6    4   25      0.04      0.00 
    6    3   25     -0.01      0.00 
    5    3   25     -0.01      0.00 
    4    3   25     -0.21      0.00 
    3    3   25     -0.49      0.00 
    2    3   25     -0.57      0.00 
    1    3   25     -0.34      0.00 
    0    3   25      0.04      0.00 
   -1    3   25      0.27      0.00 
   -2    3   25      0.20      0.00 
   -3    3   25     -0.04      0.00 
   -4    3   25     -0.26      0.00 
   -5    3   25     -0.35      0.00 
   -6    3   25     -0.32      0.00 
    6    2   25     -0.05      0.00 
    5    2   25     -0.09      0.00 
    4    2   25     -0.01      0.00 
    3    2   25      0.10      0.00 
    2    2   25      0.13      0.00 
    1    2   25     -0.01      0.00 
    0    2   25     -0.26      0.00 
   -1    2   25     -0.43      0.00 
   -2    2   25     -0.32      0.00 
   -3    2   25      0.08      0.00 
   -4    2   25      0.55      0.00 
   -5    2   25      0.80      0.00 
   -6    2   25      0.68      0.00 
    5    1   25     -0.16      0.00 
    4    1   25     -0.24      0.00 
    3    1   25     -0.23      0.00 
    2    1   25     -0.02      0.00 
    1    1   25      0.32      0.00 
    0    1   25      0.62      0.00 
   -1    1   25      0.69      0.00 
   -2    1   25      0.52      0.00 
   -3    1   25      0.22      0.00 
   -4    1   25     -0.11      0.00 
   -5    1   25     -0.36      0.00 
   -6    1   25     -0.44      0.00 
    4    0   25     -0.09      0.00 
    3    0   25      0.07      0.00 
    2    0   25      0.25      0.00 
    1    0   25      0.20      0.00 
    0    0   25     -0.06      0.00 
   -1    0   25     -0.32      0.00 
   -2    0   25     -0.42      0.00 
   -3    0   25     -0.41      0.00 
   -4    0   25     -0.38      0.00 
   -5    0   25     -0.34      0.00 
    3   -1   25      0.48      0.00 
    2   -1   25      0.33      0.00 
    1   -1   25      0.07      0.00 
    0   -1   25     -0.18      0.00 
   -1   -1   25     -0.38      0.00 
   -2   -1   25     -0.52      0.00 
   -3   -1   25     -0.46      0.00 
   -4   -1   25     -0.17      0.00 
    0   -2   25     -0.14      0.00 
   -1   -2   25      0.31      0.00 
   -2   -2   25      0.82      0.00 
    3   14   24      0.34      0.00 
    2   14   24      0.33      0.00 
    1   14   24      0.24      0.00 
    4   13   24     -0.24      0.00 
    3   13   24      0.16      0.00 
    2   13   24      0.52      0.00 
    1   13   24      0.56      0.00 
    0   13   24      0.35      0.00 
   -1   13   24      0.16      0.00 
    5   12   24      0.28      0.00 
    4   12   24     -0.08      0.00 
    3   12   24     -0.52      0.00 
    2   12   24     -0.73      0.00 
    1   12   24     -0.57      0.00 
    0   12   24     -0.19      0.00 
   -1   12   24      0.14      0.00 
   -2   12   24      0.23      0.00 
    6   11   24     -0.04      0.00 
    5   11   24      0.25      0.00 
    4   11   24      0.49      0.00 
    3   11   24      0.52      0.00 
    2   11   24      0.35      0.00 
    1   11   24      0.05      0.00 
    0   11   24     -0.24      0.00 
   -1   11   24     -0.38      0.00 
   -2   11   24     -0.32      0.00 
   -3   11   24     -0.18      0.00 
    7   10   24     -0.20      0.00 
    6   10   24     -0.56      0.00 
    5   10   24     -0.59      0.00 
    4   10   24     -0.21      0.00 
    3   10   24      0.28      0.00 
    2   10   24      0.54      0.00 
    1   10   24      0.46      0.00 
    0   10   24      0.20      0.00 
   -1   10   24     -0.05      0.00 
   -2   10   24     -0.18      0.00 
    7    9   24      0.34      0.00 
    6    9   24      0.36      0.00 
    5    9   24      0.11      0.00 
    4    9   24     -0.21      0.00 
    3    9   24     -0.44      0.00 
    2    9   24     -0.54      0.00 
    1    9   24     -0.54      0.00 
    0    9   24     -0.43      0.00 
   -1    9   24     -0.24      0.00 
   -2    9   24     -0.13      0.00 
    8    8   24     -0.78      0.00 
    7    8   24     -0.59      0.00 
    6    8   24     -0.01      0.00 
    5    8   24      0.51      0.00 
    4    8   24      0.62      0.00 
    3    8   24      0.40      0.00 
    2    8   24      0.20      0.00 
    1    8   24      0.19      0.00 
    0    8   24      0.27      0.00 
   -1    8   24      0.33      0.00 
   -2    8   24      0.38      0.00 
    8    7   24      0.25      0.00 
    7    7   24      0.04      0.00 
    6    7   24     -0.21      0.00 
    5    7   24     -0.26      0.00 
    4    7   24     -0.10      0.00 
    3    7   24      0.01      0.00 
    2    7   24     -0.04      0.00 
    1    7   24     -0.10      0.00 
    0    7   24     -0.01      0.00 
   -1    7   24      0.18      0.00 
   -2    7   24      0.33      0.00 
   -3    7   24      0.42      0.00 
    8    6   24      0.10      0.00 
    7    6   24      0.19      0.00 
    6    6   24      0.11      0.00 
    5    6   24     -0.19      0.00 
    4    6   24     -0.48      0.00 
    3    6   24     -0.49      0.00 
    2    6   24     -0.26      0.00 
    1    6   24     -0.05      0.00 
    0    6   24     -0.04      0.00 
   -1    6   24     -0.19      0.00 
   -2    6   24     -0.39      0.00 
    8    5   24     -0.06      0.00 
    7    5   24      0.04      0.00 
    6    5   24      0.11      0.00 
    5    5   24      0.10      0.00 
    4    5   24      0.05      0.00 
    3    5   24      0.02      0.00 
    2    5   24      0.02      0.00 
    1    5   24     -0.02      0.00 
    0    5   24     -0.11      0.00 
   -1    5   24     -0.13      0.00 
   -2    5   24      0.01      0.00 
   -3    5   24      0.17      0.00 
   -4    5   24      0.10      0.00 
   -5    5   24     -0.22      0.00 
   -6    5   24     -0.52      0.00 
    8    4   24      0.43      0.00 
    7    4   24      0.34      0.00 
    6    4   24      0.21      0.00 
    5    4   24      0.27      0.00 
    4    4   24      0.48      0.00 
    3    4   24      0.51      0.00 
    2    4   24      0.21      0.00 
    1    4   24     -0.17      0.00 
    0    4   24     -0.25      0.00 
   -1    4   24     -0.02      0.00 
   -2    4   24      0.21      0.00 
   -3    4   24      0.25      0.00 
   -4    4   24      0.21      0.00 
   -5    4   24      0.28      0.00 
   -6    4   24      0.39      0.00 
    8    3   24     -0.20      0.00 
    7    3   24     -0.21      0.00 
    6    3   24     -0.29      0.00 
    5    3   24     -0.46      0.00 
    4    3   24     -0.55      0.00 
    3    3   24     -0.36      0.00 
    2    3   24      0.12      0.00 
    1    3   24      0.60      0.00 
    0    3   24      0.76      0.00 
   -1    3   24      0.52      0.00 
   -2    3   24      0.06      0.00 
   -3    3   24     -0.34      0.00 
   -4    3   24     -0.49      0.00 
   -5    3   24     -0.37      0.00 
   -6    3   24     -0.03      0.00 
   -7    3   24      0.35      0.00 
    7    2   24      0.10      0.00 
    6    2   24      0.19      0.00 
    5    2   24      0.42      0.00 
    4    2   24      0.51      0.00 
    3    2   24      0.23      0.00 
    2    2   24     -0.28      0.00 
    1    2   24     -0.63      0.00 
    0    2   24     -0.64      0.00 
   -1    2   24     -0.42      0.00 
   -2    2   24     -0.21      0.00 
   -3    2   24     -0.04      0.00 
   -4    2   24      0.18      0.00 
   -5    2   24      0.41      0.00 
   -6    2   24      0.45      0.00 
   -7    2   24      0.16      0.00 
    6    1   24      0.00      0.00 
    5    1   24      0.14      0.00 
    4    1   24      0.08      0.00 
    3    1   24     -0.16      0.00 
    2    1   24     -0.37      0.00 
    1    1   24     -0.40      0.00 
    0    1   24     -0.25      0.00 
   -1    1   24     -0.02      0.00 
   -2    1   24      0.21      0.00 
   -3    1   24      0.34      0.00 
   -4    1   24      0.28      0.00 
   -5    1   24      0.02      0.00 
   -6    1   24     -0.27      0.00 
   -7    1   24     -0.38      0.00 
    6    0   24     -0.04      0.00 
    5    0   24     -0.63      0.00 
    4    0   24     -0.94      0.00 
    3    0   24     -0.71      0.00 
    2    0   24     -0.12      0.00 
    1    0   24      0.39      0.00 
    0    0   24      0.52      0.00 
   -1    0   24      0.32      0.00 
   -2    0   24      0.01      0.00 
   -3    0   24     -0.24      0.00 
   -4    0   24     -0.38      0.00 
   -5    0   24     -0.40      0.00 
   -6    0   24     -0.30      0.00 
   -7    0   24     -0.16      0.00 
    5   -1   24      0.15      0.00 
    4   -1   24      0.58      0.00 
    3   -1   24      0.90      0.00 
    2   -1   24      0.96      0.00 
    1   -1   24      0.71      0.00 
    0   -1   24      0.23      0.00 
   -1   -1   24     -0.31      0.00 
   -2   -1   24     -0.63      0.00 
   -3   -1   24     -0.55      0.00 
   -4   -1   24     -0.15      0.00 
   -5   -1   24      0.23      0.00 
   -6   -1   24      0.35      0.00 
    3   -2   24     -0.09      0.00 
    2   -2   24     -0.19      0.00 
    1   -2   24     -0.25      0.00 
    0   -2   24     -0.18      0.00 
   -1   -2   24      0.03      0.00 
   -2   -2   24      0.22      0.00 
   -3   -2   24      0.21      0.00 
   -4   -2   24     -0.02      0.00 
   -5   -2   24     -0.24      0.00 
    2   -3   24     -0.40      0.00 
    1   -3   24     -0.44      0.00 
    0   -3   24     -0.15      0.00 
   -1   -3   24      0.32      0.00 
   -2   -3   24      0.66      0.00 
   -3   -3   24      0.65      0.00 
   -4   -3   24      0.36      0.00 
   -1   -4   24     -0.40      0.00 
   -2   -4   24     -0.44      0.00 
    4   15   23     -0.19      0.00 
    3   15   23     -0.14      0.00 
    2   15   23     -0.15      0.00 
    5   14   23     -0.01      0.00 
    4   14   23     -0.26      0.00 
    3   14   23     -0.47      0.00 
    2   14   23     -0.48      0.00 
    1   14   23     -0.33      0.00 
    0   14   23     -0.21      0.00 
   -1   14   23     -0.25      0.00 
    6   13   23     -0.24      0.00 
    5   13   23     -0.12      0.00 
    4   13   23      0.23      0.00 
    3   13   23      0.58      0.00 
    2   13   23      0.70      0.00 
    1   13   23      0.56      0.00 
    0   13   23      0.30      0.00 
   -1   13   23      0.11      0.00 
   -2   13   23      0.05      0.00 
    7   12   23      0.09      0.00 
    6   12   23      0.04      0.00 
    5   12   23     -0.14      0.00 
    4   12   23     -0.29      0.00 
    3   12   23     -0.23      0.00 
    2   12   23     -0.03      0.00 
    1   12   23      0.18      0.00 
    0   12   23      0.28      0.00 
   -1   12   23      0.32      0.00 
   -2   12   23      0.33      0.00 
   -3   12   23      0.29      0.00 
   -4   12   23      0.15      0.00 
    8   11   23      0.23      0.00 
    7   11   23      0.27      0.00 
    6   11   23      0.37      0.00 
    5   11   23      0.34      0.00 
    4   11   23      0.11      0.00 
    3   11   23     -0.19      0.00 
    2   11   23     -0.37      0.00 
    1   11   23     -0.35      0.00 
    0   11   23     -0.23      0.00 
   -1   11   23     -0.12      0.00 
   -2   11   23     -0.04      0.00 
   -3   11   23      0.03      0.00 
   -4   11   23      0.10      0.00 
    8   10   23      0.15      0.00 
    7   10   23     -0.07      0.00 
    6   10   23     -0.23      0.00 
    5   10   23     -0.09      0.00 
    4   10   23      0.28      0.00 
    3   10   23      0.57      0.00 
    2   10   23      0.56      0.00 
    1   10   23      0.32      0.00 
    0   10   23      0.04      0.00 
   -1   10   23     -0.14      0.00 
   -2   10   23     -0.17      0.00 
   -3   10   23     -0.07      0.00 
    9    9   23      0.20      0.00 
    8    9   23      0.15      0.00 
    7    9   23      0.02      0.00 
    6    9   23     -0.22      0.00 
    5    9   23     -0.45      0.00 
    4    9   23     -0.50      0.00 
    3    9   23     -0.37      0.00 
    2    9   23     -0.22      0.00 
    1    9   23     -0.18      0.00 
    0    9   23     -0.22      0.00 
   -1    9   23     -0.25      0.00 
   -2    9   23     -0.24      0.00 
   -3    9   23     -0.20      0.00 
    9    8   23     -0.65      0.00 
    8    8   23     -0.72      0.00 
    7    8   23     -0.49      0.00 
    6    8   23     -0.06      0.00 
    5    8   23      0.29      0.00 
    4    8   23      0.41      0.00 
    3    8   23      0.35      0.00 
    2    8   23      0.22      0.00 
    1    8   23      0.05      0.00 
    0    8   23     -0.12      0.00 
   -1    8   23     -0.16      0.00 
   -2    8   23     -0.09      0.00 
   -7    8   23     -0.78      0.00 
    9    7   23     -0.13      0.00 
    8    7   23      0.04      0.00 
    7    7   23      0.11      0.00 
    6    7   23      0.14      0.00 
    5    7   23      0.21      0.00 
    4    7   23      0.25      0.00 
    3    7   23      0.16      0.00 
    2    7   23      0.01      0.00 
    1    7   23     -0.02      0.00 
    0    7   23      0.07      0.00 
   -1    7   23      0.18      0.00 
   -2    7   23      0.23      0.00 
   -3    7   23      0.25      0.00 
    9    6   23      0.22      0.00 
    8    6   23      0.14      0.00 
    7    6   23      0.11      0.00 
    6    6   23      0.09      0.00 
    5    6   23     -0.01      0.00 
    4    6   23     -0.19      0.00 
    3    6   23     -0.34      0.00 
    2    6   23     -0.33      0.00 
    1    6   23     -0.10      0.00 
    0    6   23      0.24      0.00 
   -1    6   23      0.43      0.00 
   -2    6   23      0.34      0.00 
   -3    6   23      0.17      0.00 
   -8    6   23      0.72      0.00 
    9    5   23     -0.24      0.00 
    8    5   23     -0.20      0.00 
    7    5   23     -0.12      0.00 
    6    5   23     -0.10      0.00 
    5    5   23     -0.16      0.00 
    4    5   23     -0.14      0.00 
    3    5   23      0.05      0.00 
    2    5   23      0.23      0.00 
    1    5   23      0.12      0.00 
    0    5   23     -0.23      0.00 
   -1    5   23     -0.38      0.00 
   -2    5   23     -0.12      0.00 
   -3    5   23      0.22      0.00 
   -4    5   23      0.18      0.00 
   -5    5   23     -0.22      0.00 
   -6    5   23     -0.48      0.00 
    9    4   23      0.15      0.00 
    8    4   23      0.25      0.00 
    7    4   23      0.32      0.00 
    6    4   23      0.38      0.00 
    5    4   23      0.45      0.00 
    4    4   23      0.40      0.00 
    3    4   23      0.15      0.00 
    2    4   23     -0.16      0.00 
    1    4   23     -0.28      0.00 
    0    4   23     -0.20      0.00 
   -1    4   23     -0.12      0.00 
   -2    4   23     -0.20      0.00 
   -3    4   23     -0.32      0.00 
   -4    4   23     -0.38      0.00 
   -5    4   23     -0.42      0.00 
   -6    4   23     -0.53      0.00 
    9    3   23      0.07      0.00 
    8    3   23      0.13      0.00 
    7    3   23      0.07      0.00 
    6    3   23     -0.25      0.00 
    5    3   23     -0.61      0.00 
    4    3   23     -0.66      0.00 
    3    3   23     -0.30      0.00 
    2    3   23      0.15      0.00 
    1    3   23      0.37      0.00 
    0    3   23      0.36      0.00 
   -1    3   23      0.31      0.00 
   -2    3   23      0.23      0.00 
   -3    3   23      0.03      0.00 
   -4    3   23     -0.23      0.00 
   -5    3   23     -0.27      0.00 
   -6    3   23      0.02      0.00 
   -7    3   23      0.37      0.00 
    8    2   23      0.11      0.00 
    7    2   23     -0.12      0.00 
    6    2   23     -0.30      0.00 
    5    2   23     -0.24      0.00 
    4    2   23     -0.03      0.00 
    3    2   23      0.15      0.00 
    2    2   23      0.18      0.00 
    1    2   23      0.07      0.00 
    0    2   23     -0.11      0.00 
   -1    2   23     -0.26      0.00 
   -2    2   23     -0.29      0.00 
   -3    2   23     -0.12      0.00 
   -4    2   23      0.21      0.00 
   -5    2   23      0.54      0.00 
   -6    2   23      0.68      0.00 
   -7    2   23      0.54      0.00 
   -8    2   23      0.24      0.00 
    8    1   23     -0.31      0.00 
    7    1   23     -0.06      0.00 
    6    1   23      0.46      0.00 
    5    1   23      0.93      0.00 
    4    1   23      0.89      0.00 
    3    1   23      0.30      0.00 
    2    1   23     -0.38      0.00 
    1    1   23     -0.56      0.00 
    0    1   23     -0.13      0.00 
   -1    1   23      0.47      0.00 
   -2    1   23      0.75      0.00 
   -3    1   23      0.60      0.00 
   -4    1   23      0.29      0.00 
   -5    1   23      0.05      0.00 
   -6    1   23     -0.04      0.00 
   -7    1   23     -0.02      0.00 
   -8    1   23      0.05      0.00 
    7    0   23      0.41      0.00 
    6    0   23      0.03      0.00 
    5    0   23     -0.45      0.00 
    4    0   23     -0.75      0.00 
    3    0   23     -0.72      0.00 
    2    0   23     -0.48      0.00 
    1    0   23     -0.28      0.00 
    0    0   23     -0.25      0.00 
   -1    0   23     -0.33      0.00 
   -2    0   23     -0.42      0.00 
   -3    0   23     -0.45      0.00 
   -4    0   23     -0.43      0.00 
   -5    0   23     -0.34      0.00 
   -6    0   23     -0.20      0.00 
   -7    0   23     -0.11      0.00 
   -8    0   23     -0.11      0.00 
    6   -1   23     -0.33      0.00 
    5   -1   23     -0.26      0.00 
    4   -1   23     -0.06      0.00 
    3   -1   23      0.22      0.00 
    2   -1   23      0.48      0.00 
    1   -1   23      0.54      0.00 
    0   -1   23      0.28      0.00 
   -1   -1   23     -0.14      0.00 
   -2   -1   23     -0.41      0.00 
   -3   -1   23     -0.31      0.00 
   -4   -1   23      0.02      0.00 
   -5   -1   23      0.21      0.00 
   -6   -1   23      0.06      0.00 
   -7   -1   23     -0.24      0.00 
   -8   -1   23     -0.37      0.00 
    5   -2   23      0.23      0.00 
    4   -2   23      0.26      0.00 
    3   -2   23      0.33      0.00 
    2   -2   23      0.39      0.00 
    1   -2   23      0.31      0.00 
    0   -2   23      0.11      0.00 
   -1   -2   23     -0.05      0.00 
   -2   -2   23     -0.02      0.00 
   -3   -2   23      0.10      0.00 
   -4   -2   23      0.13      0.00 
   -5   -2   23      0.07      0.00 
   -6   -2   23      0.03      0.00 
   -7   -2   23      0.07      0.00 
    4   -3   23     -0.33      0.00 
    3   -3   23     -0.39      0.00 
    2   -3   23     -0.40      0.00 
    1   -3   23     -0.19      0.00 
    0   -3   23      0.18      0.00 
   -1   -3   23      0.41      0.00 
   -2   -3   23      0.23      0.00 
   -3   -3   23     -0.30      0.00 
   -4   -3   23     -0.79      0.00 
   -5   -3   23     -0.87      0.00 
   -6   -3   23     -0.57      0.00 
    3   -4   23      0.49      0.00 
    2   -4   23      0.37      0.00 
    1   -4   23     -0.07      0.00 
    0   -4   23     -0.43      0.00 
   -1   -4   23     -0.37      0.00 
   -2   -4   23      0.12      0.00 
   -3   -4   23      0.72      0.00 
   -4   -4   23      1.02      0.00 
   -5   -4   23      0.88      0.00 
   -6   -4   23      0.43      0.00 
    1   -5   23      0.17      0.00 
    0   -5   23      0.22      0.00 
   -1   -5   23      0.17      0.00 
   -2   -5   23      0.06      0.00 
   -3   -5   23     -0.03      0.00 
   -4   -5   23     -0.03      0.00 
    4   16   22     -0.19      0.00 
    3   16   22     -0.18      0.00 
    2   16   22     -0.04      0.00 
    5   15   22      0.08      0.00 
    4   15   22      0.15      0.00 
    3   15   22      0.14      0.00 
    2   15   22      0.10      0.00 
    1   15   22      0.10      0.00 
    0   15   22      0.18      0.00 
   -1   15   22      0.26      0.00 
    7   14   22     -0.14      0.00 
    6   14   22     -0.18      0.00 
    5   14   22     -0.22      0.00 
    4   14   22     -0.27      0.00 
    3   14   22     -0.29      0.00 
    2   14   22     -0.28      0.00 
    1   14   22     -0.23      0.00 
    0   14   22     -0.13      0.00 
   -1   14   22     -0.03      0.00 
   -2   14   22      0.04      0.00 
    8   13   22      0.37      0.00 
    7   13   22      0.20      0.00 
    6   13   22     -0.02      0.00 
    5   13   22     -0.14      0.00 
    4   13   22     -0.15      0.00 
    3   13   22     -0.08      0.00 
    2   13   22      0.02      0.00 
    1   13   22      0.08      0.00 
    0   13   22      0.00      0.00 
   -1   13   22     -0.21      0.00 
   -2   13   22     -0.40      0.00 
   -3   13   22     -0.41      0.00 
   -4   13   22     -0.22      0.00 
    9   12   22     -0.39      0.00 
    8   12   22     -0.24      0.00 
    7   12   22     -0.03      0.00 
    6   12   22      0.07      0.00 
    5   12   22      0.05      0.00 
    4   12   22      0.00      0.00 
    3   12   22      0.00      0.00 
    2   12   22      0.02      0.00 
    1   12   22      0.04      0.00 
    0   12   22      0.06      0.00 
   -1   12   22      0.08      0.00 
   -2   12   22      0.08      0.00 
   -3   12   22      0.05      0.00 
   -4   12   22      0.00      0.00 
   -5   12   22     -0.03      0.00 
    9   11   22     -0.01      0.00 
    8   11   22     -0.18      0.00 
    7   11   22     -0.15      0.00 
    6   11   22     -0.01      0.00 
    5   11   22      0.04      0.00 
    4   11   22      0.00      0.00 
    3   11   22      0.04      0.00 
    2   11   22      0.19      0.00 
    1   11   22      0.29      0.00 
    0   11   22      0.25      0.00 
   -1   11   22      0.18      0.00 
   -2   11   22      0.19      0.00 
   -3   11   22      0.21      0.00 
   -4   11   22      0.08      0.00 
   -5   11   22     -0.18      0.00 
   10   10   22      0.11      0.00 
    9   10   22      0.41      0.00 
    8   10   22      0.49      0.00 
    7   10   22      0.30      0.00 
    6   10   22      0.08      0.00 
    5   10   22      0.07      0.00 
    4   10   22      0.19      0.00 
    3   10   22      0.21      0.00 
    2   10   22      0.12      0.00 
    1   10   22      0.05      0.00 
    0   10   22      0.06      0.00 
   -1   10   22      0.06      0.00 
   -2   10   22     -0.01      0.00 
   -3   10   22     -0.07      0.00 
   -4   10   22     -0.03      0.00 
   10    9   22      0.36      0.00 
    9    9   22      0.38      0.00 
    8    9   22      0.44      0.00 
    7    9   22      0.36      0.00 
    6    9   22      0.06      0.00 
    5    9   22     -0.29      0.00 
    4    9   22     -0.45      0.00 
    3    9   22     -0.39      0.00 
    2    9   22     -0.29      0.00 
    1    9   22     -0.28      0.00 
    0    9   22     -0.35      0.00 
   -1    9   22     -0.41      0.00 
   -2    9   22     -0.40      0.00 
   -3    9   22     -0.25      0.00 
   -4    9   22      0.08      0.00 
   -7    9   22      0.79      0.00 
   10    8   22     -0.03      0.00 
    9    8   22     -0.43      0.00 
    8    8   22     -0.73      0.00 
    7    8   22     -0.63      0.00 
    6    8   22     -0.24      0.00 
    5    8   22      0.12      0.00 
    4    8   22      0.27      0.00 
    3    8   22      0.31      0.00 
    2    8   22      0.33      0.00 
    1    8   22      0.28      0.00 
    0    8   22      0.16      0.00 
   -1    8   22      0.13      0.00 
   -2    8   22      0.27      0.00 
   -3    8   22      0.45      0.00 
   -6    8   22     -0.13      0.00 
   -7    8   22     -0.23      0.00 
   -8    8   22     -0.15      0.00 
   11    7   22     -0.29      0.00 
   10    7   22     -0.25      0.00 
    9    7   22     -0.04      0.00 
    8    7   22      0.05      0.00 
    7    7   22     -0.12      0.00 
    6    7   22     -0.29      0.00 
    5    7   22     -0.19      0.00 
    4    7   22      0.07      0.00 
    3    7   22      0.20      0.00 
    2    7   22      0.05      0.00 
    1    7   22     -0.21      0.00 
    0    7   22     -0.35      0.00 
   -1    7   22     -0.31      0.00 
   -2    7   22     -0.20      0.00 
   -3    7   22     -0.22      0.00 
   -6    7   22     -0.83      0.00 
   -7    7   22     -0.64      0.00 
   -8    7   22     -0.29      0.00 
   10    6   22     -0.24      0.00 
    9    6   22     -0.25      0.00 
    8    6   22     -0.08      0.00 
    7    6   22      0.17      0.00 
    6    6   22      0.30      0.00 
    5    6   22      0.17      0.00 
    4    6   22     -0.08      0.00 
    3    6   22     -0.22      0.00 
    2    6   22     -0.12      0.00 
    1    6   22      0.13      0.00 
    0    6   22      0.24      0.00 
   -1    6   22      0.02      0.00 
   -2    6   22     -0.40      0.00 
   -3    6   22     -0.61      0.00 
   -4    6   22     -0.40      0.00 
   -5    6   22      0.03      0.00 
   -7    6   22      0.14      0.00 
   -8    6   22     -0.08      0.00 
   10    5   22      0.04      0.00 
    9    5   22     -0.12      0.00 
    8    5   22     -0.22      0.00 
    7    5   22     -0.16      0.00 
    6    5   22     -0.01      0.00 
    5    5   22      0.09      0.00 
    4    5   22      0.09      0.00 
    3    5   22      0.02      0.00 
    2    5   22     -0.07      0.00 
    1    5   22     -0.11      0.00 
    0    5   22      0.02      0.00 
   -1    5   22      0.40      0.00 
   -2    5   22      0.85      0.00 
   -3    5   22      1.05      0.00 
   -4    5   22      0.92      0.00 
   -5    5   22      0.66      0.00 
   -6    5   22      0.51      0.00 
   -7    5   22      0.45      0.00 
   -8    5   22      0.33      0.00 
   -9    5   22      0.14      0.00 
   10    4   22     -0.02      0.00 
    9    4   22      0.14      0.00 
    8    4   22      0.22      0.00 
    7    4   22      0.29      0.00 
    6    4   22      0.43      0.00 
    5    4   22      0.59      0.00 
    4    4   22      0.56      0.00 
    3    4   22      0.30      0.00 
    2    4   22     -0.02      0.00 
    1    4   22     -0.23      0.00 
    0    4   22     -0.29      0.00 
   -1    4   22     -0.26      0.00 
   -2    4   22     -0.12      0.00 
   -3    4   22      0.03      0.00 
   -4    4   22      0.02      0.00 
   -5    4   22     -0.23      0.00 
   -6    4   22     -0.50      0.00 
   -7    4   22     -0.48      0.00 
   -8    4   22     -0.14      0.00 
   -9    4   22      0.20      0.00 
   10    3   22     -0.19      0.00 
    9    3   22     -0.21      0.00 
    8    3   22      0.02      0.00 
    7    3   22      0.18      0.00 
    6    3   22      0.00      0.00 
    5    3   22     -0.37      0.00 
    4    3   22     -0.50      0.00 
    3    3   22     -0.17      0.00 
    2    3   22      0.39      0.00 
    1    3   22      0.78      0.00 
    0    3   22      0.77      0.00 
   -1    3   22      0.40      0.00 
   -2    3   22     -0.11      0.00 
   -3    3   22     -0.51      0.00 
   -4    3   22     -0.64      0.00 
   -5    3   22     -0.52      0.00 
   -6    3   22     -0.26      0.00 
   -7    3   22     -0.05      0.00 
   -8    3   22      0.04      0.00 
   -9    3   22     -0.03      0.00 
    9    2   22      0.47      0.00 
    8    2   22      0.32      0.00 
    7    2   22     -0.04      0.00 
    6    2   22     -0.40      0.00 
    5    2   22     -0.53      0.00 
    4    2   22     -0.34      0.00 
    3    2   22     -0.05      0.00 
    2    2   22     -0.03      0.00 
    1    2   22     -0.37      0.00 
    0    2   22     -0.76      0.00 
   -1    2   22     -0.81      0.00 
   -2    2   22     -0.46      0.00 
   -3    2   22     -0.02      0.00 
   -4    2   22      0.26      0.00 
   -5    2   22      0.36      0.00 
   -6    2   22      0.36      0.00 
   -7    2   22      0.20      0.00 
   -8    2   22     -0.11      0.00 
   -9    2   22     -0.38      0.00 
    9    1   22     -0.41      0.00 
    8    1   22     -0.45      0.00 
    7    1   22     -0.30      0.00 
    6    1   22      0.03      0.00 
    5    1   22      0.31      0.00 
    4    1   22      0.27      0.00 
    3    1   22     -0.06      0.00 
    2    1   22     -0.35      0.00 
    1    1   22     -0.25      0.00 
    0    1   22      0.20      0.00 
   -1    1   22      0.65      0.00 
   -2    1   22      0.77      0.00 
   -3    1   22      0.53      0.00 
   -4    1   22      0.13      0.00 
   -5    1   22     -0.21      0.00 
   -6    1   22     -0.32      0.00 
   -7    1   22     -0.15      0.00 
   -8    1   22      0.14      0.00 
   -9    1   22      0.31      0.00 
    8    0   22      0.57      0.00 
    7    0   22      0.55      0.00 
    6    0   22      0.25      0.00 
    5    0   22     -0.09      0.00 
    4    0   22     -0.29      0.00 
    3    0   22     -0.35      0.00 
    2    0   22     -0.33      0.00 
    1    0   22     -0.19      0.00 
    0    0   22      0.06      0.00 
   -1    0   22      0.27      0.00 
   -2    0   22      0.21      0.00 
   -3    0   22     -0.07      0.00 
   -4    0   22     -0.24      0.00 
   -5    0   22     -0.05      0.00 
   -6    0   22      0.36      0.00 
   -7    0   22      0.60      0.00 
   -8    0   22      0.50      0.00 
   -9    0   22      0.26      0.00 
    7   -1   22     -0.40      0.00 
    6   -1   22     -0.33      0.00 
    5   -1   22     -0.06      0.00 
    4   -1   22      0.21      0.00 
    3   -1   22      0.34      0.00 
    2   -1   22      0.32      0.00 
    1   -1   22      0.13      0.00 
    0   -1   22     -0.23      0.00 
   -1   -1   22     -0.63      0.00 
   -2   -1   22     -0.78      0.00 
   -3   -1   22     -0.49      0.00 
   -4   -1   22      0.09      0.00 
   -5   -1   22      0.48      0.00 
   -6   -1   22      0.42      0.00 
   -7   -1   22      0.07      0.00 
   -8   -1   22     -0.19      0.00 
   -9   -1   22     -0.18      0.00 
    6   -2   22      0.45      0.00 
    5   -2   22      0.28      0.00 
    4   -2   22      0.03      0.00 
    3   -2   22     -0.10      0.00 
    2   -2   22     -0.07      0.00 
    1   -2   22     -0.01      0.00 
    0   -2   22      0.03      0.00 
   -1   -2   22      0.13      0.00 
   -2   -2   22      0.33      0.00 
   -3   -2   22      0.45      0.00 
   -4   -2   22      0.31      0.00 
   -5   -2   22     -0.05      0.00 
   -6   -2   22     -0.35      0.00 
   -7   -2   22     -0.41      0.00 
   -8   -2   22     -0.27      0.00 
    5   -3   22     -0.28      0.00 
    4   -3   22     -0.35      0.00 
    3   -3   22     -0.22      0.00 
    2   -3   22      0.11      0.00 
    1   -3   22      0.46      0.00 
    0   -3   22      0.56      0.00 
   -1   -3   22      0.30      0.00 
   -2   -3   22     -0.20      0.00 
   -3   -3   22     -0.65      0.00 
   -4   -3   22     -0.80      0.00 
   -5   -3   22     -0.63      0.00 
   -6   -3   22     -0.33      0.00 
   -7   -3   22     -0.11      0.00 
   -8   -3   22     -0.09      0.00 
    4   -4   22      0.04      0.00 
    3   -4   22      0.34      0.00 
    2   -4   22      0.20      0.00 
    1   -4   22     -0.24      0.00 
    0   -4   22     -0.59      0.00 
   -1   -4   22     -0.62      0.00 
   -2   -4   22     -0.36      0.00 
   -3   -4   22     -0.01      0.00 
   -4   -4   22      0.25      0.00 
   -5   -4   22      0.32      0.00 
   -6   -4   22      0.21      0.00 
   -7   -4   22      0.03      0.00 
    3   -5   22      0.29      0.00 
    2   -5   22      0.24      0.00 
    1   -5   22      0.21      0.00 
    0   -5   22      0.25      0.00 
   -2   -5   22      0.55      0.00 
   -3   -5   22      0.49      0.00 
   -4   -5   22      0.14      0.00 
   -5   -5   22     -0.30      0.00 
   -6   -5   22     -0.53      0.00 
   -7   -5   22     -0.43      0.00 
    1   -6   22     -0.20      0.00 
    0   -6   22     -0.17      0.00 
   -1   -6   22     -0.15      0.00 
   -2   -6   22     -0.10      0.00 
   -3   -6   22      0.00      0.00 
   -4   -6   22      0.16      0.00 
   -5   -6   22      0.40      0.00 
   -6   -6   22      0.68      0.00 
   -1   -7   22      0.18      0.00 
   -2   -7   22      0.08      0.00 
   -3   -7   22     -0.03      0.00 
    4   17   21      0.33      0.00 
    5   16   21      0.07      0.00 
    4   16   21      0.01      0.00 
    3   16   21     -0.07      0.00 
    2   16   21     -0.12      0.00 
    1   16   21     -0.13      0.00 
    7   15   21      0.33      0.00 
    6   15   21      0.20      0.00 
    5   15   21      0.04      0.00 
    4   15   21     -0.05      0.00 
    3   15   21     -0.01      0.00 
    2   15   21      0.07      0.00 
    1   15   21      0.06      0.00 
    0   15   21     -0.08      0.00 
   -1   15   21     -0.23      0.00 
   -2   15   21     -0.27      0.00 
    9   14   21     -0.78      0.00 
    8   14   21     -0.55      0.00 
    7   14   21     -0.13      0.00 
    6   14   21      0.19      0.00 
    5   14   21      0.24      0.00 
    4   14   21      0.07      0.00 
    3   14   21     -0.14      0.00 
    2   14   21     -0.21      0.00 
    1   14   21     -0.06      0.00 
    0   14   21      0.21      0.00 
   -1   14   21      0.39      0.00 
   -2   14   21      0.34      0.00 
   -3   14   21      0.12      0.00 
    9   13   21      0.15      0.00 
    8   13   21     -0.15      0.00 
    7   13   21     -0.46      0.00 
    6   13   21     -0.55      0.00 
    5   13   21     -0.34      0.00 
    4   13   21      0.00      0.00 
    3   13   21      0.24      0.00 
    2   13   21      0.26      0.00 
    1   13   21      0.15      0.00 
    0   13   21      0.07      0.00 
   -1   13   21      0.07      0.00 
   -2   13   21      0.09      0.00 
   -3   13   21      0.09      0.00 
   -4   13   21      0.10      0.00 
   -5   13   21      0.15      0.00 
   10   12   21     -0.09      0.00 
    9   12   21      0.24      0.00 
    8   12   21      0.45      0.00 
    7   12   21      0.37      0.00 
    6   12   21      0.06      0.00 
    5   12   21     -0.32      0.00 
    4   12   21     -0.61      0.00 
    3   12   21     -0.68      0.00 
    2   12   21     -0.52      0.00 
    1   12   21     -0.26      0.00 
    0   12   21     -0.12      0.00 
   -1   12   21     -0.19      0.00 
   -2   12   21     -0.35      0.00 
   -3   12   21     -0.37      0.00 
   -4   12   21     -0.17      0.00 
   -5   12   21      0.11      0.00 
   -6   12   21      0.27      0.00 
   10   11   21     -0.29      0.00 
    9   11   21     -0.50      0.00 
    8   11   21     -0.41      0.00 
    7   11   21     -0.05      0.00 
    6   11   21      0.28      0.00 
    5   11   21      0.35      0.00 
    4   11   21      0.21      0.00 
    3   11   21      0.10      0.00 
    2   11   21      0.08      0.00 
    1   11   21      0.06      0.00 
    0   11   21      0.00      0.00 
   -1   11   21     -0.01      0.00 
   -2   11   21      0.07      0.00 
   -3   11   21      0.14      0.00 
   -4   11   21      0.09      0.00 
   -5   11   21     -0.05      0.00 
   -6   11   21     -0.18      0.00 
   11   10   21      0.22      0.00 
   10   10   21      0.36      0.00 
    9   10   21      0.34      0.00 
    8   10   21      0.14      0.00 
    7   10   21     -0.06      0.00 
    6   10   21     -0.03      0.00 
    5   10   21      0.23      0.00 
    4   10   21      0.52      0.00 
    3   10   21      0.69      0.00 
    2   10   21      0.73      0.00 
    1   10   21      0.69      0.00 
    0   10   21      0.60      0.00 
   -1   10   21      0.44      0.00 
   -2   10   21      0.25      0.00 
   -3   10   21      0.06      0.00 
   -4   10   21     -0.16      0.00 
   -5   10   21     -0.41      0.00 
   11    9   21      0.16      0.00 
   10    9   21      0.31      0.00 
    9    9   21      0.58      0.00 
    8    9   21      0.68      0.00 
    7    9   21      0.39      0.00 
    6    9   21     -0.16      0.00 
    5    9   21     -0.60      0.00 
    4    9   21     -0.73      0.00 
    3    9   21     -0.65      0.00 
    2    9   21     -0.55      0.00 
    1    9   21     -0.47      0.00 
    0    9   21     -0.40      0.00 
   -1    9   21     -0.42      0.00 
   -2    9   21     -0.52      0.00 
   -3    9   21     -0.53      0.00 
   -4    9   21     -0.24      0.00 
   -5    9   21      0.26      0.00 
   -7    9   21      0.50      0.00 
   -8    9   21      0.18      0.00 
   11    8   21     -0.01      0.00 
   10    8   21     -0.31      0.00 
    9    8   21     -0.65      0.00 
    8    8   21     -0.62      0.00 
    7    8   21     -0.14      0.00 
    6    8   21      0.36      0.00 
    5    8   21      0.49      0.00 
    4    8   21      0.34      0.00 
    3    8   21      0.20      0.00 
    2    8   21      0.17      0.00 
    1    8   21      0.08      0.00 
    0    8   21     -0.09      0.00 
   -1    8   21     -0.16      0.00 
   -2    8   21      0.01      0.00 
   -3    8   21      0.29      0.00 
   -4    8   21      0.40      0.00 
   -5    8   21      0.26      0.00 
   -6    8   21      0.04      0.00 
   -7    8   21     -0.11      0.00 
   -8    8   21     -0.14      0.00 
   11    7   21      0.21      0.00 
   10    7   21      0.33      0.00 
    9    7   21      0.34      0.00 
    8    7   21      0.05      0.00 
    7    7   21     -0.34      0.00 
    6    7   21     -0.46      0.00 
    5    7   21     -0.24      0.00 
    4    7   21      0.02      0.00 
    3    7   21      0.08      0.00 
    2    7   21      0.00      0.00 
    1    7   21      0.01      0.00 
    0    7   21      0.15      0.00 
   -1    7   21      0.35      0.00 
   -2    7   21      0.51      0.00 
   -3    7   21      0.52      0.00 
   -5    7   21      0.02      0.00 
   -6    7   21     -0.17      0.00 
   -7    7   21     -0.05      0.00 
   -8    7   21      0.26      0.00 
   -9    7   21      0.49      0.00 
   11    6   21     -0.14      0.00 
   10    6   21     -0.06      0.00 
    9    6   21      0.10      0.00 
    8    6   21      0.21      0.00 
    7    6   21      0.12      0.00 
    6    6   21     -0.16      0.00 
    5    6   21     -0.41      0.00 
    4    6   21     -0.43      0.00 
    3    6   21     -0.26      0.00 
    2    6   21     -0.11      0.00 
    1    6   21     -0.11      0.00 
    0    6   21     -0.26      0.00 
   -1    6   21     -0.52      0.00 
   -2    6   21     -0.78      0.00 
   -3    6   21     -0.85      0.00 
   -4    6   21     -0.59      0.00 
   -5    6   21     -0.13      0.00 
   -6    6   21      0.20      0.00 
   -7    6   21      0.24      0.00 
   -8    6   21      0.07      0.00 
   -9    6   21     -0.10      0.00 
   11    5   21     -0.13      0.00 
   10    5   21     -0.45      0.00 
    9    5   21     -0.65      0.00 
    8    5   21     -0.56      0.00 
    7    5   21     -0.25      0.00 
    6    5   21      0.02      0.00 
    5    5   21      0.14      0.00 
    4    5   21      0.18      0.00 
    3    5   21      0.27      0.00 
    2    5   21      0.33      0.00 
    1    5   21      0.24      0.00 
    0    5   21      0.04      0.00 
   -1    5   21     -0.04      0.00 
   -2    5   21      0.08      0.00 
   -3    5   21      0.24      0.00 
   -4    5   21      0.26      0.00 
   -5    5   21      0.14      0.00 
   -6    5   21     -0.01      0.00 
   -7    5   21     -0.15      0.00 
   -8    5   21     -0.27      0.00 
   -9    5   21     -0.33      0.00 
  -10    5   21     -0.25      0.00 
   11    4   21      0.17      0.00 
   10    4   21      0.29      0.00 
    9    4   21      0.23      0.00 
    8    4   21      0.10      0.00 
    7    4   21      0.19      0.00 
    6    4   21      0.55      0.00 
    5    4   21      0.81      0.00 
    4    4   21      0.57      0.00 
    3    4   21     -0.12      0.00 
    2    4   21     -0.71      0.00 
    1    4   21     -0.73      0.00 
    0    4   21     -0.26      0.00 
   -1    4   21      0.26      0.00 
   -2    4   21      0.50      0.00 
   -3    4   21      0.45      0.00 
   -4    4   21      0.23      0.00 
   -5    4   21     -0.01      0.00 
   -6    4   21     -0.17      0.00 
   -7    4   21     -0.15      0.00 
   -8    4   21      0.08      0.00 
   -9    4   21      0.38      0.00 
  -10    4   21      0.54      0.00 
   11    3   21     -0.46      0.00 
   10    3   21     -0.51      0.00 
    9    3   21     -0.27      0.00 
    8    3   21      0.10      0.00 
    7    3   21      0.29      0.00 
    6    3   21      0.15      0.00 
    5    3   21     -0.12      0.00 
    4    3   21     -0.15      0.00 
    3    3   21      0.17      0.00 
    2    3   21      0.61      0.00 
    1    3   21      0.84      0.00 
    0    3   21      0.70      0.00 
   -1    3   21      0.34      0.00 
   -2    3   21     -0.03      0.00 
   -3    3   21     -0.29      0.00 
   -4    3   21     -0.43      0.00 
   -5    3   21     -0.45      0.00 
   -6    3   21     -0.32      0.00 
   -7    3   21     -0.05      0.00 
   -8    3   21      0.16      0.00 
   -9    3   21      0.10      0.00 
  -10    3   21     -0.18      0.00 
   10    2   21      0.27      0.00 
    9    2   21      0.25      0.00 
    8    2   21      0.13      0.00 
    7    2   21     -0.08      0.00 
    6    2   21     -0.32      0.00 
    5    2   21     -0.37      0.00 
    4    2   21     -0.12      0.00 
    3    2   21      0.29      0.00 
    2    2   21      0.49      0.00 
    1    2   21      0.25      0.00 
    0    2   21     -0.26      0.00 
   -1    2   21     -0.62      0.00 
   -2    2   21     -0.54      0.00 
   -3    2   21     -0.07      0.00 
   -4    2   21      0.46      0.00 
   -5    2   21      0.74      0.00 
   -6    2   21      0.60      0.00 
   -7    2   21      0.17      0.00 
   -8    2   21     -0.22      0.00 
   -9    2   21     -0.33      0.00 
  -10    2   21     -0.18      0.00 
   10    1   21     -0.04      0.00 
    9    1   21     -0.23      0.00 
    8    1   21     -0.23      0.00 
    7    1   21      0.08      0.00 
    6    1   21      0.49      0.00 
    5    1   21      0.63      0.00 
    4    1   21      0.36      0.00 
    3    1   21     -0.12      0.00 
    2    1   21     -0.47      0.00 
    1    1   21     -0.50      0.00 
    0    1   21     -0.21      0.00 
   -1    1   21      0.23      0.00 
   -2    1   21      0.57      0.00 
   -3    1   21      0.58      0.00 
   -4    1   21      0.20      0.00 
   -5    1   21     -0.29      0.00 
   -6    1   21     -0.50      0.00 
   -7    1   21     -0.35      0.00 
   -8    1   21     -0.11      0.00 
   -9    1   21     -0.09      0.00 
  -10    1   21     -0.24      0.00 
    9    0   21      0.28      0.00 
    8    0   21      0.55      0.00 
    7    0   21      0.31      0.00 
    6    0   21     -0.32      0.00 
    5    0   21     -0.86      0.00 
    4    0   21     -0.98      0.00 
    3    0   21     -0.76      0.00 
    2    0   21     -0.41      0.00 
    1    0   21     -0.05      0.00 
    0    0   21      0.29      0.00 
   -1    0   21      0.44      0.00 
   -2    0   21      0.18      0.00 
   -3    0   21     -0.40      0.00 
   -4    0   21     -0.89      0.00 
   -5    0   21     -0.86      0.00 
   -6    0   21     -0.38      0.00 
   -7    0   21      0.14      0.00 
   -8    0   21      0.32      0.00 
   -9    0   21      0.19      0.00 
  -10    0   21      0.01      0.00 
    8   -1   21     -0.48      0.00 
    7   -1   21     -0.71      0.00 
    6   -1   21     -0.65      0.00 
    5   -1   21     -0.26      0.00 
    4   -1   21      0.20      0.00 
    3   -1   21      0.41      0.00 
    2   -1   21      0.29      0.00 
    1   -1   21     -0.01      0.00 
    0   -1   21     -0.29      0.00 
   -1   -1   21     -0.43      0.00 
   -2   -1   21     -0.32      0.00 
   -3   -1   21      0.06      0.00 
   -4   -1   21      0.56      0.00 
   -5   -1   21      0.86      0.00 
   -6   -1   21      0.74      0.00 
   -7   -1   21      0.32      0.00 
   -8   -1   21      0.02      0.00 
   -9   -1   21      0.09      0.00 
  -10   -1   21      0.38      0.00 
    7   -2   21      0.52      0.00 
    6   -2   21      0.75      0.00 
    5   -2   21      0.73      0.00 
    4   -2   21      0.38      0.00 
    3   -2   21     -0.07      0.00 
    2   -2   21     -0.38      0.00 
    1   -2   21     -0.43      0.00 
    0   -2   21     -0.31      0.00 
   -1   -2   21     -0.13      0.00 
   -2   -2   21      0.04      0.00 
   -3   -2   21      0.18      0.00 
   -4   -2   21      0.27      0.00 
   -5   -2   21      0.29      0.00 
   -6   -2   21      0.28      0.00 
   -7   -2   21      0.27      0.00 
   -8   -2   21      0.26      0.00 
   -9   -2   21      0.22      0.00 
  -10   -2   21      0.13      0.00 
    7   -3   21      0.44      0.00 
    6   -3   21      0.26      0.00 
    5   -3   21     -0.17      0.00 
    4   -3   21     -0.51      0.00 
    3   -3   21     -0.46      0.00 
    2   -3   21      0.02      0.00 
    1   -3   21      0.61      0.00 
    0   -3   21      0.90      0.00 
   -1   -3   21      0.72      0.00 
   -2   -3   21      0.19      0.00 
   -3   -3   21     -0.41      0.00 
   -4   -3   21     -0.81      0.00 
   -5   -3   21     -0.83      0.00 
   -6   -3   21     -0.53      0.00 
   -7   -3   21     -0.15      0.00 
   -8   -3   21      0.00      0.00 
   -9   -3   21     -0.15      0.00 
  -10   -3   21     -0.39      0.00 
    6   -4   21     -0.71      0.00 
    5   -4   21     -0.49      0.00 
    4   -4   21      0.04      0.00 
    3   -4   21      0.48      0.00 
    2   -4   21      0.49      0.00 
    1   -4   21      0.08      0.00 
    0   -4   21     -0.44      0.00 
   -1   -4   21     -0.68      0.00 
   -2   -4   21     -0.44      0.00 
   -3   -4   21      0.21      0.00 
   -4   -4   21      0.86      0.00 
   -5   -4   21      1.04      0.00 
   -6   -4   21      0.60      0.00 
   -7   -4   21     -0.10      0.00 
   -8   -4   21     -0.53      0.00 
   -9   -4   21     -0.46      0.00 
  -10   -4   21     -0.10      0.00 
    5   -5   21      0.26      0.00 
    4   -5   21      0.30      0.00 
    3   -5   21      0.23      0.00 
    2   -5   21      0.15      0.00 
    1   -5   21      0.10      0.00 
    0   -5   21      0.10      0.00 
   -1   -5   21      0.11      0.00 
   -2   -5   21     -0.02      0.00 
   -3   -5   21     -0.37      0.00 
   -4   -5   21     -0.83      0.00 
   -5   -5   21     -1.16      0.00 
   -6   -5   21     -1.16      0.00 
   -7   -5   21     -0.85      0.00 
   -8   -5   21     -0.35      0.00 
    3   -6   21     -0.34      0.00 
    2   -6   21     -0.22      0.00 
    1   -6   21     -0.18      0.00 
    0   -6   21     -0.20      0.00 
   -1   -6   21     -0.15      0.00 
   -2   -6   21      0.01      0.00 
   -3   -6   21      0.13      0.00 
   -4   -6   21      0.09      0.00 
   -5   -6   21      0.08      0.00 
   -6   -6   21      0.35      0.00 
   -7   -6   21      0.79      0.00 
    2   -7   21      0.54      0.00 
    1   -7   21      0.33      0.00 
    0   -7   21      0.12      0.00 
   -1   -7   21     -0.04      0.00 
   -2   -7   21     -0.13      0.00 
   -3   -7   21     -0.04      0.00 
   -4   -7   21      0.28      0.00 
   -5   -7   21      0.63      0.00 
   -6   -7   21      0.63      0.00 
    0   -8   21     -0.11      0.00 
   -1   -8   21      0.21      0.00 
   -2   -8   21      0.42      0.00 
   -3   -8   21      0.42      0.00 
   -4   -8   21      0.24      0.00 
   -5   -8   21     -0.04      0.00 
    5   17   20      0.06      0.00 
    4   17   20      0.12      0.00 
    3   17   20      0.15      0.00 
    2   17   20      0.15      0.00 
    7   16   20      0.06      0.00 
    6   16   20      0.22      0.00 
    5   16   20      0.27      0.00 
    4   16   20      0.14      0.00 
    3   16   20     -0.07      0.00 
    2   16   20     -0.18      0.00 
    1   16   20     -0.16      0.00 
    0   16   20     -0.06      0.00 
   -1   16   20      0.04      0.00 
    9   15   20      0.53      0.00 
    8   15   20      0.21      0.00 
    7   15   20     -0.09      0.00 
    6   15   20     -0.16      0.00 
    5   15   20     -0.02      0.00 
    4   15   20      0.13      0.00 
    3   15   20      0.10      0.00 
    2   15   20     -0.10      0.00 
    1   15   20     -0.33      0.00 
    0   15   20     -0.40      0.00 
   -1   15   20     -0.25      0.00 
   -2   15   20      0.05      0.00 
   -3   15   20      0.30      0.00 
   10   14   20     -0.07      0.00 
    9   14   20      0.10      0.00 
    8   14   20      0.42      0.00 
    7   14   20      0.62      0.00 
    6   14   20      0.46      0.00 
    5   14   20      0.04      0.00 
    4   14   20     -0.30      0.00 
    3   14   20     -0.35      0.00 
    2   14   20     -0.15      0.00 
    1   14   20      0.03      0.00 
    0   14   20      0.04      0.00 
   -1   14   20     -0.06      0.00 
   -2   14   20     -0.14      0.00 
   -3   14   20     -0.14      0.00 
   -4   14   20     -0.15      0.00 
   10   13   20     -0.32      0.00 
    9   13   20     -0.57      0.00 
    8   13   20     -0.56      0.00 
    7   13   20     -0.28      0.00 
    6   13   20      0.13      0.00 
    5   13   20      0.46      0.00 
    4   13   20      0.57      0.00 
    3   13   20      0.45      0.00 
    2   13   20      0.27      0.00 
    1   13   20      0.25      0.00 
    0   13   20      0.41      0.00 
   -1   13   20      0.54      0.00 
   -2   13   20      0.43      0.00 
   -3   13   20      0.09      0.00 
   -4   13   20     -0.22      0.00 
   -5   13   20     -0.32      0.00 
   11   12   20      0.03      0.00 
   10   12   20      0.08      0.00 
    9   12   20      0.07      0.00 
    8   12   20     -0.07      0.00 
    7   12   20     -0.32      0.00 
    6   12   20     -0.51      0.00 
    5   12   20     -0.52      0.00 
    4   12   20     -0.39      0.00 
    3   12   20     -0.26      0.00 
    2   12   20     -0.21      0.00 
    1   12   20     -0.21      0.00 
    0   12   20     -0.19      0.00 
   -1   12   20     -0.14      0.00 
   -2   12   20     -0.11      0.00 
   -3   12   20     -0.06      0.00 
   -4   12   20      0.04      0.00 
   -5   12   20      0.22      0.00 
   -6   12   20      0.39      0.00 
   11   11   20     -0.54      0.00 
   10   11   20     -0.42      0.00 
    9   11   20     -0.25      0.00 
    8   11   20     -0.06      0.00 
    7   11   20      0.08      0.00 
    6   11   20      0.06      0.00 
    5   11   20     -0.18      0.00 
    4   11   20     -0.48      0.00 
    3   11   20     -0.61      0.00 
    2   11   20     -0.49      0.00 
    1   11   20     -0.27      0.00 
    0   11   20     -0.14      0.00 
   -1   11   20     -0.12      0.00 
   -2   11   20     -0.11      0.00 
   -3   11   20     -0.02      0.00 
   -4   11   20      0.12      0.00 
   -5   11   20      0.22      0.00 
   -6   11   20      0.21      0.00 
   -7   11   20      0.12      0.00 
   12   10   20     -0.07      0.00 
   11   10   20     -0.16      0.00 
   10   10   20     -0.19      0.00 
    9   10   20     -0.16      0.00 
    8   10   20     -0.08      0.00 
    7   10   20      0.08      0.00 
    6   10   20      0.32      0.00 
    5   10   20      0.52      0.00 
    4   10   20      0.60      0.00 
    3   10   20      0.56      0.00 
    2   10   20      0.51      0.00 
    1   10   20      0.49      0.00 
    0   10   20      0.45      0.00 
   -1   10   20      0.38      0.00 
   -2   10   20      0.26      0.00 
   -3   10   20      0.08      0.00 
   -4   10   20     -0.18      0.00 
   -5   10   20     -0.43      0.00 
   -6   10   20     -0.51      0.00 
   12    9   20      0.62      0.00 
   11    9   20      0.87      0.00 
   10    9   20      1.04      0.00 
    9    9   20      1.00      0.00 
    8    9   20      0.67      0.00 
    7    9   20      0.11      0.00 
    6    9   20     -0.38      0.00 
    5    9   20     -0.55      0.00 
    4    9   20     -0.39      0.00 
    3    9   20     -0.12      0.00 
    2    9   20      0.08      0.00 
    1    9   20      0.17      0.00 
    0    9   20      0.11      0.00 
   -1    9   20     -0.09      0.00 
   -2    9   20     -0.35      0.00 
   -3    9   20     -0.43      0.00 
   -4    9   20     -0.20      0.00 
   -5    9   20      0.20      0.00 
   -6    9   20      0.47      0.00 
   -7    9   20      0.42      0.00 
   -8    9   20      0.19      0.00 
   12    8   20     -0.14      0.00 
   11    8   20     -0.18      0.00 
   10    8   20     -0.37      0.00 
    9    8   20     -0.48      0.00 
    8    8   20     -0.28      0.00 
    7    8   20      0.12      0.00 
    6    8   20      0.36      0.00 
    5    8   20      0.31      0.00 
    4    8   20      0.14      0.00 
    3    8   20      0.03      0.00 
    2    8   20     -0.04      0.00 
    1    8   20     -0.16      0.00 
    0    8   20     -0.25      0.00 
   -1    8   20     -0.20      0.00 
   -2    8   20     -0.03      0.00 
   -3    8   20      0.15      0.00 
   -4    8   20      0.23      0.00 
   -5    8   20      0.18      0.00 
   -6    8   20     -0.03      0.00 
   -7    8   20     -0.32      0.00 
   -8    8   20     -0.54      0.00 
   -9    8   20     -0.52      0.00 
   12    7   20      0.04      0.00 
   11    7   20     -0.10      0.00 
   10    7   20     -0.20      0.00 
    9    7   20     -0.29      0.00 
    8    7   20     -0.34      0.00 
    7    7   20     -0.20      0.00 
    6    7   20      0.15      0.00 
    5    7   20      0.46      0.00 
    4    7   20      0.49      0.00 
    3    7   20      0.31      0.00 
    2    7   20      0.14      0.00 
    1    7   20      0.09      0.00 
    0    7   20      0.10      0.00 
   -1    7   20      0.11      0.00 
   -2    7   20      0.12      0.00 
   -3    7   20      0.05      0.00 
   -4    7   20     -0.23      0.00 
   -5    7   20     -0.58      0.00 
   -6    7   20     -0.70      0.00 
   -7    7   20     -0.41      0.00 
   -8    7   20      0.06      0.00 
   -9    7   20      0.34      0.00 
   12    6   20      0.10      0.00 
   11    6   20      0.27      0.00 
   10    6   20      0.42      0.00 
    9    6   20      0.46      0.00 
    8    6   20      0.29      0.00 
    7    6   20     -0.10      0.00 
    6    6   20     -0.52      0.00 
    5    6   20     -0.75      0.00 
    4    6   20     -0.73      0.00 
    3    6   20     -0.55      0.00 
    2    6   20     -0.28      0.00 
    1    6   20      0.00      0.00 
    0    6   20      0.14      0.00 
   -1    6   20      0.01      0.00 
   -2    6   20     -0.26      0.00 
   -3    6   20     -0.29      0.00 
   -4    6   20      0.03      0.00 
   -5    6   20      0.42      0.00 
   -6    6   20      0.55      0.00 
   -7    6   20      0.40      0.00 
   -8    6   20      0.25      0.00 
   -9    6   20      0.21      0.00 
  -10    6   20      0.19      0.00 
   12    5   20     -0.11      0.00 
   11    5   20     -0.21      0.00 
   10    5   20     -0.27      0.00 
    9    5   20     -0.24      0.00 
    8    5   20     -0.17      0.00 
    7    5   20     -0.20      0.00 
    6    5   20     -0.36      0.00 
    5    5   20     -0.44      0.00 
    4    5   20     -0.27      0.00 
    3    5   20      0.02      0.00 
    2    5   20      0.05      0.00 
    1    5   20     -0.24      0.00 
    0    5   20     -0.49      0.00 
   -1    5   20     -0.33      0.00 
   -2    5   20      0.10      0.00 
   -3    5   20      0.41      0.00 
   -4    5   20      0.43      0.00 
   -5    5   20      0.37      0.00 
   -6    5   20      0.38      0.00 
   -7    5   20      0.30      0.00 
   -8    5   20     -0.01      0.00 
   -9    5   20     -0.37      0.00 
  -10    5   20     -0.45      0.00 
   12    4   20      0.28      0.00 
   11    4   20      0.20      0.00 
   10    4   20      0.01      0.00 
    9    4   20     -0.23      0.00 
    8    4   20     -0.31      0.00 
    7    4   20      0.00      0.00 
    6    4   20      0.56      0.00 
    5    4   20      0.87      0.00 
    4    4   20      0.64      0.00 
    3    4   20      0.11      0.00 
    2    4   20     -0.25      0.00 
    1    4   20     -0.27      0.00 
    0    4   20     -0.16      0.00 
   -1    4   20     -0.12      0.00 
   -2    4   20     -0.11      0.00 
   -3    4   20     -0.04      0.00 
   -4    4   20     -0.02      0.00 
   -5    4   20     -0.17      0.00 
   -6    4   20     -0.38      0.00 
   -7    4   20     -0.35      0.00 
   -8    4   20      0.02      0.00 
   -9    4   20      0.47      0.00 
  -10    4   20      0.62      0.00 
   11    3   20      0.00      0.00 
   10    3   20     -0.01      0.00 
    9    3   20      0.12      0.00 
    8    3   20      0.37      0.00 
    7    3   20      0.53      0.00 
    6    3   20      0.44      0.00 
    5    3   20      0.17      0.00 
    4    3   20     -0.06      0.00 
    3    3   20     -0.09      0.00 
    2    3   20      0.12      0.00 
    1    3   20      0.50      0.00 
    0    3   20      0.80      0.00 
   -1    3   20      0.73      0.00 
   -2    3   20      0.24      0.00 
   -3    3   20     -0.37      0.00 
   -4    3   20     -0.66      0.00 
   -5    3   20     -0.47      0.00 
   -6    3   20     -0.05      0.00 
   -7    3   20      0.27      0.00 
   -8    3   20      0.28      0.00 
   -9    3   20      0.08      0.00 
  -10    3   20     -0.09      0.00 
  -11    3   20     -0.09      0.00 
   11    2   20     -0.30      0.00 
   10    2   20     -0.12      0.00 
    9    2   20      0.00      0.00 
    8    2   20     -0.14      0.00 
    7    2   20     -0.45      0.00 
    6    2   20     -0.64      0.00 
    5    2   20     -0.47      0.00 
    4    2   20     -0.01      0.00 
    3    2   20      0.41      0.00 
    2    2   20      0.42      0.00 
    1    2   20     -0.05      0.00 
    0    2   20     -0.64      0.00 
   -1    2   20     -0.88      0.00 
   -2    2   20     -0.61      0.00 
   -3    2   20     -0.07      0.00 
   -4    2   20      0.35      0.00 
   -5    2   20      0.40      0.00 
   -6    2   20      0.15      0.00 
   -7    2   20     -0.15      0.00 
   -8    2   20     -0.27      0.00 
   -9    2   20     -0.17      0.00 
  -10    2   20     -0.02      0.00 
  -11    2   20     -0.02      0.00 
   10    1   20     -0.40      0.00 
    9    1   20     -0.68      0.00 
    8    1   20     -0.50      0.00 
    7    1   20      0.13      0.00 
    6    1   20      0.75      0.00 
    5    1   20      0.88      0.00 
    4    1   20      0.50      0.00 
    3    1   20      0.05      0.00 
    2    1   20     -0.11      0.00 
    1    1   20      0.02      0.00 
    0    1   20      0.23      0.00 
   -1    1   20      0.43      0.00 
   -2    1   20      0.64      0.00 
   -3    1   20      0.81      0.00 
   -4    1   20      0.71      0.00 
   -5    1   20      0.27      0.00 
   -6    1   20     -0.23      0.00 
   -7    1   20     -0.46      0.00 
   -8    1   20     -0.35      0.00 
   -9    1   20     -0.13      0.00 
  -10    1   20     -0.04      0.00 
  -11    1   20     -0.07      0.00 
   10    0   20      0.37      0.00 
    9    0   20      0.82      0.00 
    8    0   20      1.15      0.00 
    7    0   20      1.06      0.00 
    6    0   20      0.52      0.00 
    5    0   20     -0.12      0.00 
    4    0   20     -0.48      0.00 
    3    0   20     -0.42      0.00 
    2    0   20     -0.12      0.00 
    1    0   20      0.17      0.00 
    0    0   20      0.32      0.00 
   -1    0   20      0.24      0.00 
   -2    0   20     -0.08      0.00 
   -3    0   20     -0.55      0.00 
   -4    0   20     -0.82      0.00 
   -5    0   20     -0.61      0.00 
   -6    0   20      0.01      0.00 
   -7    0   20      0.53      0.00 
   -8    0   20      0.50      0.00 
   -9    0   20     -0.03      0.00 
  -10    0   20     -0.57      0.00 
  -11    0   20     -0.67      0.00 
    9   -1   20     -0.36      0.00 
    8   -1   20     -0.70      0.00 
    7   -1   20     -1.15      0.00 
    6   -1   20     -1.34      0.00 
    5   -1   20     -1.01      0.00 
    4   -1   20     -0.31      0.00 
    3   -1   20      0.24      0.00 
    2   -1   20      0.30      0.00 
    1   -1   20      0.01      0.00 
    0   -1   20     -0.25      0.00 
   -1   -1   20     -0.25      0.00 
   -2   -1   20     -0.06      0.00 
   -3   -1   20      0.12      0.00 
   -4   -1   20      0.16      0.00 
   -5   -1   20      0.07      0.00 
   -6   -1   20     -0.10      0.00 
   -7   -1   20     -0.23      0.00 
   -8   -1   20     -0.22      0.00 
   -9   -1   20     -0.05      0.00 
  -10   -1   20      0.15      0.00 
  -11   -1   20      0.23      0.00 
    8   -2   20     -0.20      0.00 
    7   -2   20      0.04      0.00 
    6   -2   20      0.35      0.00 
    5   -2   20      0.46      0.00 
    4   -2   20      0.24      0.00 
    3   -2   20     -0.19      0.00 
    2   -2   20     -0.58      0.00 
    1   -2   20     -0.69      0.00 
    0   -2   20     -0.46      0.00 
   -1   -2   20     -0.03      0.00 
   -2   -2   20      0.40      0.00 
   -3   -2   20      0.65      0.00 
   -4   -2   20      0.63      0.00 
   -5   -2   20      0.37      0.00 
   -6   -2   20      0.00      0.00 
   -7   -2   20     -0.24      0.00 
   -8   -2   20     -0.18      0.00 
   -9   -2   20      0.15      0.00 
  -10   -2   20      0.52      0.00 
  -11   -2   20      0.66      0.00 
    8   -3   20      0.57      0.00 
    7   -3   20      0.64      0.00 
    6   -3   20      0.46      0.00 
    5   -3   20     -0.03      0.00 
    4   -3   20     -0.55      0.00 
    3   -3   20     -0.69      0.00 
    2   -3   20     -0.27      0.00 
    1   -3   20      0.40      0.00 
    0   -3   20      0.76      0.00 
   -1   -3   20      0.43      0.00 
   -2   -3   20     -0.42      0.00 
   -3   -3   20     -1.19      0.00 
   -4   -3   20     -1.33      0.00 
   -5   -3   20     -0.72      0.00 
   -6   -3   20      0.23      0.00 
   -7   -3   20      0.85      0.00 
   -8   -3   20      0.81      0.00 
   -9   -3   20      0.27      0.00 
  -10   -3   20     -0.26      0.00 
  -11   -3   20     -0.39      0.00 
    7   -4   20      0.05      0.00 
    6   -4   20     -0.30      0.00 
    5   -4   20     -0.33      0.00 
    4   -4   20     -0.06      0.00 
    3   -4   20      0.21      0.00 
    2   -4   20      0.17      0.00 
    1   -4   20     -0.18      0.00 
    0   -4   20     -0.51      0.00 
   -1   -4   20     -0.48      0.00 
   -2   -4   20      0.05      0.00 
   -3   -4   20      0.82      0.00 
   -4   -4   20      1.39      0.00 
   -5   -4   20      1.43      0.00 
   -6   -4   20      0.99      0.00 
   -7   -4   20      0.42      0.00 
   -8   -4   20      0.03      0.00 
   -9   -4   20     -0.09      0.00 
  -10   -4   20     -0.04      0.00 
  -11   -4   20      0.02      0.00 
    6   -5   20      0.24      0.00 
    5   -5   20      0.57      0.00 
    4   -5   20      0.74      0.00 
    3   -5   20      0.78      0.00 
    2   -5   20      0.75      0.00 
    1   -5   20      0.71      0.00 
    0   -5   20      0.63      0.00 
   -1   -5   20      0.43      0.00 
   -2   -5   20      0.11      0.00 
   -3   -5   20     -0.25      0.00 
   -4   -5   20     -0.61      0.00 
   -5   -5   20     -1.04      0.00 
   -6   -5   20     -1.50      0.00 
   -7   -5   20     -1.72      0.00 
   -8   -5   20     -1.41      0.00 
   -9   -5   20     -0.67      0.00 
  -10   -5   20      0.00      0.00 
    5   -6   20     -0.90      0.00 
    4   -6   20     -1.05      0.00 
    3   -6   20     -0.93      0.00 
    2   -6   20     -0.63      0.00 
    1   -6   20     -0.36      0.00 
    0   -6   20     -0.19      0.00 
   -1   -6   20     -0.06      0.00 
   -2   -6   20      0.04      0.00 
   -3   -6   20     -0.01      0.00 
   -4   -6   20     -0.21      0.00 
   -5   -6   20     -0.26      0.00 
   -6   -6   20      0.11      0.00 
   -7   -6   20      0.69      0.00 
   -8   -6   20      0.94      0.00 
   -9   -6   20      0.64      0.00 
  -10   -6   20      0.10      0.00 
    4   -7   20      0.66      0.00 
    3   -7   20      0.86      0.00 
    2   -7   20      0.79      0.00 
    1   -7   20      0.45      0.00 
    0   -7   20     -0.05      0.00 
   -1   -7   20     -0.53      0.00 
   -2   -7   20     -0.71      0.00 
   -3   -7   20     -0.45      0.00 
   -4   -7   20      0.11      0.00 
   -5   -7   20      0.60      0.00 
   -6   -7   20      0.75      0.00 
   -7   -7   20      0.57      0.00 
   -8   -7   20      0.28      0.00 
    2   -8   20     -0.07      0.00 
    1   -8   20     -0.19      0.00 
    0   -8   20     -0.19      0.00 
   -1   -8   20     -0.05      0.00 
   -2   -8   20      0.08      0.00 
   -3   -8   20      0.04      0.00 
   -4   -8   20     -0.17      0.00 
   -5   -8   20     -0.43      0.00 
   -6   -8   20     -0.59      0.00 
   -7   -8   20     -0.61      0.00 
    1   -9   20     -0.48      0.00 
    0   -9   20     -0.34      0.00 
   -1   -9   20      0.01      0.00 
   -2   -9   20      0.31      0.00 
   -3   -9   20      0.38      0.00 
   -4   -9   20      0.28      0.00 
   -5   -9   20      0.21      0.00 
   -6   -9   20      0.24      0.00 
    5   18   19     -0.02      0.00 
    4   18   19      0.12      0.00 
    3   18   19      0.10      0.00 
    7   17   19     -0.11      0.00 
    6   17   19     -0.10      0.00 
    5   17   19     -0.11      0.00 
    4   17   19     -0.02      0.00 
    3   17   19      0.14      0.00 
    2   17   19      0.26      0.00 
    1   17   19      0.31      0.00 
    0   17   19      0.28      0.00 
    9   16   19     -0.09      0.00 
    8   16   19     -0.16      0.00 
    7   16   19     -0.11      0.00 
    6   16   19     -0.03      0.00 
    5   16   19     -0.02      0.00 
    4   16   19     -0.05      0.00 
    3   16   19      0.01      0.00 
    2   16   19      0.17      0.00 
    1   16   19      0.34      0.00 
    0   16   19      0.40      0.00 
   -1   16   19      0.32      0.00 
   -2   16   19      0.14      0.00 
   10   15   19      0.37      0.00 
    9   15   19      0.31      0.00 
    8   15   19      0.03      0.00 
    7   15   19     -0.12      0.00 
    6   15   19      0.04      0.00 
    5   15   19      0.31      0.00 
    4   15   19      0.40      0.00 
    3   15   19      0.22      0.00 
    2   15   19     -0.04      0.00 
    1   15   19     -0.20      0.00 
    0   15   19     -0.23      0.00 
   -1   15   19     -0.20      0.00 
   -2   15   19     -0.15      0.00 
   -3   15   19     -0.08      0.00 
   -4   15   19      0.01      0.00 
   11   14   19     -0.03      0.00 
   10   14   19      0.04      0.00 
    9   14   19      0.16      0.00 
    8   14   19      0.21      0.00 
    7   14   19      0.13      0.00 
    6   14   19     -0.04      0.00 
    5   14   19     -0.16      0.00 
    4   14   19     -0.21      0.00 
    3   14   19     -0.25      0.00 
    2   14   19     -0.39      0.00 
    1   14   19     -0.56      0.00 
    0   14   19     -0.60      0.00 
   -1   14   19     -0.39      0.00 
   -2   14   19     -0.03      0.00 
   -3   14   19      0.24      0.00 
   -4   14   19      0.30      0.00 
   -5   14   19      0.17      0.00 
   11   13   19      0.37      0.00 
   10   13   19      0.31      0.00 
    9   13   19      0.19      0.00 
    8   13   19      0.17      0.00 
    7   13   19      0.27      0.00 
    6   13   19      0.33      0.00 
    5   13   19      0.27      0.00 
    4   13   19      0.18      0.00 
    3   13   19      0.17      0.00 
    2   13   19      0.26      0.00 
    1   13   19      0.36      0.00 
    0   13   19      0.38      0.00 
   -1   13   19      0.31      0.00 
   -2   13   19      0.22      0.00 
   -3   13   19      0.15      0.00 
   -4   13   19      0.07      0.00 
   -5   13   19     -0.06      0.00 
   -6   13   19     -0.22      0.00 
   12   12   19      0.19      0.00 
   11   12   19      0.04      0.00 
   10   12   19     -0.11      0.00 
    9   12   19     -0.15      0.00 
    8   12   19     -0.12      0.00 
    7   12   19     -0.10      0.00 
    6   12   19     -0.09      0.00 
    5   12   19     -0.06      0.00 
    4   12   19     -0.03      0.00 
    3   12   19     -0.06      0.00 
    2   12   19     -0.11      0.00 
    1   12   19     -0.06      0.00 
    0   12   19      0.10      0.00 
   -1   12   19      0.22      0.00 
   -2   12   19      0.13      0.00 
   -3   12   19     -0.14      0.00 
   -4   12   19     -0.37      0.00 
   -5   12   19     -0.39      0.00 
   -6   12   19     -0.23      0.00 
   -7   12   19     -0.09      0.00 
   12   11   19      0.16      0.00 
   11   11   19      0.08      0.00 
   10   11   19     -0.13      0.00 
    9   11   19     -0.33      0.00 
    8   11   19     -0.36      0.00 
    7   11   19     -0.23      0.00 
    6   11   19     -0.11      0.00 
    5   11   19     -0.11      0.00 
    4   11   19     -0.20      0.00 
    3   11   19     -0.30      0.00 
    2   11   19     -0.37      0.00 
    1   11   19     -0.40      0.00 
    0   11   19     -0.36      0.00 
   -1   11   19     -0.22      0.00 
   -2   11   19     -0.02      0.00 
   -3   11   19      0.15      0.00 
   -4   11   19      0.25      0.00 
   -5   11   19      0.28      0.00 
   -6   11   19      0.27      0.00 
   -7   11   19      0.19      0.00 
   -8   11   19      0.08      0.00 
   13   10   19     -0.67      0.00 
   12   10   19     -1.00      0.00 
   11   10   19     -0.95      0.00 
   10   10   19     -0.59      0.00 
    9   10   19     -0.21      0.00 
    8   10   19      0.03      0.00 
    7   10   19      0.18      0.00 
    6   10   19      0.33      0.00 
    5   10   19      0.42      0.00 
    4   10   19      0.33      0.00 
    3   10   19      0.15      0.00 
    2   10   19      0.12      0.00 
    1   10   19      0.29      0.00 
    0   10   19      0.47      0.00 
   -1   10   19      0.46      0.00 
   -2   10   19      0.24      0.00 
   -3   10   19     -0.03      0.00 
   -4   10   19     -0.26      0.00 
   -5   10   19     -0.36      0.00 
   -6   10   19     -0.28      0.00 
   -7   10   19     -0.05      0.00 
   13    9   19      0.36      0.00 
   12    9   19      0.30      0.00 
   11    9   19      0.25      0.00 
   10    9   19      0.32      0.00 
    9    9   19      0.40      0.00 
    8    9   19      0.29      0.00 
    7    9   19     -0.07      0.00 
    6    9   19     -0.46      0.00 
    5    9   19     -0.60      0.00 
    4    9   19     -0.43      0.00 
    3    9   19     -0.12      0.00 
    2    9   19      0.10      0.00 
    1    9   19      0.14      0.00 
    0    9   19      0.02      0.00 
   -1    9   19     -0.20      0.00 
   -2    9   19     -0.39      0.00 
   -3    9   19     -0.43      0.00 
   -4    9   19     -0.23      0.00 
   -5    9   19      0.11      0.00 
   -6    9   19      0.37      0.00 
   -7    9   19      0.39      0.00 
   -8    9   19      0.24      0.00 
   -9    9   19      0.10      0.00 
   12    8   19      0.29      0.00 
   11    8   19      0.56      0.00 
   10    8   19      0.43      0.00 
    9    8   19      0.09      0.00 
    8    8   19     -0.11      0.00 
    7    8   19     -0.08      0.00 
    6    8   19     -0.02      0.00 
    5    8   19     -0.04      0.00 
    4    8   19     -0.05      0.00 
    3    8   19      0.00      0.00 
    2    8   19      0.04      0.00 
    1    8   19      0.00      0.00 
    0    8   19     -0.04      0.00 
   -1    8   19      0.03      0.00 
   -2    8   19      0.20      0.00 
   -3    8   19      0.41      0.00 
   -4    8   19      0.56      0.00 
   -5    8   19      0.55      0.00 
   -6    8   19      0.34      0.00 
   -7    8   19      0.00      0.00 
   -8    8   19     -0.28      0.00 
   -9    8   19     -0.33      0.00 
   12    7   19     -0.08      0.00 
   11    7   19     -0.11      0.00 
   10    7   19     -0.07      0.00 
    9    7   19     -0.05      0.00 
    8    7   19     -0.01      0.00 
    7    7   19      0.15      0.00 
    6    7   19      0.42      0.00 
    5    7   19      0.56      0.00 
    4    7   19      0.40      0.00 
    3    7   19      0.08      0.00 
    2    7   19     -0.15      0.00 
    1    7   19     -0.17      0.00 
    0    7   19     -0.03      0.00 
   -1    7   19      0.10      0.00 
   -2    7   19      0.12      0.00 
   -3    7   19     -0.04      0.00 
   -4    7   19     -0.30      0.00 
   -5    7   19     -0.48      0.00 
   -6    7   19     -0.44      0.00 
   -7    7   19     -0.26      0.00 
   -8    7   19     -0.09      0.00 
   -9    7   19     -0.02      0.00 
  -10    7   19     -0.02      0.00 
   12    6   19      0.18      0.00 
   11    6   19      0.13      0.00 
   10    6   19      0.05      0.00 
    9    6   19      0.03      0.00 
    8    6   19      0.08      0.00 
    7    6   19      0.13      0.00 
    6    6   19      0.15      0.00 
    5    6   19      0.16      0.00 
    4    6   19      0.20      0.00 
    3    6   19      0.30      0.00 
    2    6   19      0.45      0.00 
    1    6   19      0.50      0.00 
    0    6   19      0.27      0.00 
   -1    6   19     -0.24      0.00 
   -2    6   19     -0.70      0.00 
   -3    6   19     -0.80      0.00 
   -4    6   19     -0.61      0.00 
   -5    6   19     -0.45      0.00 
   -6    6   19     -0.45      0.00 
   -7    6   19     -0.42      0.00 
   -8    6   19     -0.22      0.00 
   -9    6   19      0.02      0.00 
  -10    6   19      0.08      0.00 
   12    5   19      0.18      0.00 
   11    5   19      0.12      0.00 
   10    5   19      0.03      0.00 
    9    5   19     -0.05      0.00 
    8    5   19     -0.20      0.00 
    7    5   19     -0.49      0.00 
    6    5   19     -0.78      0.00 
    5    5   19     -0.79      0.00 
    4    5   19     -0.47      0.00 
    3    5   19     -0.09      0.00 
    2    5   19      0.06      0.00 
    1    5   19      0.04      0.00 
    0    5   19      0.12      0.00 
   -1    5   19      0.40      0.00 
   -2    5   19      0.66      0.00 
   -3    5   19      0.74      0.00 
   -4    5   19      0.69      0.00 
   -5    5   19      0.64      0.00 
   -6    5   19      0.54      0.00 
   -7    5   19      0.26      0.00 
   -8    5   19     -0.11      0.00 
   -9    5   19     -0.31      0.00 
  -10    5   19     -0.19      0.00 
   12    4   19     -0.34      0.00 
   11    4   19     -0.25      0.00 
   10    4   19     -0.18      0.00 
    9    4   19     -0.31      0.00 
    8    4   19     -0.42      0.00 
    7    4   19     -0.25      0.00 
    6    4   19      0.09      0.00 
    5    4   19      0.18      0.00 
    4    4   19     -0.19      0.00 
    3    4   19     -0.77      0.00 
    2    4   19     -1.16      0.00 
    1    4   19     -1.23      0.00 
    0    4   19     -1.00      0.00 
   -1    4   19     -0.55      0.00 
   -2    4   19     -0.03      0.00 
   -3    4   19      0.29      0.00 
   -4    4   19      0.25      0.00 
   -5    4   19     -0.01      0.00 
   -6    4   19     -0.12      0.00 
   -7    4   19      0.06      0.00 
   -8    4   19      0.36      0.00 
   -9    4   19      0.51      0.00 
  -10    4   19      0.40      0.00 
  -11    4   19      0.14      0.00 
   12    3   19      0.22      0.00 
   11    3   19     -0.01      0.00 
   10    3   19     -0.15      0.00 
    9    3   19      0.02      0.00 
    8    3   19      0.40      0.00 
    7    3   19      0.62      0.00 
    6    3   19      0.54      0.00 
    5    3   19      0.29      0.00 
    4    3   19      0.17      0.00 
    3    3   19      0.35      0.00 
    2    3   19      0.76      0.00 
    1    3   19      1.08      0.00 
    0    3   19      0.96      0.00 
   -1    3   19      0.36      0.00 
   -2    3   19     -0.38      0.00 
   -3    3   19     -0.79      0.00 
   -4    3   19     -0.73      0.00 
   -5    3   19     -0.40      0.00 
   -6    3   19     -0.10      0.00 
   -7    3   19      0.05      0.00 
   -8    3   19      0.05      0.00 
   -9    3   19     -0.04      0.00 
  -10    3   19     -0.12      0.00 
  -11    3   19     -0.08      0.00 
   12    2   19      0.43      0.00 
   11    2   19      0.68      0.00 
   10    2   19      0.76      0.00 
    9    2   19      0.56      0.00 
    8    2   19      0.12      0.00 
    7    2   19     -0.31      0.00 
    6    2   19     -0.47      0.00 
    5    2   19     -0.26      0.00 
    4    2   19      0.13      0.00 
    3    2   19      0.34      0.00 
    2    2   19      0.17      0.00 
    1    2   19     -0.19      0.00 
    0    2   19     -0.43      0.00 
   -1    2   19     -0.41      0.00 
   -2    2   19     -0.26      0.00 
   -3    2   19     -0.07      0.00 
   -4    2   19      0.21      0.00 
   -5    2   19      0.54      0.00 
   -6    2   19      0.71      0.00 
   -7    2   19      0.55      0.00 
   -8    2   19      0.25      0.00 
   -9    2   19      0.13      0.00 
  -10    2   19      0.22      0.00 
  -11    2   19      0.26      0.00 
   11    1   19     -0.69      0.00 
   10    1   19     -0.91      0.00 
    9    1   19     -1.02      0.00 
    8    1   19     -0.80      0.00 
    7    1   19     -0.20      0.00 
    6    1   19      0.46      0.00 
    5    1   19      0.72      0.00 
    4    1   19      0.41      0.00 
    3    1   19     -0.13      0.00 
    2    1   19     -0.47      0.00 
    1    1   19     -0.43      0.00 
    0    1   19     -0.14      0.00 
   -1    1   19      0.27      0.00 
   -2    1   19      0.66      0.00 
   -3    1   19      0.82      0.00 
   -4    1   19      0.51      0.00 
   -5    1   19     -0.17      0.00 
   -6    1   19     -0.76      0.00 
   -7    1   19     -0.82      0.00 
   -8    1   19     -0.39      0.00 
   -9    1   19      0.08      0.00 
  -10    1   19      0.22      0.00 
  -11    1   19      0.06      0.00 
   10    0   19      0.07      0.00 
    9    0   19      0.49      0.00 
    8    0   19      0.95      0.00 
    7    0   19      1.10      0.00 
    6    0   19      0.76      0.00 
    5    0   19      0.13      0.00 
    4    0   19     -0.32      0.00 
    3    0   19     -0.25      0.00 
    2    0   19      0.23      0.00 
    1    0   19      0.65      0.00 
    0    0   19      0.63      0.00 
   -1    0   19      0.15      0.00 
   -2    0   19     -0.46      0.00 
   -3    0   19     -0.81      0.00 
   -4    0   19     -0.77      0.00 
   -5    0   19     -0.43      0.00 
   -6    0   19     -0.05      0.00 
   -7    0   19      0.16      0.00 
   -8    0   19      0.10      0.00 
   -9    0   19     -0.11      0.00 
  -10    0   19     -0.29      0.00 
  -11    0   19     -0.29      0.00 
  -12    0   19     -0.16      0.00 
   10   -1   19      0.28      0.00 
    9   -1   19      0.13      0.00 
    8   -1   19     -0.19      0.00 
    7   -1   19     -0.54      0.00 
    6   -1   19     -0.66      0.00 
    5   -1   19     -0.38      0.00 
    4   -1   19      0.15      0.00 
    3   -1   19      0.53      0.00 
    2   -1   19      0.47      0.00 
    1   -1   19      0.02      0.00 
    0   -1   19     -0.43      0.00 
   -1   -1   19     -0.52      0.00 
   -2   -1   19     -0.22      0.00 
   -3   -1   19      0.23      0.00 
   -4   -1   19      0.56      0.00 
   -5   -1   19      0.67      0.00 
   -6   -1   19      0.59      0.00 
   -7   -1   19      0.37      0.00 
   -8   -1   19      0.02      0.00 
   -9   -1   19     -0.34      0.00 
  -10   -1   19     -0.58      0.00 
  -11   -1   19     -0.60      0.00 
  -12   -1   19     -0.42      0.00 
    9   -2   19     -0.44      0.00 
    8   -2   19     -0.30      0.00 
    7   -2   19     -0.07      0.00 
    6   -2   19      0.12      0.00 
    5   -2   19      0.19      0.00 
    4   -2   19      0.07      0.00 
    3   -2   19     -0.25      0.00 
    2   -2   19     -0.65      0.00 
    1   -2   19     -0.80      0.00 
    0   -2   19     -0.44      0.00 
   -1   -2   19      0.29      0.00 
   -2   -2   19      0.89      0.00 
   -3   -2   19      0.91      0.00 
   -4   -2   19      0.34      0.00 
   -5   -2   19     -0.39      0.00 
   -6   -2   19     -0.81      0.00 
   -7   -2   19     -0.73      0.00 
   -8   -2   19     -0.28      0.00 
   -9   -2   19      0.20      0.00 
  -10   -2   19      0.45      0.00 
  -11   -2   19      0.38      0.00 
  -12   -2   19      0.13      0.00 
    9   -3   19     -0.16      0.00 
    8   -3   19     -0.05      0.00 
    7   -3   19      0.08      0.00 
    6   -3   19      0.04      0.00 
    5   -3   19     -0.25      0.00 
    4   -3   19     -0.54      0.00 
    3   -3   19     -0.42      0.00 
    2   -3   19      0.19      0.00 
    1   -3   19      0.90      0.00 
    0   -3   19      1.14      0.00 
   -1   -3   19      0.63      0.00 
   -2   -3   19     -0.34      0.00 
   -3   -3   19     -1.17      0.00 
   -4   -3   19     -1.39      0.00 
   -5   -3   19     -0.98      0.00 
   -6   -3   19     -0.33      0.00 
   -7   -3   19      0.10      0.00 
   -8   -3   19      0.15      0.00 
   -9   -3   19      0.02      0.00 
  -10   -3   19      0.02      0.00 
  -11   -3   19      0.25      0.00 
    8   -4   19      0.46      0.00 
    7   -4   19     -0.14      0.00 
    6   -4   19     -0.67      0.00 
    5   -4   19     -0.82      0.00 
    4   -4   19     -0.68      0.00 
    3   -4   19     -0.55      0.00 
    2   -4   19     -0.61      0.00 
    1   -4   19     -0.77      0.00 
    0   -4   19     -0.80      0.00 
   -1   -4   19     -0.54      0.00 
   -2   -4   19      0.03      0.00 
   -3   -4   19      0.81      0.00 
   -4   -4   19      1.61      0.00 
   -5   -4   19      2.15      0.00 
   -6   -4   19      2.19      0.00 
   -7   -4   19      1.70      0.00 
   -8   -4   19      0.91      0.00 
   -9   -4   19      0.21      0.00 
  -10   -4   19     -0.16      0.00 
  -11   -4   19     -0.22      0.00 
    7   -5   19      0.60      0.00 
    6   -5   19      1.05      0.00 
    5   -5   19      1.22      0.00 
    4   -5   19      1.09      0.00 
    3   -5   19      0.79      0.00 
    2   -5   19      0.47      0.00 
    1   -5   19      0.23      0.00 
    0   -5   19      0.06      0.00 
   -1   -5   19     -0.10      0.00 
   -2   -5   19     -0.28      0.00 
   -3   -5   19     -0.49      0.00 
   -4   -5   19     -0.77      0.00 
   -5   -5   19     -1.14      0.00 
   -6   -5   19     -1.47      0.00 
   -7   -5   19     -1.45      0.00 
   -8   -5   19     -0.93      0.00 
   -9   -5   19     -0.18      0.00 
  -10   -5   19      0.29      0.00 
  -11   -5   19      0.25      0.00 
    6   -6   19     -0.56      0.00 
    5   -6   19     -0.76      0.00 
    4   -6   19     -0.75      0.00 
    3   -6   19     -0.47      0.00 
    2   -6   19      0.00      0.00 
    1   -6   19      0.44      0.00 
    0   -6   19      0.71      0.00 
   -1   -6   19      0.76      0.00 
   -2   -6   19      0.56      0.00 
   -3   -6   19      0.14      0.00 
   -4   -6   19     -0.29      0.00 
   -5   -6   19     -0.48      0.00 
   -6   -6   19     -0.35      0.00 
   -7   -6   19     -0.12      0.00 
   -8   -6   19     -0.05      0.00 
   -9   -6   19     -0.14      0.00 
  -10   -6   19     -0.19      0.00 
  -11   -6   19     -0.09      0.00 
    5   -7   19     -0.12      0.00 
    4   -7   19      0.03      0.00 
    3   -7   19      0.23      0.00 
    2   -7   19      0.36      0.00 
    1   -7   19      0.27      0.00 
    0   -7   19     -0.04      0.00 
   -1   -7   19     -0.34      0.00 
   -2   -7   19     -0.29      0.00 
   -3   -7   19      0.18      0.00 
   -4   -7   19      0.75      0.00 
   -5   -7   19      0.97      0.00 
   -6   -7   19      0.73      0.00 
   -7   -7   19      0.30      0.00 
   -8   -7   19     -0.01      0.00 
   -9   -7   19     -0.11      0.00 
  -10   -7   19     -0.11      0.00 
    4   -8   19      0.09      0.00 
    3   -8   19      0.04      0.00 
    2   -8   19     -0.07      0.00 
    1   -8   19     -0.21      0.00 
    0   -8   19     -0.33      0.00 
   -1   -8   19     -0.39      0.00 
   -2   -8   19     -0.39      0.00 
   -3   -8   19     -0.37      0.00 
   -4   -8   19     -0.36      0.00 
   -5   -8   19     -0.35      0.00 
   -6   -8   19     -0.24      0.00 
   -7   -8   19      0.03      0.00 
   -8   -8   19      0.38      0.00 
   -9   -8   19      0.58      0.00 
    3   -9   19      0.44      0.00 
    2   -9   19      0.27      0.00 
    1   -9   19     -0.07      0.00 
    0   -9   19     -0.30      0.00 
   -1   -9   19     -0.24      0.00 
   -2   -9   19     -0.14      0.00 
   -3   -9   19     -0.27      0.00 
   -4   -9   19     -0.51      0.00 
   -5   -9   19     -0.48      0.00 
   -6   -9   19     -0.09      0.00 
   -7   -9   19      0.26      0.00 
   -8   -9   19      0.19      0.00 
    1  -10   19      0.10      0.00 
    0  -10   19      0.13      0.00 
   -1  -10   19     -0.02      0.00 
   -2  -10   19     -0.15      0.00 
   -3  -10   19     -0.01      0.00 
   -4  -10   19      0.32      0.00 
   -5  -10   19      0.46      0.00 
   -6  -10   19      0.18      0.00 
   -7  -10   19     -0.32      0.00 
   -2  -11   19      0.73      0.00 
   -3  -11   19      0.69      0.00 
   -4  -11   19      0.31      0.00 
    6   18   18     -0.08      0.00 
    5   18   18      0.06      0.00 
    4   18   18      0.05      0.00 
    3   18   18     -0.13      0.00 
    9   17   18      0.12      0.00 
    8   17   18      0.24      0.00 
    7   17   18      0.13      0.00 
    6   17   18     -0.01      0.00 
    5   17   18      0.06      0.00 
    4   17   18      0.29      0.00 
    3   17   18      0.36      0.00 
    2   17   18      0.10      0.00 
    1   17   18     -0.32      0.00 
    0   17   18     -0.60      0.00 
   -1   17   18     -0.60      0.00 
   -2   17   18     -0.40      0.00 
   10   16   18     -0.68      0.00 
    9   16   18     -0.54      0.00 
    8   16   18     -0.22      0.00 
    7   16   18      0.06      0.00 
    6   16   18      0.10      0.00 
    5   16   18     -0.07      0.00 
    4   16   18     -0.24      0.00 
    3   16   18     -0.25      0.00 
    2   16   18     -0.09      0.00 
    1   16   18      0.10      0.00 
    0   16   18      0.22      0.00 
   -1   16   18      0.25      0.00 
   -2   16   18      0.21      0.00 
   -3   16   18      0.15      0.00 
   11   15   18      0.42      0.00 
   10   15   18      0.44      0.00 
    9   15   18      0.12      0.00 
    8   15   18     -0.31      0.00 
    7   15   18     -0.47      0.00 
    6   15   18     -0.28      0.00 
    5   15   18      0.02      0.00 
    4   15   18      0.22      0.00 
    3   15   18      0.34      0.00 
    2   15   18      0.43      0.00 
    1   15   18      0.48      0.00 
    0   15   18      0.42      0.00 
   -1   15   18      0.31      0.00 
   -2   15   18      0.26      0.00 
   -3   15   18      0.26      0.00 
   -4   15   18      0.22      0.00 
   12   14   18     -0.37      0.00 
   11   14   18     -0.37      0.00 
   10   14   18     -0.08      0.00 
    9   14   18      0.24      0.00 
    8   14   18      0.32      0.00 
    7   14   18      0.15      0.00 
    6   14   18     -0.04      0.00 
    5   14   18     -0.11      0.00 
    4   14   18     -0.10      0.00 
    3   14   18     -0.14      0.00 
    2   14   18     -0.24      0.00 
    1   14   18     -0.32      0.00 
    0   14   18     -0.34      0.00 
   -1   14   18     -0.36      0.00 
   -2   14   18     -0.41      0.00 
   -3   14   18     -0.45      0.00 
   -4   14   18     -0.39      0.00 
   -5   14   18     -0.20      0.00 
   12   13   18      0.27      0.00 
   11   13   18      0.26      0.00 
   10   13   18      0.08      0.00 
    9   13   18     -0.13      0.00 
    8   13   18     -0.18      0.00 
    7   13   18     -0.03      0.00 
    6   13   18      0.21      0.00 
    5   13   18      0.37      0.00 
    4   13   18      0.37      0.00 
    3   13   18      0.22      0.00 
    2   13   18     -0.01      0.00 
    1   13   18     -0.18      0.00 
    0   13   18     -0.18      0.00 
   -1   13   18      0.00      0.00 
   -2   13   18      0.23      0.00 
   -3   13   18      0.37      0.00 
   -4   13   18      0.36      0.00 
   -5   13   18      0.24      0.00 
   -6   13   18      0.10      0.00 
   -7   13   18      0.05      0.00 
   13   12   18     -0.41      0.00 
   12   12   18     -0.08      0.00 
   11   12   18      0.31      0.00 
   10   12   18      0.55      0.00 
    9   12   18      0.58      0.00 
    8   12   18      0.44      0.00 
    7   12   18      0.22      0.00 
    6   12   18      0.04      0.00 
    5   12   18     -0.04      0.00 
    4   12   18      0.01      0.00 
    3   12   18      0.13      0.00 
    2   12   18      0.22      0.00 
    1   12   18      0.20      0.00 
    0   12   18      0.11      0.00 
   -1   12   18      0.04      0.00 
   -2   12   18      0.05      0.00 
   -3   12   18      0.12      0.00 
   -4   12   18      0.18      0.00 
   -5   12   18      0.16      0.00 
   -6   12   18      0.08      0.00 
   -7   12   18     -0.02      0.00 
   -8   12   18     -0.12      0.00 
   13   11   18      0.45      0.00 
   12   11   18      0.38      0.00 
   11   11   18      0.07      0.00 
   10   11   18     -0.31      0.00 
    9   11   18     -0.50      0.00 
    8   11   18     -0.44      0.00 
    7   11   18     -0.30      0.00 
    6   11   18     -0.26      0.00 
    5   11   18     -0.31      0.00 
    4   11   18     -0.35      0.00 
    3   11   18     -0.37      0.00 
    2   11   18     -0.40      0.00 
    1   11   18     -0.39      0.00 
    0   11   18     -0.24      0.00 
   -1   11   18      0.04      0.00 
   -2   11   18      0.23      0.00 
   -3   11   18      0.18      0.00 
   -4   11   18     -0.05      0.00 
   -5   11   18     -0.29      0.00 
   -6   11   18     -0.42      0.00 
   -7   11   18     -0.43      0.00 
   -8   11   18     -0.33      0.00 
   13   10   18     -0.15      0.00 
   12   10   18     -0.14      0.00 
   11   10   18     -0.17      0.00 
   10   10   18     -0.22      0.00 
    9   10   18     -0.25      0.00 
    8   10   18     -0.15      0.00 
    7   10   18      0.12      0.00 
    6   10   18      0.40      0.00 
    5   10   18      0.44      0.00 
    4   10   18      0.16      0.00 
    3   10   18     -0.20      0.00 
    2   10   18     -0.29      0.00 
    1   10   18     -0.08      0.00 
    0   10   18      0.19      0.00 
   -1   10   18      0.27      0.00 
   -2   10   18      0.16      0.00 
   -3   10   18     -0.02      0.00 
   -4   10   18     -0.17      0.00 
   -5   10   18     -0.23      0.00 
   -6   10   18     -0.14      0.00 
   -7   10   18      0.01      0.00 
   -8   10   18      0.08      0.00 
   13    9   18     -0.09      0.00 
   12    9   18     -0.36      0.00 
   11    9   18     -0.25      0.00 
   10    9   18      0.23      0.00 
    9    9   18      0.68      0.00 
    8    9   18      0.67      0.00 
    7    9   18      0.26      0.00 
    6    9   18     -0.11      0.00 
    5    9   18     -0.14      0.00 
    4    9   18      0.06      0.00 
    3    9   18      0.22      0.00 
    2    9   18      0.25      0.00 
    1    9   18      0.20      0.00 
    0    9   18      0.09      0.00 
   -1    9   18     -0.12      0.00 
   -2    9   18     -0.41      0.00 
   -3    9   18     -0.57      0.00 
   -4    9   18     -0.44      0.00 
   -5    9   18     -0.09      0.00 
   -6    9   18      0.24      0.00 
   -7    9   18      0.38      0.00 
   -8    9   18      0.30      0.00 
   -9    9   18      0.12      0.00 
   12    8   18      0.00      0.00 
   11    8   18     -0.09      0.00 
   10    8   18     -0.33      0.00 
    9    8   18     -0.47      0.00 
    8    8   18     -0.38      0.00 
    7    8   18     -0.21      0.00 
    6    8   18     -0.14      0.00 
    5    8   18     -0.10      0.00 
    4    8   18      0.08      0.00 
    3    8   18      0.31      0.00 
    2    8   18      0.36      0.00 
    1    8   18      0.20      0.00 
    0    8   18      0.08      0.00 
   -1    8   18      0.18      0.00 
   -2    8   18      0.43      0.00 
   -3    8   18      0.58      0.00 
   -4    8   18      0.50      0.00 
   -5    8   18      0.26      0.00 
   -6    8   18      0.00      0.00 
   -7    8   18     -0.18      0.00 
   -8    8   18     -0.21      0.00 
   -9    8   18     -0.05      0.00 
  -10    8   18      0.20      0.00 
   12    7   18     -0.12      0.00 
   11    7   18      0.05      0.00 
   10    7   18      0.10      0.00 
    9    7   18     -0.14      0.00 
    8    7   18     -0.40      0.00 
    7    7   18     -0.35      0.00 
    6    7   18     -0.05      0.00 
    5    7   18      0.13      0.00 
    4    7   18     -0.04      0.00 
    3    7   18     -0.34      0.00 
    2    7   18     -0.41      0.00 
    1    7   18     -0.20      0.00 
    0    7   18      0.06      0.00 
   -1    7   18      0.19      0.00 
   -2    7   18      0.18      0.00 
   -3    7   18      0.12      0.00 
   -4    7   18      0.12      0.00 
   -5    7   18      0.23      0.00 
   -6    7   18      0.44      0.00 
   -7    7   18      0.59      0.00 
   -8    7   18      0.55      0.00 
   -9    7   18      0.34      0.00 
  -10    7   18      0.14      0.00 
   13    6   18     -0.22      0.00 
   12    6   18      0.00      0.00 
   11    6   18      0.22      0.00 
   10    6   18      0.38      0.00 
    9    6   18      0.48      0.00 
    8    6   18      0.46      0.00 
    7    6   18      0.29      0.00 
    6    6   18      0.01      0.00 
    5    6   18     -0.27      0.00 
    4    6   18     -0.43      0.00 
    3    6   18     -0.44      0.00 
    2    6   18     -0.33      0.00 
    1    6   18     -0.24      0.00 
    0    6   18     -0.36      0.00 
   -1    6   18     -0.69      0.00 
   -2    6   18     -0.96      0.00 
   -3    6   18     -0.91      0.00 
   -4    6   18     -0.56      0.00 
   -5    6   18     -0.25      0.00 
   -6    6   18     -0.20      0.00 
   -7    6   18     -0.32      0.00 
   -8    6   18     -0.40      0.00 
   -9    6   18     -0.38      0.00 
  -10    6   18     -0.34      0.00 
  -11    6   18     -0.30      0.00 
   13    5   18      0.51      0.00 
   12    5   18      0.50      0.00 
   11    5   18      0.30      0.00 
   10    5   18      0.12      0.00 
    9    5   18      0.09      0.00 
    8    5   18      0.12      0.00 
    7    5   18      0.10      0.00 
    6    5   18      0.12      0.00 
    5    5   18      0.40      0.00 
    4    5   18      0.87      0.00 
    3    5   18      1.19      0.00 
    2    5   18      1.10      0.00 
    1    5   18      0.74      0.00 
    0    5   18      0.46      0.00 
   -1    5   18      0.39      0.00 
   -2    5   18      0.40      0.00 
   -3    5   18      0.30      0.00 
   -4    5   18      0.06      0.00 
   -5    5   18     -0.22      0.00 
   -6    5   18     -0.46      0.00 
   -7    5   18     -0.64      0.00 
   -8    5   18     -0.72      0.00 
   -9    5   18     -0.60      0.00 
  -10    5   18     -0.26      0.00 
  -11    5   18      0.14      0.00 
   13    4   18      0.23      0.00 
   12    4   18      0.23      0.00 
   11    4   18      0.15      0.00 
   10    4   18     -0.12      0.00 
    9    4   18     -0.52      0.00 
    8    4   18     -0.71      0.00 
    7    4   18     -0.48      0.00 
    6    4   18     -0.06      0.00 
    5    4   18      0.06      0.00 
    4    4   18     -0.26      0.00 
    3    4   18     -0.70      0.00 
    2    4   18     -0.84      0.00 
    1    4   18     -0.56      0.00 
    0    4   18     -0.02      0.00 
   -1    4   18      0.52      0.00 
   -2    4   18      0.84      0.00 
   -3    4   18      0.84      0.00 
   -4    4   18      0.57      0.00 
   -5    4   18      0.25      0.00 
   -6    4   18      0.11      0.00 
   -7    4   18      0.27      0.00 
   -8    4   18      0.60      0.00 
   -9    4   18      0.85      0.00 
  -10    4   18      0.76      0.00 
  -11    4   18      0.33      0.00 
   13    3   18     -0.56      0.00 
   12    3   18     -0.73      0.00 
   11    3   18     -0.66      0.00 
   10    3   18     -0.34      0.00 
    9    3   18      0.07      0.00 
    8    3   18      0.35      0.00 
    7    3   18      0.34      0.00 
    6    3   18      0.07      0.00 
    5    3   18     -0.28      0.00 
    4    3   18     -0.50      0.00 
    3    3   18     -0.44      0.00 
    2    3   18     -0.14      0.00 
    1    3   18      0.14      0.00 
    0    3   18      0.14      0.00 
   -1    3   18     -0.16      0.00 
   -2    3   18     -0.49      0.00 
   -3    3   18     -0.66      0.00 
   -4    3   18     -0.60      0.00 
   -5    3   18     -0.38      0.00 
   -6    3   18     -0.09      0.00 
   -7    3   18      0.11      0.00 
   -8    3   18      0.02      0.00 
   -9    3   18     -0.32      0.00 
  -10    3   18     -0.55      0.00 
  -11    3   18     -0.40      0.00 
   12    2   18      0.53      0.00 
   11    2   18      0.51      0.00 
   10    2   18      0.38      0.00 
    9    2   18      0.14      0.00 
    8    2   18     -0.23      0.00 
    7    2   18     -0.61      0.00 
    6    2   18     -0.72      0.00 
    5    2   18     -0.36      0.00 
    4    2   18      0.29      0.00 
    3    2   18      0.74      0.00 
    2    2   18      0.61      0.00 
    1    2   18     -0.02      0.00 
    0    2   18     -0.71      0.00 
   -1    2   18     -1.10      0.00 
   -2    2   18     -1.06      0.00 
   -3    2   18     -0.66      0.00 
   -4    2   18     -0.08      0.00 
   -5    2   18      0.35      0.00 
   -6    2   18      0.39      0.00 
   -7    2   18      0.11      0.00 
   -8    2   18     -0.12      0.00 
   -9    2   18     -0.05      0.00 
  -10    2   18      0.18      0.00 
  -11    2   18      0.27      0.00 
  -12    2   18      0.13      0.00 
   12    1   18      0.25      0.00 
   11    1   18      0.20      0.00 
   10    1   18     -0.17      0.00 
    9    1   18     -0.54      0.00 
    8    1   18     -0.50      0.00 
    7    1   18      0.02      0.00 
    6    1   18      0.58      0.00 
    5    1   18      0.66      0.00 
    4    1   18      0.15      0.00 
    3    1   18     -0.51      0.00 
    2    1   18     -0.80      0.00 
    1    1   18     -0.48      0.00 
    0    1   18      0.28      0.00 
   -1    1   18      1.04      0.00 
   -2    1   18      1.41      0.00 
   -3    1   18      1.24      0.00 
   -4    1   18      0.71      0.00 
   -5    1   18      0.18      0.00 
   -6    1   18     -0.10      0.00 
   -7    1   18     -0.10      0.00 
   -8    1   18      0.05      0.00 
   -9    1   18      0.19      0.00 
  -10    1   18      0.25      0.00 
  -11    1   18      0.22      0.00 
  -12    1   18      0.14      0.00 
   11    0   18     -0.41      0.00 
   10    0   18      0.01      0.00 
    9    0   18      0.63      0.00 
    8    0   18      1.07      0.00 
    7    0   18      1.11      0.00 
    6    0   18      0.76      0.00 
    5    0   18      0.23      0.00 
    4    0   18     -0.18      0.00 
    3    0   18     -0.20      0.00 
    2    0   18      0.18      0.00 
    1    0   18      0.60      0.00 
    0    0   18      0.62      0.00 
   -1    0   18      0.10      0.00 
   -2    0   18     -0.63      0.00 
   -3    0   18     -1.09      0.00 
   -4    0   18     -1.05      0.00 
   -5    0   18     -0.63      0.00 
   -6    0   18     -0.09      0.00 
   -7    0   18      0.33      0.00 
   -8    0   18      0.52      0.00 
   -9    0   18      0.45      0.00 
  -10    0   18      0.23      0.00 
  -11    0   18      0.01      0.00 
  -12    0   18     -0.08      0.00 
   11   -1   18      0.17      0.00 
   10   -1   18      0.04      0.00 
    9   -1   18     -0.27      0.00 
    8   -1   18     -0.61      0.00 
    7   -1   18     -0.78      0.00 
    6   -1   18     -0.63      0.00 
    5   -1   18     -0.16      0.00 
    4   -1   18      0.45      0.00 
    3   -1   18      0.88      0.00 
    2   -1   18      0.83      0.00 
    1   -1   18      0.26      0.00 
    0   -1   18     -0.45      0.00 
   -1   -1   18     -0.79      0.00 
   -2   -1   18     -0.51      0.00 
   -3   -1   18      0.19      0.00 
   -4   -1   18      0.77      0.00 
   -5   -1   18      0.86      0.00 
   -6   -1   18      0.47      0.00 
   -7   -1   18     -0.06      0.00 
   -8   -1   18     -0.39      0.00 
   -9   -1   18     -0.43      0.00 
  -10   -1   18     -0.31      0.00 
  -11   -1   18     -0.19      0.00 
  -12   -1   18     -0.15      0.00 
   10   -2   18     -0.21      0.00 
    9   -2   18     -0.21      0.00 
    8   -2   18      0.03      0.00 
    7   -2   18      0.38      0.00 
    6   -2   18      0.62      0.00 
    5   -2   18      0.56      0.00 
    4   -2   18      0.17      0.00 
    3   -2   18     -0.44      0.00 
    2   -2   18     -0.99      0.00 
    1   -2   18     -1.13      0.00 
    0   -2   18     -0.69      0.00 
   -1   -2   18      0.14      0.00 
   -2   -2   18      0.87      0.00 
   -3   -2   18      1.06      0.00 
   -4   -2   18      0.63      0.00 
   -5   -2   18     -0.06      0.00 
   -6   -2   18     -0.55      0.00 
   -7   -2   18     -0.60      0.00 
   -8   -2   18     -0.38      0.00 
   -9   -2   18     -0.21      0.00 
  -10   -2   18     -0.28      0.00 
  -11   -2   18     -0.48      0.00 
  -12   -2   18     -0.56      0.00 
    9   -3   18     -0.13      0.00 
    8   -3   18      0.21      0.00 
    7   -3   18      0.45      0.00 
    6   -3   18      0.30      0.00 
    5   -3   18     -0.13      0.00 
    4   -3   18     -0.43      0.00 
    3   -3   18     -0.26      0.00 
    2   -3   18      0.29      0.00 
    1   -3   18      0.81      0.00 
    0   -3   18      0.88      0.00 
   -1   -3   18      0.34      0.00 
   -2   -3   18     -0.66      0.00 
   -3   -3   18     -1.70      0.00 
   -4   -3   18     -2.27      0.00 
   -5   -3   18     -2.03      0.00 
   -6   -3   18     -1.16      0.00 
   -7   -3   18     -0.25      0.00 
   -8   -3   18      0.21      0.00 
   -9   -3   18      0.21      0.00 
  -10   -3   18      0.13      0.00 
  -11   -3   18      0.24      0.00 
  -12   -3   18      0.43      0.00 
    9   -4   18      0.48      0.00 
    8   -4   18     -0.02      0.00 
    7   -4   18     -0.75      0.00 
    6   -4   18     -1.17      0.00 
    5   -4   18     -1.05      0.00 
    4   -4   18     -0.61      0.00 
    3   -4   18     -0.22      0.00 
    2   -4   18     -0.08      0.00 
    1   -4   18     -0.12      0.00 
    0   -4   18     -0.15      0.00 
   -1   -4   18      0.05      0.00 
   -2   -4   18      0.60      0.00 
   -3   -4   18      1.41      0.00 
   -4   -4   18      2.16      0.00 
   -5   -4   18      2.47      0.00 
   -6   -4   18      2.14      0.00 
   -7   -4   18      1.33      0.00 
   -8   -4   18      0.46      0.00 
   -9   -4   18     -0.04      0.00 
  -10   -4   18     -0.07      0.00 
  -11   -4   18      0.13      0.00 
  -12   -4   18      0.25      0.00 
    8   -5   18     -0.08      0.00 
    7   -5   18      0.41      0.00 
    6   -5   18      0.82      0.00 
    5   -5   18      0.89      0.00 
    4   -5   18      0.60      0.00 
    3   -5   18      0.12      0.00 
    2   -5   18     -0.23      0.00 
    1   -5   18     -0.29      0.00 
    0   -5   18     -0.12      0.00 
   -1   -5   18      0.02      0.00 
   -2   -5   18     -0.03      0.00 
   -3   -5   18     -0.25      0.00 
   -4   -5   18     -0.49      0.00 
   -5   -5   18     -0.69      0.00 
   -6   -5   18     -0.78      0.00 
   -7   -5   18     -0.67      0.00 
   -8   -5   18     -0.32      0.00 
   -9   -5   18      0.07      0.00 
  -10   -5   18      0.20      0.00 
  -11   -5   18      0.02      0.00 
  -12   -5   18     -0.23      0.00 
    7   -6   18     -0.10      0.00 
    6   -6   18     -0.37      0.00 
    5   -6   18     -0.70      0.00 
    4   -6   18     -0.86      0.00 
    3   -6   18     -0.70      0.00 
    2   -6   18     -0.32      0.00 
    1   -6   18      0.06      0.00 
    0   -6   18      0.26      0.00 
   -1   -6   18      0.23      0.00 
   -2   -6   18     -0.03      0.00 
   -3   -6   18     -0.44      0.00 
   -4   -6   18     -0.71      0.00 
   -5   -6   18     -0.54      0.00 
   -6   -6   18      0.03      0.00 
   -7   -6   18      0.57      0.00 
   -8   -6   18      0.69      0.00 
   -9   -6   18      0.40      0.00 
  -10   -6   18      0.07      0.00 
  -11   -6   18     -0.03      0.00 
    6   -7   18     -0.05      0.00 
    5   -7   18      0.20      0.00 
    4   -7   18      0.66      0.00 
    3   -7   18      1.06      0.00 
    2   -7   18      1.18      0.00 
    1   -7   18      0.98      0.00 
    0   -7   18      0.52      0.00 
   -1   -7   18      0.05      0.00 
   -2   -7   18     -0.12      0.00 
   -3   -7   18      0.16      0.00 
   -4   -7   18      0.62      0.00 
   -5   -7   18      0.76      0.00 
   -6   -7   18      0.32      0.00 
   -7   -7   18     -0.44      0.00 
   -8   -7   18     -0.96      0.00 
   -9   -7   18     -0.93      0.00 
  -10   -7   18     -0.49      0.00 
  -11   -7   18     -0.03      0.00 
    5   -8   18     -0.03      0.00 
    4   -8   18     -0.40      0.00 
    3   -8   18     -0.70      0.00 
    2   -8   18     -0.72      0.00 
    1   -8   18     -0.53      0.00 
    0   -8   18     -0.30      0.00 
   -1   -8   18     -0.10      0.00 
   -2   -8   18      0.13      0.00 
   -3   -8   18      0.31      0.00 
   -4   -8   18      0.21      0.00 
   -5   -8   18     -0.25      0.00 
   -6   -8   18     -0.74      0.00 
   -7   -8   18     -0.79      0.00 
   -8   -8   18     -0.32      0.00 
   -9   -8   18      0.22      0.00 
  -10   -8   18      0.37      0.00 
    4   -9   18      0.05      0.00 
    3   -9   18      0.08      0.00 
    2   -9   18     -0.02      0.00 
    1   -9   18     -0.19      0.00 
    0   -9   18     -0.25      0.00 
   -1   -9   18     -0.18      0.00 
   -2   -9   18     -0.16      0.00 
   -3   -9   18     -0.33      0.00 
   -4   -9   18     -0.46      0.00 
   -5   -9   18     -0.16      0.00 
   -6   -9   18      0.53      0.00 
   -7   -9   18      1.12      0.00 
   -8   -9   18      1.14      0.00 
   -9   -9   18      0.66      0.00 
  -10   -9   18      0.12      0.00 
    3  -10   18      0.56      0.00 
    2  -10   18      0.82      0.00 
    1  -10   18      0.66      0.00 
    0  -10   18      0.16      0.00 
   -1  -10   18     -0.34      0.00 
   -2  -10   18     -0.46      0.00 
   -3  -10   18     -0.18      0.00 
   -4  -10   18      0.25      0.00 
   -5  -10   18      0.50      0.00 
   -6  -10   18      0.43      0.00 
   -7  -10   18      0.14      0.00 
   -8  -10   18     -0.17      0.00 
   -9  -10   18     -0.31      0.00 
    1  -11   18     -0.32      0.00 
    0  -11   18     -0.06      0.00 
   -1  -11   18      0.23      0.00 
   -2  -11   18      0.28      0.00 
   -3  -11   18      0.03      0.00 
   -4  -11   18     -0.37      0.00 
   -5  -11   18     -0.74      0.00 
   -6  -11   18     -0.97      0.00 
   -7  -11   18     -0.97      0.00 
    5   19   17     -0.06      0.00 
    4   19   17      0.04      0.00 
    3   19   17      0.18      0.00 
    8   18   17      0.02      0.00 
    7   18   17     -0.04      0.00 
    6   18   17     -0.13      0.00 
    5   18   17     -0.31      0.00 
    4   18   17     -0.46      0.00 
    3   18   17     -0.34      0.00 
    2   18   17      0.08      0.00 
    1   18   17      0.51      0.00 
   10   17   17      0.08      0.00 
    9   17   17     -0.03      0.00 
    8   17   17     -0.15      0.00 
    7   17   17     -0.31      0.00 
    6   17   17     -0.34      0.00 
    5   17   17     -0.12      0.00 
    4   17   17      0.18      0.00 
    3   17   17      0.25      0.00 
    2   17   17      0.06      0.00 
    1   17   17     -0.15      0.00 
    0   17   17     -0.18      0.00 
   -1   17   17     -0.12      0.00 
   -2   17   17     -0.08      0.00 
   11   16   17     -0.07      0.00 
   10   16   17      0.09      0.00 
    9   16   17      0.37      0.00 
    8   16   17      0.55      0.00 
    7   16   17      0.47      0.00 
    6   16   17      0.19      0.00 
    5   16   17     -0.04      0.00 
    4   16   17     -0.11      0.00 
    3   16   17     -0.09      0.00 
    2   16   17     -0.13      0.00 
    1   16   17     -0.27      0.00 
    0   16   17     -0.43      0.00 
   -1   16   17     -0.54      0.00 
   -2   16   17     -0.58      0.00 
   -3   16   17     -0.52      0.00 
   -4   16   17     -0.35      0.00 
   11   15   17     -0.08      0.00 
   10   15   17     -0.18      0.00 
    9   15   17     -0.36      0.00 
    8   15   17     -0.36      0.00 
    7   15   17     -0.07      0.00 
    6   15   17      0.29      0.00 
    5   15   17      0.45      0.00 
    4   15   17      0.35      0.00 
    3   15   17      0.20      0.00 
    2   15   17      0.14      0.00 
    1   15   17      0.14      0.00 
    0   15   17      0.15      0.00 
   -1   15   17      0.23      0.00 
   -2   15   17      0.39      0.00 
   -3   15   17      0.50      0.00 
   -4   15   17      0.40      0.00 
   -5   15   17      0.16      0.00 
   12   14   17     -0.37      0.00 
   11   14   17     -0.30      0.00 
   10   14   17     -0.01      0.00 
    9   14   17      0.21      0.00 
    8   14   17      0.12      0.00 
    7   14   17     -0.19      0.00 
    6   14   17     -0.40      0.00 
    5   14   17     -0.36      0.00 
    4   14   17     -0.14      0.00 
    3   14   17      0.05      0.00 
    2   14   17      0.12      0.00 
    1   14   17      0.04      0.00 
    0   14   17     -0.09      0.00 
   -1   14   17     -0.14      0.00 
   -2   14   17     -0.05      0.00 
   -3   14   17      0.09      0.00 
   -4   14   17      0.12      0.00 
   -5   14   17      0.01      0.00 
   -6   14   17     -0.10      0.00 
   13   13   17      0.22      0.00 
   12   13   17     -0.05      0.00 
   11   13   17     -0.27      0.00 
   10   13   17     -0.39      0.00 
    9   13   17     -0.39      0.00 
    8   13   17     -0.30      0.00 
    7   13   17     -0.18      0.00 
    6   13   17     -0.08      0.00 
    5   13   17     -0.04      0.00 
    4   13   17     -0.07      0.00 
    3   13   17     -0.12      0.00 
    2   13   17     -0.10      0.00 
    1   13   17      0.03      0.00 
    0   13   17      0.13      0.00 
   -1   13   17      0.04      0.00 
   -2   13   17     -0.23      0.00 
   -3   13   17     -0.45      0.00 
   -4   13   17     -0.42      0.00 
   -5   13   17     -0.17      0.00 
   -6   13   17      0.10      0.00 
   -7   13   17      0.23      0.00 
   13   12   17     -0.02      0.00 
   12   12   17      0.19      0.00 
   11   12   17      0.43      0.00 
   10   12   17      0.51      0.00 
    9   12   17      0.39      0.00 
    8   12   17      0.17      0.00 
    7   12   17      0.01      0.00 
    6   12   17     -0.02      0.00 
    5   12   17      0.06      0.00 
    4   12   17      0.18      0.00 
    3   12   17      0.23      0.00 
    2   12   17      0.13      0.00 
    1   12   17     -0.07      0.00 
    0   12   17     -0.21      0.00 
   -1   12   17     -0.16      0.00 
   -2   12   17      0.05      0.00 
   -3   12   17      0.23      0.00 
   -4   12   17      0.31      0.00 
   -5   12   17      0.33      0.00 
   -6   12   17      0.34      0.00 
   -7   12   17      0.34      0.00 
   -8   12   17      0.26      0.00 
   13   11   17     -0.13      0.00 
   12   11   17      0.23      0.00 
   11   11   17      0.47      0.00 
   10   11   17      0.46      0.00 
    9   11   17      0.32      0.00 
    8   11   17      0.23      0.00 
    7   11   17      0.23      0.00 
    6   11   17      0.30      0.00 
    5   11   17      0.39      0.00 
    4   11   17      0.45      0.00 
    3   11   17      0.39      0.00 
    2   11   17      0.15      0.00 
    1   11   17     -0.14      0.00 
    0   11   17     -0.25      0.00 
   -1   11   17     -0.06      0.00 
   -2   11   17      0.26      0.00 
   -3   11   17      0.44      0.00 
   -4   11   17      0.36      0.00 
   -5   11   17      0.09      0.00 
   -6   11   17     -0.20      0.00 
   -7   11   17     -0.32      0.00 
   -8   11   17     -0.25      0.00 
   -9   11   17     -0.13      0.00 
   13   10   17     -0.22      0.00 
   12   10   17     -0.43      0.00 
   11   10   17     -0.67      0.00 
   10   10   17     -0.83      0.00 
    9   10   17     -0.78      0.00 
    8   10   17     -0.52      0.00 
    7   10   17     -0.22      0.00 
    6   10   17     -0.08      0.00 
    5   10   17     -0.17      0.00 
    4   10   17     -0.38      0.00 
    3   10   17     -0.47      0.00 
    2   10   17     -0.29      0.00 
    1   10   17      0.07      0.00 
    0   10   17      0.39      0.00 
   -1   10   17      0.50      0.00 
   -2   10   17      0.38      0.00 
   -3   10   17      0.10      0.00 
   -4   10   17     -0.23      0.00 
   -5   10   17     -0.45      0.00 
   -6   10   17     -0.45      0.00 
   -7   10   17     -0.24      0.00 
   -8   10   17     -0.01      0.00 
   -9   10   17      0.10      0.00 
   13    9   17      0.52      0.00 
   12    9   17      0.43      0.00 
   11    9   17      0.40      0.00 
   10    9   17      0.52      0.00 
    9    9   17      0.60      0.00 
    8    9   17      0.44      0.00 
    7    9   17      0.08      0.00 
    6    9   17     -0.26      0.00 
    5    9   17     -0.46      0.00 
    4    9   17     -0.53      0.00 
    3    9   17     -0.52      0.00 
    2    9   17     -0.42      0.00 
    1    9   17     -0.30      0.00 
    0    9   17     -0.32      0.00 
   -1    9   17     -0.51      0.00 
   -2    9   17     -0.70      0.00 
   -3    9   17     -0.62      0.00 
   -4    9   17     -0.19      0.00 
   -5    9   17      0.32      0.00 
   -6    9   17      0.58      0.00 
   -7    9   17      0.46      0.00 
   -8    9   17      0.08      0.00 
   -9    9   17     -0.27      0.00 
   13    8   17     -0.07      0.00 
   12    8   17      0.08      0.00 
   11    8   17      0.17      0.00 
   10    8   17      0.24      0.00 
    9    8   17      0.30      0.00 
    8    8   17      0.26      0.00 
    7    8   17      0.06      0.00 
    6    8   17     -0.08      0.00 
    5    8   17      0.09      0.00 
    4    8   17      0.45      0.00 
    3    8   17      0.60      0.00 
    2    8   17      0.35      0.00 
    1    8   17      0.00      0.00 
    0    8   17     -0.04      0.00 
   -1    8   17      0.25      0.00 
   -2    8   17      0.52      0.00 
   -3    8   17      0.45      0.00 
   -4    8   17      0.07      0.00 
   -5    8   17     -0.37      0.00 
   -6    8   17     -0.64      0.00 
   -7    8   17     -0.68      0.00 
   -8    8   17     -0.55      0.00 
   -9    8   17     -0.36      0.00 
  -10    8   17     -0.21      0.00 
   12    7   17     -0.59      0.00 
   11    7   17     -0.67      0.00 
   10    7   17     -0.64      0.00 
    9    7   17     -0.57      0.00 
    8    7   17     -0.32      0.00 
    7    7   17      0.20      0.00 
    6    7   17      0.70      0.00 
    5    7   17      0.83      0.00 
    4    7   17      0.59      0.00 
    3    7   17      0.31      0.00 
    2    7   17      0.24      0.00 
    1    7   17      0.35      0.00 
    0    7   17      0.50      0.00 
   -1    7   17      0.61      0.00 
   -2    7   17      0.60      0.00 
   -3    7   17      0.40      0.00 
   -4    7   17      0.10      0.00 
   -5    7   17     -0.04      0.00 
   -6    7   17      0.12      0.00 
   -7    7   17      0.41      0.00 
   -8    7   17      0.59      0.00 
   -9    7   17      0.57      0.00 
  -10    7   17      0.51      0.00 
  -11    7   17      0.46      0.00 
   14    6   17     -0.36      0.00 
   13    6   17     -0.41      0.00 
   12    6   17     -0.27      0.00 
   11    6   17     -0.05      0.00 
   10    6   17      0.06      0.00 
    9    6   17     -0.06      0.00 
    8    6   17     -0.32      0.00 
    7    6   17     -0.52      0.00 
    6    6   17     -0.59      0.00 
    5    6   17     -0.57      0.00 
    4    6   17     -0.53      0.00 
    3    6   17     -0.40      0.00 
    2    6   17     -0.16      0.00 
    1    6   17     -0.01      0.00 
    0    6   17     -0.21      0.00 
   -1    6   17     -0.70      0.00 
   -2    6   17     -1.03      0.00 
   -3    6   17     -0.79      0.00 
   -4    6   17     -0.11      0.00 
   -5    6   17      0.53      0.00 
   -6    6   17      0.79      0.00 
   -7    6   17      0.74      0.00 
   -8    6   17      0.58      0.00 
   -9    6   17      0.37      0.00 
  -10    6   17      0.09      0.00 
  -11    6   17     -0.17      0.00 
   14    5   17     -0.30      0.00 
   13    5   17     -0.02      0.00 
   12    5   17      0.32      0.00 
   11    5   17      0.53      0.00 
   10    5   17      0.62      0.00 
    9    5   17      0.56      0.00 
    8    5   17      0.25      0.00 
    7    5   17     -0.27      0.00 
    6    5   17     -0.65      0.00 
    5    5   17     -0.58      0.00 
    4    5   17     -0.17      0.00 
    3    5   17      0.10      0.00 
    2    5   17     -0.01      0.00 
    1    5   17     -0.28      0.00 
    0    5   17     -0.35      0.00 
   -1    5   17     -0.19      0.00 
   -2    5   17     -0.03      0.00 
   -3    5   17      0.01      0.00 
   -4    5   17      0.00      0.00 
   -5    5   17     -0.04      0.00 
   -6    5   17     -0.28      0.00 
   -7    5   17     -0.75      0.00 
   -8    5   17     -1.21      0.00 
   -9    5   17     -1.25      0.00 
  -10    5   17     -0.78      0.00 
  -11    5   17     -0.15      0.00 
   13    4   17      0.45      0.00 
   12    4   17      0.34      0.00 
   11    4   17      0.08      0.00 
   10    4   17     -0.25      0.00 
    9    4   17     -0.43      0.00 
    8    4   17     -0.20      0.00 
    7    4   17      0.41      0.00 
    6    4   17      0.93      0.00 
    5    4   17      0.95      0.00 
    4    4   17      0.46      0.00 
    3    4   17     -0.16      0.00 
    2    4   17     -0.53      0.00 
    1    4   17     -0.51      0.00 
    0    4   17     -0.16      0.00 
   -1    4   17      0.33      0.00 
   -2    4   17      0.68      0.00 
   -3    4   17      0.63      0.00 
   -4    4   17      0.14      0.00 
   -5    4   17     -0.46      0.00 
   -6    4   17     -0.68      0.00 
   -7    4   17     -0.32      0.00 
   -8    4   17      0.35      0.00 
   -9    4   17      0.79      0.00 
  -10    4   17      0.72      0.00 
  -11    4   17      0.33      0.00 
  -12    4   17      0.04      0.00 
   13    3   17      0.05      0.00 
   12    3   17     -0.05      0.00 
   11    3   17     -0.11      0.00 
   10    3   17     -0.01      0.00 
    9    3   17      0.23      0.00 
    8    3   17      0.45      0.00 
    7    3   17      0.49      0.00 
    6    3   17      0.31      0.00 
    5    3   17      0.03      0.00 
    4    3   17     -0.11      0.00 
    3    3   17      0.12      0.00 
    2    3   17      0.73      0.00 
    1    3   17      1.34      0.00 
    0    3   17      1.48      0.00 
   -1    3   17      1.03      0.00 
   -2    3   17      0.34      0.00 
   -3    3   17     -0.16      0.00 
   -4    3   17     -0.26      0.00 
   -5    3   17     -0.08      0.00 
   -6    3   17      0.17      0.00 
   -7    3   17      0.30      0.00 
   -8    3   17      0.22      0.00 
   -9    3   17     -0.01      0.00 
  -10    3   17     -0.15      0.00 
  -11    3   17     -0.08      0.00 
  -12    3   17      0.07      0.00 
   13    2   17     -0.11      0.00 
   12    2   17     -0.02      0.00 
   11    2   17      0.26      0.00 
   10    2   17      0.44      0.00 
    9    2   17      0.18      0.00 
    8    2   17     -0.49      0.00 
    7    2   17     -1.10      0.00 
    6    2   17     -1.14      0.00 
    5    2   17     -0.54      0.00 
    4    2   17      0.20      0.00 
    3    2   17      0.50      0.00 
    2    2   17      0.09      0.00 
    1    2   17     -0.71      0.00 
    0    2   17     -1.35      0.00 
   -1    2   17     -1.46      0.00 
   -2    2   17     -1.06      0.00 
   -3    2   17     -0.42      0.00 
   -4    2   17      0.16      0.00 
   -5    2   17      0.48      0.00 
   -6    2   17      0.49      0.00 
   -7    2   17      0.25      0.00 
   -8    2   17     -0.04      0.00 
   -9    2   17     -0.19      0.00 
  -10    2   17     -0.20      0.00 
  -11    2   17     -0.19      0.00 
  -12    2   17     -0.24      0.00 
   12    1   17      0.18      0.00 
   11    1   17     -0.25      0.00 
   10    1   17     -0.87      0.00 
    9    1   17     -1.20      0.00 
    8    1   17     -0.95      0.00 
    7    1   17     -0.33      0.00 
    6    1   17      0.17      0.00 
    5    1   17      0.22      0.00 
    4    1   17     -0.10      0.00 
    3    1   17     -0.53      0.00 
    2    1   17     -0.76      0.00 
    1    1   17     -0.63      0.00 
    0    1   17     -0.13      0.00 
   -1    1   17      0.50      0.00 
   -2    1   17      0.90      0.00 
   -3    1   17      0.81      0.00 
   -4    1   17      0.27      0.00 
   -5    1   17     -0.39      0.00 
   -6    1   17     -0.83      0.00 
   -7    1   17     -0.84      0.00 
   -8    1   17     -0.53      0.00 
   -9    1   17     -0.12      0.00 
  -10    1   17      0.15      0.00 
  -11    1   17      0.23      0.00 
  -12    1   17      0.23      0.00 
   12    0   17     -0.19      0.00 
   11    0   17      0.05      0.00 
   10    0   17      0.50      0.00 
    9    0   17      1.01      0.00 
    8    0   17      1.33      0.00 
    7    0   17      1.28      0.00 
    6    0   17      0.78      0.00 
    5    0   17      0.00      0.00 
    4    0   17     -0.60      0.00 
    3    0   17     -0.59      0.00 
    2    0   17      0.06      0.00 
    1    0   17      0.85      0.00 
    0    0   17      1.10      0.00 
   -1    0   17      0.53      0.00 
   -2    0   17     -0.51      0.00 
   -3    0   17     -1.32      0.00 
   -4    0   17     -1.38      0.00 
   -5    0   17     -0.72      0.00 
   -6    0   17      0.16      0.00 
   -7    0   17      0.70      0.00 
   -8    0   17      0.68      0.00 
   -9    0   17      0.36      0.00 
  -10    0   17      0.12      0.00 
  -11    0   17      0.13      0.00 
  -12    0   17      0.25      0.00 
   11   -1   17      0.14      0.00 
   10   -1   17      0.20      0.00 
    9   -1   17      0.00      0.00 
    8   -1   17     -0.45      0.00 
    7   -1   17     -0.79      0.00 
    6   -1   17     -0.65      0.00 
    5   -1   17     -0.01      0.00 
    4   -1   17      0.72      0.00 
    3   -1   17      1.04      0.00 
    2   -1   17      0.74      0.00 
    1   -1   17      0.04      0.00 
    0   -1   17     -0.60      0.00 
   -1   -1   17     -0.80      0.00 
   -2   -1   17     -0.41      0.00 
   -3   -1   17      0.38      0.00 
   -4   -1   17      1.16      0.00 
   -5   -1   17      1.50      0.00 
   -6   -1   17      1.26      0.00 
   -7   -1   17      0.71      0.00 
   -8   -1   17      0.23      0.00 
   -9   -1   17      0.04      0.00 
  -10   -1   17      0.04      0.00 
  -11   -1   17      0.02      0.00 
  -12   -1   17     -0.10      0.00 
   11   -2   17     -0.02      0.00 
   10   -2   17     -0.30      0.00 
    9   -2   17     -0.49      0.00 
    8   -2   17     -0.33      0.00 
    7   -2   17      0.17      0.00 
    6   -2   17      0.69      0.00 
    5   -2   17      0.84      0.00 
    4   -2   17      0.48      0.00 
    3   -2   17     -0.19      0.00 
    2   -2   17     -0.80      0.00 
    1   -2   17     -0.98      0.00 
    0   -2   17     -0.60      0.00 
   -1   -2   17      0.21      0.00 
   -2   -2   17      1.05      0.00 
   -3   -2   17      1.43      0.00 
   -4   -2   17      1.05      0.00 
   -5   -2   17      0.11      0.00 
   -6   -2   17     -0.75      0.00 
   -7   -2   17     -0.97      0.00 
   -8   -2   17     -0.54      0.00 
   -9   -2   17      0.01      0.00 
  -10   -2   17      0.14      0.00 
  -11   -2   17     -0.16      0.00 
  -12   -2   17     -0.50      0.00 
  -13   -2   17     -0.53      0.00 
   10   -3   17     -0.45      0.00 
    9   -3   17     -0.26      0.00 
    8   -3   17      0.27      0.00 
    7   -3   17      0.69      0.00 
    6   -3   17      0.59      0.00 
    5   -3   17      0.07      0.00 
    4   -3   17     -0.35      0.00 
    3   -3   17     -0.23      0.00 
    2   -3   17      0.38      0.00 
    1   -3   17      0.94      0.00 
    0   -3   17      0.92      0.00 
   -1   -3   17      0.16      0.00 
   -2   -3   17     -1.03      0.00 
   -3   -3   17     -2.14      0.00 
   -4   -3   17     -2.63      0.00 
   -5   -3   17     -2.29      0.00 
   -6   -3   17     -1.39      0.00 
   -7   -3   17     -0.50      0.00 
   -8   -3   17     -0.10      0.00 
   -9   -3   17     -0.17      0.00 
  -10   -3   17     -0.31      0.00 
  -11   -3   17     -0.18      0.00 
  -12   -3   17      0.14      0.00 
    9   -4   17      0.75      0.00 
    8   -4   17      0.15      0.00 
    7   -4   17     -0.70      0.00 
    6   -4   17     -1.26      0.00 
    5   -4   17     -1.21      0.00 
    4   -4   17     -0.75      0.00 
    3   -4   17     -0.35      0.00 
    2   -4   17     -0.36      0.00 
    1   -4   17     -0.67      0.00 
    0   -4   17     -0.80      0.00 
   -1   -4   17     -0.42      0.00 
   -2   -4   17      0.42      0.00 
   -3   -4   17      1.33      0.00 
   -4   -4   17      1.96      0.00 
   -5   -4   17      2.16      0.00 
   -6   -4   17      1.95      0.00 
   -7   -4   17      1.35      0.00 
   -8   -4   17      0.54      0.00 
   -9   -4   17     -0.10      0.00 
  -10   -4   17     -0.27      0.00 
  -11   -4   17     -0.07      0.00 
  -12   -4   17      0.14      0.00 
    9   -5   17     -0.18      0.00 
    8   -5   17      0.27      0.00 
    7   -5   17      0.91      0.00 
    6   -5   17      1.46      0.00 
    5   -5   17      1.63      0.00 
    4   -5   17      1.26      0.00 
    3   -5   17      0.60      0.00 
    2   -5   17      0.07      0.00 
    1   -5   17     -0.07      0.00 
    0   -5   17      0.02      0.00 
   -1   -5   17      0.05      0.00 
   -2   -5   17     -0.08      0.00 
   -3   -5   17     -0.29      0.00 
   -4   -5   17     -0.59      0.00 
   -5   -5   17     -1.03      0.00 
   -6   -5   17     -1.44      0.00 
   -7   -5   17     -1.41      0.00 
   -8   -5   17     -0.78      0.00 
   -9   -5   17      0.07      0.00 
  -10   -5   17      0.52      0.00 
  -11   -5   17      0.40      0.00 
  -12   -5   17      0.07      0.00 
    8   -6   17     -0.36      0.00 
    7   -6   17     -0.39      0.00 
    6   -6   17     -0.73      0.00 
    5   -6   17     -1.26      0.00 
    4   -6   17     -1.58      0.00 
    3   -6   17     -1.38      0.00 
    2   -6   17     -0.71      0.00 
    1   -6   17      0.12      0.00 
    0   -6   17      0.79      0.00 
   -1   -6   17      1.00      0.00 
   -2   -6   17      0.58      0.00 
   -3   -6   17     -0.23      0.00 
   -4   -6   17     -0.78      0.00 
   -5   -6   17     -0.53      0.00 
   -6   -6   17      0.39      0.00 
   -7   -6   17      1.17      0.00 
   -8   -6   17      1.21      0.00 
   -9   -6   17      0.63      0.00 
  -10   -6   17      0.03      0.00 
  -11   -6   17     -0.18      0.00 
  -12   -6   17     -0.11      0.00 
    7   -7   17     -0.49      0.00 
    6   -7   17     -0.57      0.00 
    5   -7   17     -0.21      0.00 
    4   -7   17      0.40      0.00 
    3   -7   17      0.90      0.00 
    2   -7   17      0.99      0.00 
    1   -7   17      0.60      0.00 
    0   -7   17     -0.03      0.00 
   -1   -7   17     -0.47      0.00 
   -2   -7   17     -0.34      0.00 
   -3   -7   17      0.38      0.00 
   -4   -7   17      1.28      0.00 
   -5   -7   17      1.77      0.00 
   -6   -7   17      1.53      0.00 
   -7   -7   17      0.72      0.00 
   -8   -7   17     -0.15      0.00 
   -9   -7   17     -0.60      0.00 
  -10   -7   17     -0.54      0.00 
  -11   -7   17     -0.23      0.00 
  -12   -7   17      0.02      0.00 
    6   -8   17      0.30      0.00 
    5   -8   17      0.36      0.00 
    4   -8   17      0.29      0.00 
    3   -8   17      0.11      0.00 
    2   -8   17     -0.04      0.00 
    1   -8   17     -0.02      0.00 
    0   -8   17      0.09      0.00 
   -1   -8   17      0.13      0.00 
   -2   -8   17      0.06      0.00 
   -3   -8   17     -0.08      0.00 
   -4   -8   17     -0.35      0.00 
   -5   -8   17     -0.81      0.00 
   -6   -8   17     -1.31      0.00 
   -7   -8   17     -1.43      0.00 
   -8   -8   17     -0.95      0.00 
   -9   -8   17     -0.17      0.00 
  -10   -8   17      0.39      0.00 
  -11   -8   17      0.46      0.00 
    5   -9   17     -0.06      0.00 
    4   -9   17     -0.47      0.00 
    3   -9   17     -0.66      0.00 
    2   -9   17     -0.53      0.00 
    1   -9   17     -0.23      0.00 
    0   -9   17      0.03      0.00 
   -1   -9   17      0.09      0.00 
   -2   -9   17     -0.10      0.00 
   -3   -9   17     -0.45      0.00 
   -4   -9   17     -0.74      0.00 
   -5   -9   17     -0.72      0.00 
   -6   -9   17     -0.37      0.00 
   -7   -9   17      0.05      0.00 
   -8   -9   17      0.24      0.00 
   -9   -9   17      0.11      0.00 
  -10   -9   17     -0.19      0.00 
  -11   -9   17     -0.39      0.00 
    4  -10   17     -0.06      0.00 
    3  -10   17      0.26      0.00 
    2  -10   17      0.39      0.00 
    1  -10   17      0.17      0.00 
    0  -10   17     -0.26      0.00 
   -1  -10   17     -0.51      0.00 
   -2  -10   17     -0.25      0.00 
   -3  -10   17      0.43      0.00 
   -4  -10   17      1.12      0.00 
   -5  -10   17      1.47      0.00 
   -6  -10   17      1.40      0.00 
   -7  -10   17      1.03      0.00 
   -8  -10   17      0.56      0.00 
   -9  -10   17      0.18      0.00 
  -10  -10   17      0.01      0.00 
    3  -11   17      0.61      0.00 
    2  -11   17      0.38      0.00 
    1  -11   17      0.18      0.00 
    0  -11   17      0.15      0.00 
   -1  -11   17      0.28      0.00 
   -2  -11   17      0.38      0.00 
   -3  -11   17      0.26      0.00 
   -4  -11   17     -0.11      0.00 
   -5  -11   17     -0.53      0.00 
   -6  -11   17     -0.75      0.00 
   -7  -11   17     -0.68      0.00 
   -8  -11   17     -0.41      0.00 
   -9  -11   17     -0.11      0.00 
    0  -12   17     -0.01      0.00 
   -1  -12   17     -0.08      0.00 
   -2  -12   17     -0.32      0.00 
   -3  -12   17     -0.61      0.00 
   -4  -12   17     -0.72      0.00 
   -5  -12   17     -0.57      0.00 
   -6  -12   17     -0.30      0.00 
   -7  -12   17     -0.08      0.00 
    6   19   16      0.07      0.00 
    5   19   16      0.01      0.00 
    4   19   16     -0.06      0.00 
    3   19   16     -0.18      0.00 
    9   18   16      0.14      0.00 
    8   18   16      0.07      0.00 
    7   18   16      0.15      0.00 
    6   18   16      0.26      0.00 
    5   18   16      0.22      0.00 
    4   18   16      0.08      0.00 
    3   18   16      0.06      0.00 
    2   18   16      0.18      0.00 
    1   18   16      0.23      0.00 
    0   18   16      0.10      0.00 
   11   17   16     -0.42      0.00 
   10   17   16     -0.47      0.00 
    9   17   16     -0.33      0.00 
    8   17   16     -0.19      0.00 
    7   17   16     -0.21      0.00 
    6   17   16     -0.27      0.00 
    5   17   16     -0.20      0.00 
    4   17   16     -0.01      0.00 
    3   17   16      0.18      0.00 
    2   17   16      0.29      0.00 
    1   17   16      0.36      0.00 
    0   17   16      0.41      0.00 
   -1   17   16      0.41      0.00 
   -2   17   16      0.37      0.00 
   -3   17   16      0.31      0.00 
   11   16   16     -0.07      0.00 
   10   16   16     -0.12      0.00 
    9   16   16     -0.03      0.00 
    8   16   16      0.02      0.00 
    7   16   16     -0.15      0.00 
    6   16   16     -0.42      0.00 
    5   16   16     -0.57      0.00 
    4   16   16     -0.51      0.00 
    3   16   16     -0.36      0.00 
    2   16   16     -0.27      0.00 
    1   16   16     -0.22      0.00 
    0   16   16     -0.19      0.00 
   -1   16   16     -0.22      0.00 
   -2   16   16     -0.34      0.00 
   -3   16   16     -0.39      0.00 
   -4   16   16     -0.23      0.00 
   12   15   16      0.54      0.00 
   11   15   16      0.73      0.00 
   10   15   16      0.63      0.00 
    9   15   16      0.33      0.00 
    8   15   16      0.11      0.00 
    7   15   16      0.09      0.00 
    6   15   16      0.15      0.00 
    5   15   16      0.15      0.00 
    4   15   16      0.11      0.00 
    3   15   16      0.13      0.00 
    2   15   16      0.22      0.00 
    1   15   16      0.25      0.00 
    0   15   16      0.14      0.00 
   -1   15   16     -0.04      0.00 
   -2   15   16     -0.15      0.00 
   -3   15   16     -0.15      0.00 
   -4   15   16     -0.07      0.00 
   -5   15   16      0.02      0.00 
   13   14   16     -0.20      0.00 
   12   14   16     -0.34      0.00 
   11   14   16     -0.22      0.00 
   10   14   16      0.10      0.00 
    9   14   16      0.36      0.00 
    8   14   16      0.37      0.00 
    7   14   16      0.23      0.00 
    6   14   16      0.14      0.00 
    5   14   16      0.17      0.00 
    4   14   16      0.19      0.00 
    3   14   16      0.10      0.00 
    2   14   16     -0.09      0.00 
    1   14   16     -0.25      0.00 
    0   14   16     -0.25      0.00 
   -1   14   16     -0.06      0.00 
   -2   14   16      0.22      0.00 
   -3   14   16      0.32      0.00 
   -4   14   16      0.13      0.00 
   -5   14   16     -0.23      0.00 
   -6   14   16     -0.41      0.00 
   13   13   16     -0.02      0.00 
   12   13   16     -0.27      0.00 
   11   13   16     -0.50      0.00 
   10   13   16     -0.53      0.00 
    9   13   16     -0.34      0.00 
    8   13   16     -0.08      0.00 
    7   13   16      0.10      0.00 
    6   13   16      0.18      0.00 
    5   13   16      0.15      0.00 
    4   13   16      0.09      0.00 
    3   13   16      0.04      0.00 
    2   13   16      0.05      0.00 
    1   13   16      0.06      0.00 
    0   13   16      0.00      0.00 
   -1   13   16     -0.11      0.00 
   -2   13   16     -0.12      0.00 
   -3   13   16      0.03      0.00 
   -4   13   16      0.19      0.00 
   -5   13   16      0.15      0.00 
   -6   13   16     -0.07      0.00 
   -7   13   16     -0.27      0.00 
   14   12   16      0.01      0.00 
   13   12   16     -0.33      0.00 
   12   12   16     -0.47      0.00 
   11   12   16     -0.39      0.00 
   10   12   16     -0.24      0.00 
    9   12   16     -0.21      0.00 
    8   12   16     -0.35      0.00 
    7   12   16     -0.55      0.00 
    6   12   16     -0.64      0.00 
    5   12   16     -0.52      0.00 
    4   12   16     -0.22      0.00 
    3   12   16      0.10      0.00 
    2   12   16      0.28      0.00 
    1   12   16      0.25      0.00 
    0   12   16      0.05      0.00 
   -1   12   16     -0.21      0.00 
   -2   12   16     -0.41      0.00 
   -3   12   16     -0.41      0.00 
   -4   12   16     -0.14      0.00 
   -5   12   16      0.32      0.00 
   -6   12   16      0.68      0.00 
   -7   12   16      0.71      0.00 
   -8   12   16      0.44      0.00 
   14   11   16      0.51      0.00 
   13   11   16      0.78      0.00 
   12   11   16      0.96      0.00 
   11   11   16      0.92      0.00 
   10   11   16      0.62      0.00 
    9   11   16      0.22      0.00 
    8   11   16     -0.05      0.00 
    7   11   16     -0.11      0.00 
    6   11   16     -0.03      0.00 
    5   11   16      0.11      0.00 
    4   11   16      0.21      0.00 
    3   11   16      0.17      0.00 
    2   11   16     -0.07      0.00 
    1   11   16     -0.34      0.00 
    0   11   16     -0.35      0.00 
   -1   11   16     -0.02      0.00 
   -2   11   16      0.38      0.00 
   -3   11   16      0.49      0.00 
   -4   11   16      0.22      0.00 
   -5   11   16     -0.18      0.00 
   -6   11   16     -0.43      0.00 
   -7   11   16     -0.40      0.00 
   -8   11   16     -0.18      0.00 
   -9   11   16      0.04      0.00 
   13   10   16     -0.90      0.00 
   12   10   16     -0.56      0.00 
   11   10   16     -0.26      0.00 
   10   10   16     -0.16      0.00 
    9   10   16     -0.12      0.00 
    8   10   16      0.09      0.00 
    7   10   16      0.51      0.00 
    6   10   16      0.87      0.00 
    5   10   16      0.88      0.00 
    4   10   16      0.51      0.00 
    3   10   16      0.07      0.00 
    2   10   16     -0.13      0.00 
    1   10   16     -0.03      0.00 
    0   10   16      0.18      0.00 
   -1   10   16      0.30      0.00 
   -2   10   16      0.26      0.00 
   -3   10   16      0.06      0.00 
   -4   10   16     -0.22      0.00 
   -5   10   16     -0.45      0.00 
   -6   10   16     -0.45      0.00 
   -7   10   16     -0.22      0.00 
   -8   10   16      0.02      0.00 
   -9   10   16      0.05      0.00 
  -10   10   16     -0.07      0.00 
   13    9   16     -0.01      0.00 
   12    9   16     -0.39      0.00 
   11    9   16     -0.45      0.00 
   10    9   16     -0.14      0.00 
    9    9   16      0.25      0.00 
    8    9   16      0.37      0.00 
    7    9   16      0.09      0.00 
    6    9   16     -0.37      0.00 
    5    9   16     -0.65      0.00 
    4    9   16     -0.55      0.00 
    3    9   16     -0.16      0.00 
    2    9   16      0.21      0.00 
    1    9   16      0.29      0.00 
    0    9   16      0.03      0.00 
   -1    9   16     -0.39      0.00 
   -2    9   16     -0.63      0.00 
   -3    9   16     -0.48      0.00 
   -4    9   16     -0.01      0.00 
   -5    9   16      0.49      0.00 
   -6    9   16      0.74      0.00 
   -7    9   16      0.70      0.00 
   -8    9   16      0.53      0.00 
   -9    9   16      0.38      0.00 
  -10    9   16      0.26      0.00 
   13    8   16      0.97      0.00 
   12    8   16      1.15      0.00 
   11    8   16      0.89      0.00 
   10    8   16      0.45      0.00 
    9    8   16      0.06      0.00 
    8    8   16     -0.26      0.00 
    7    8   16     -0.57      0.00 
    6    8   16     -0.71      0.00 
    5    8   16     -0.55      0.00 
    4    8   16     -0.25      0.00 
    3    8   16     -0.11      0.00 
    2    8   16     -0.23      0.00 
    1    8   16     -0.34      0.00 
    0    8   16     -0.20      0.00 
   -1    8   16      0.15      0.00 
   -2    8   16      0.46      0.00 
   -3    8   16      0.57      0.00 
   -4    8   16      0.48      0.00 
   -5    8   16      0.25      0.00 
   -6    8   16     -0.05      0.00 
   -7    8   16     -0.34      0.00 
   -8    8   16     -0.47      0.00 
   -9    8   16     -0.40      0.00 
  -10    8   16     -0.21      0.00 
   12    7   16     -0.36      0.00 
   11    7   16     -0.25      0.00 
   10    7   16     -0.05      0.00 
    9    7   16      0.11      0.00 
    8    7   16      0.23      0.00 
    7    7   16      0.37      0.00 
    6    7   16      0.48      0.00 
    5    7   16      0.42      0.00 
    4    7   16      0.19      0.00 
    3    7   16     -0.09      0.00 
    2    7   16     -0.26      0.00 
    1    7   16     -0.17      0.00 
    0    7   16      0.18      0.00 
   -1    7   16      0.58      0.00 
   -2    7   16      0.69      0.00 
   -3    7   16      0.32      0.00 
   -4    7   16     -0.31      0.00 
   -5    7   16     -0.76      0.00 
   -6    7   16     -0.78      0.00 
   -7    7   16     -0.55      0.00 
   -8    7   16     -0.41      0.00 
   -9    7   16     -0.47      0.00 
  -10    7   16     -0.57      0.00 
  -11    7   16     -0.57      0.00 
   14    6   16     -0.37      0.00 
   13    6   16     -0.73      0.00 
   12    6   16     -0.91      0.00 
   11    6   16     -0.77      0.00 
   10    6   16     -0.44      0.00 
    9    6   16     -0.09      0.00 
    8    6   16      0.21      0.00 
    7    6   16      0.42      0.00 
    6    6   16      0.43      0.00 
    5    6   16      0.24      0.00 
    4    6   16      0.03      0.00 
    3    6   16      0.02      0.00 
    2    6   16      0.17      0.00 
    1    6   16      0.17      0.00 
    0    6   16     -0.16      0.00 
   -1    6   16     -0.64      0.00 
   -2    6   16     -0.86      0.00 
   -3    6   16     -0.66      0.00 
   -4    6   16     -0.21      0.00 
   -5    6   16      0.20      0.00 
   -6    6   16      0.50      0.00 
   -7    6   16      0.73      0.00 
   -8    6   16      0.82      0.00 
   -9    6   16      0.68      0.00 
  -10    6   16      0.35      0.00 
  -11    6   16      0.10      0.00 
   14    5   16     -0.10      0.00 
   13    5   16      0.09      0.00 
   12    5   16      0.32      0.00 
   11    5   16      0.46      0.00 
   10    5   16      0.39      0.00 
    9    5   16     -0.01      0.00 
    8    5   16     -0.68      0.00 
    7    5   16     -1.17      0.00 
    6    5   16     -0.99      0.00 
    5    5   16     -0.12      0.00 
    4    5   16      0.85      0.00 
    3    5   16      1.25      0.00 
    2    5   16      1.03      0.00 
    1    5   16      0.58      0.00 
    0    5   16      0.21      0.00 
   -1    5   16     -0.04      0.00 
   -2    5   16     -0.18      0.00 
   -3    5   16     -0.11      0.00 
   -4    5   16      0.22      0.00 
   -5    5   16      0.53      0.00 
   -6    5   16      0.45      0.00 
   -7    5   16     -0.04      0.00 
   -8    5   16     -0.49      0.00 
   -9    5   16     -0.48      0.00 
  -10    5   16     -0.04      0.00 
  -11    5   16      0.40      0.00 
  -12    5   16      0.51      0.00 
   14    4   16     -0.13      0.00 
   13    4   16      0.03      0.00 
   12    4   16      0.27      0.00 
   11    4   16      0.29      0.00 
   10    4   16     -0.01      0.00 
    9    4   16     -0.34      0.00 
    8    4   16     -0.37      0.00 
    7    4   16     -0.17      0.00 
    6    4   16     -0.12      0.00 
    5    4   16     -0.46      0.00 
    4    4   16     -1.03      0.00 
    3    4   16     -1.50      0.00 
    2    4   16     -1.63      0.00 
    1    4   16     -1.29      0.00 
    0    4   16     -0.56      0.00 
   -1    4   16      0.31      0.00 
   -2    4   16      0.88      0.00 
   -3    4   16      0.87      0.00 
   -4    4   16      0.41      0.00 
   -5    4   16     -0.12      0.00 
   -6    4   16     -0.40      0.00 
   -7    4   16     -0.34      0.00 
   -8    4   16     -0.10      0.00 
   -9    4   16      0.08      0.00 
  -10    4   16      0.01      0.00 
  -11    4   16     -0.23      0.00 
  -12    4   16     -0.43      0.00 
   14    3   16     -0.03      0.00 
   13    3   16     -0.18      0.00 
   12    3   16     -0.43      0.00 
   11    3   16     -0.49      0.00 
   10    3   16     -0.07      0.00 
    9    3   16      0.69      0.00 
    8    3   16      1.36      0.00 
    7    3   16      1.56      0.00 
    6    3   16      1.20      0.00 
    5    3   16      0.55      0.00 
    4    3   16      0.07      0.00 
    3    3   16      0.07      0.00 
    2    3   16      0.50      0.00 
    1    3   16      0.89      0.00 
    0    3   16      0.82      0.00 
   -1    3   16      0.31      0.00 
   -2    3   16     -0.27      0.00 
   -3    3   16     -0.63      0.00 
   -4    3   16     -0.73      0.00 
   -5    3   16     -0.65      0.00 
   -6    3   16     -0.38      0.00 
   -7    3   16      0.00      0.00 
   -8    3   16      0.23      0.00 
   -9    3   16      0.18      0.00 
  -10    3   16      0.05      0.00 
  -11    3   16      0.16      0.00 
  -12    3   16      0.52      0.00 
   13    2   16      0.33      0.00 
   12    2   16      0.49      0.00 
   11    2   16      0.61      0.00 
   10    2   16      0.47      0.00 
    9    2   16     -0.04      0.00 
    8    2   16     -0.71      0.00 
    7    2   16     -1.05      0.00 
    6    2   16     -0.71      0.00 
    5    2   16      0.20      0.00 
    4    2   16      1.09      0.00 
    3    2   16      1.39      0.00 
    2    2   16      0.97      0.00 
    1    2   16      0.16      0.00 
    0    2   16     -0.58      0.00 
   -1    2   16     -0.94      0.00 
   -2    2   16     -0.82      0.00 
   -3    2   16     -0.31      0.00 
   -4    2   16      0.32      0.00 
   -5    2   16      0.71      0.00 
   -6    2   16      0.67      0.00 
   -7    2   16      0.35      0.00 
   -8    2   16      0.08      0.00 
   -9    2   16      0.08      0.00 
  -10    2   16      0.20      0.00 
  -11    2   16      0.16      0.00 
  -12    2   16     -0.10      0.00 
  -13    2   16     -0.36      0.00 
   13    1   16      0.18      0.00 
   12    1   16      0.11      0.00 
   11    1   16     -0.17      0.00 
   10    1   16     -0.64      0.00 
    9    1   16     -1.10      0.00 
    8    1   16     -1.22      0.00 
    7    1   16     -0.92      0.00 
    6    1   16     -0.44      0.00 
    5    1   16     -0.21      0.00 
    4    1   16     -0.45      0.00 
    3    1   16     -0.98      0.00 
    2    1   16     -1.33      0.00 
    1    1   16     -1.04      0.00 
    0    1   16     -0.06      0.00 
   -1    1   16      1.18      0.00 
   -2    1   16      2.01      0.00 
   -3    1   16      1.98      0.00 
   -4    1   16      1.17      0.00 
   -5    1   16      0.12      0.00 
   -6    1   16     -0.57      0.00 
   -7    1   16     -0.72      0.00 
   -8    1   16     -0.54      0.00 
   -9    1   16     -0.38      0.00 
  -10    1   16     -0.38      0.00 
  -11    1   16     -0.43      0.00 
  -12    1   16     -0.42      0.00 
  -13    1   16     -0.32      0.00 
   12    0   16     -0.06      0.00 
   11    0   16      0.01      0.00 
   10    0   16      0.34      0.00 
    9    0   16      0.92      0.00 
    8    0   16      1.43      0.00 
    7    0   16      1.42      0.00 
    6    0   16      0.75      0.00 
    5    0   16     -0.21      0.00 
    4    0   16     -0.77      0.00 
    3    0   16     -0.52      0.00 
    2    0   16      0.28      0.00 
    1    0   16      0.88      0.00 
    0    0   16      0.69      0.00 
   -1    0   16     -0.29      0.00 
   -2    0   16     -1.55      0.00 
   -3    0   16     -2.43      0.00 
   -4    0   16     -2.52      0.00 
   -5    0   16     -1.83      0.00 
   -6    0   16     -0.77      0.00 
   -7    0   16      0.12      0.00 
   -8    0   16      0.53      0.00 
   -9    0   16      0.49      0.00 
  -10    0   16      0.35      0.00 
  -11    0   16      0.34      0.00 
  -12    0   16      0.43      0.00 
  -13    0   16      0.44      0.00 
   12   -1   16     -0.20      0.00 
   11   -1   16      0.05      0.00 
   10   -1   16      0.18      0.00 
    9   -1   16     -0.06      0.00 
    8   -1   16     -0.57      0.00 
    7   -1   16     -0.93      0.00 
    6   -1   16     -0.76      0.00 
    5   -1   16     -0.06      0.00 
    4   -1   16      0.78      0.00 
    3   -1   16      1.27      0.00 
    2   -1   16      1.14      0.00 
    1   -1   16      0.54      0.00 
    0   -1   16     -0.13      0.00 
   -1   -1   16     -0.51      0.00 
   -2   -1   16     -0.39      0.00 
   -3   -1   16      0.17      0.00 
   -4   -1   16      0.91      0.00 
   -5   -1   16      1.43      0.00 
   -6   -1   16      1.37      0.00 
   -7   -1   16      0.73      0.00 
   -8   -1   16     -0.05      0.00 
   -9   -1   16     -0.45      0.00 
  -10   -1   16     -0.30      0.00 
  -11   -1   16      0.11      0.00 
  -12   -1   16      0.36      0.00 
  -13   -1   16      0.31      0.00 
   11   -2   16     -0.13      0.00 
   10   -2   16     -0.28      0.00 
    9   -2   16     -0.34      0.00 
    8   -2   16     -0.24      0.00 
    7   -2   16      0.08      0.00 
    6   -2   16      0.50      0.00 
    5   -2   16      0.66      0.00 
    4   -2   16      0.22      0.00 
    3   -2   16     -0.73      0.00 
    2   -2   16     -1.56      0.00 
    1   -2   16     -1.62      0.00 
    0   -2   16     -0.77      0.00 
   -1   -2   16      0.57      0.00 
   -2   -2   16      1.73      0.00 
   -3   -2   16      2.21      0.00 
   -4   -2   16      1.89      0.00 
   -5   -2   16      1.02      0.00 
   -6   -2   16      0.13      0.00 
   -7   -2   16     -0.28      0.00 
   -8   -2   16     -0.14      0.00 
   -9   -2   16      0.15      0.00 
  -10   -2   16      0.09      0.00 
  -11   -2   16     -0.39      0.00 
  -12   -2   16     -0.85      0.00 
  -13   -2   16     -0.87      0.00 
   11   -3   16     -0.07      0.00 
   10   -3   16     -0.26      0.00 
    9   -3   16     -0.10      0.00 
    8   -3   16      0.47      0.00 
    7   -3   16      1.05      0.00 
    6   -3   16      1.09      0.00 
    5   -3   16      0.55      0.00 
    4   -3   16      0.01      0.00 
    3   -3   16      0.04      0.00 
    2   -3   16      0.61      0.00 
    1   -3   16      1.02      0.00 
    0   -3   16      0.64      0.00 
   -1   -3   16     -0.54      0.00 
   -2   -3   16     -1.94      0.00 
   -3   -3   16     -2.92      0.00 
   -4   -3   16     -3.20      0.00 
   -5   -3   16     -2.78      0.00 
   -6   -3   16     -1.88      0.00 
   -7   -3   16     -0.81      0.00 
   -8   -3   16      0.05      0.00 
   -9   -3   16      0.45      0.00 
  -10   -3   16      0.49      0.00 
  -11   -3   16      0.44      0.00 
  -12   -3   16      0.45      0.00 
  -13   -3   16      0.40      0.00 
   10   -4   16      0.37      0.00 
    9   -4   16      0.02      0.00 
    8   -4   16     -0.76      0.00 
    7   -4   16     -1.59      0.00 
    6   -4   16     -1.95      0.00 
    5   -4   16     -1.58      0.00 
    4   -4   16     -0.73      0.00 
    3   -4   16      0.01      0.00 
    2   -4   16      0.22      0.00 
    1   -4   16      0.02      0.00 
    0   -4   16     -0.10      0.00 
   -1   -4   16      0.25      0.00 
   -2   -4   16      1.02      0.00 
   -3   -4   16      1.88      0.00 
   -4   -4   16      2.52      0.00 
   -5   -4   16      2.74      0.00 
   -6   -4   16      2.40      0.00 
   -7   -4   16      1.47      0.00 
   -8   -4   16      0.26      0.00 
   -9   -4   16     -0.64      0.00 
  -10   -4   16     -0.83      0.00 
  -11   -4   16     -0.48      0.00 
  -12   -4   16     -0.07      0.00 
  -13   -4   16      0.06      0.00 
    9   -5   16      0.17      0.00 
    8   -5   16      0.54      0.00 
    7   -5   16      1.06      0.00 
    6   -5   16      1.55      0.00 
    5   -5   16      1.67      0.00 
    4   -5   16      1.21      0.00 
    3   -5   16      0.32      0.00 
    2   -5   16     -0.56      0.00 
    1   -5   16     -1.02      0.00 
    0   -5   16     -0.92      0.00 
   -1   -5   16     -0.41      0.00 
   -2   -5   16      0.12      0.00 
   -3   -5   16      0.30      0.00 
   -4   -5   16     -0.12      0.00 
   -5   -5   16     -0.94      0.00 
   -6   -5   16     -1.55      0.00 
   -7   -5   16     -1.46      0.00 
   -8   -5   16     -0.72      0.00 
   -9   -5   16      0.04      0.00 
  -10   -5   16      0.32      0.00 
  -11   -5   16      0.13      0.00 
  -12   -5   16     -0.12      0.00 
  -13   -5   16     -0.15      0.00 
    9   -6   16      0.31      0.00 
    8   -6   16      0.67      0.00 
    7   -6   16      0.76      0.00 
    6   -6   16      0.35      0.00 
    5   -6   16     -0.43      0.00 
    4   -6   16     -1.10      0.00 
    3   -6   16     -1.18      0.00 
    2   -6   16     -0.57      0.00 
    1   -6   16      0.33      0.00 
    0   -6   16      0.88      0.00 
   -1   -6   16      0.57      0.00 
   -2   -6   16     -0.52      0.00 
   -3   -6   16     -1.75      0.00 
   -4   -6   16     -2.32      0.00 
   -5   -6   16     -1.87      0.00 
   -6   -6   16     -0.75      0.00 
   -7   -6   16      0.35      0.00 
   -8   -6   16      0.92      0.00 
   -9   -6   16      0.95      0.00 
  -10   -6   16      0.72      0.00 
  -11   -6   16      0.47      0.00 
  -12   -6   16      0.27      0.00 
    8   -7   16     -0.58      0.00 
    7   -7   16     -0.67      0.00 
    6   -7   16     -0.62      0.00 
    5   -7   16     -0.33      0.00 
    4   -7   16      0.20      0.00 
    3   -7   16      0.75      0.00 
    2   -7   16      0.95      0.00 
    1   -7   16      0.66      0.00 
    0   -7   16      0.20      0.00 
   -1   -7   16      0.02      0.00 
   -2   -7   16      0.32      0.00 
   -3   -7   16      0.92      0.00 
   -4   -7   16      1.49      0.00 
   -5   -7   16      1.79      0.00 
   -6   -7   16      1.64      0.00 
   -7   -7   16      0.94      0.00 
   -8   -7   16     -0.06      0.00 
   -9   -7   16     -0.83      0.00 
  -10   -7   16     -0.98      0.00 
  -11   -7   16     -0.59      0.00 
  -12   -7   16     -0.12      0.00 
    7   -8   16     -0.27      0.00 
    6   -8   16     -0.06      0.00 
    5   -8   16      0.20      0.00 
    4   -8   16      0.23      0.00 
    3   -8   16     -0.05      0.00 
    2   -8   16     -0.41      0.00 
    1   -8   16     -0.55      0.00 
    0   -8   16     -0.40      0.00 
   -1   -8   16     -0.08      0.00 
   -2   -8   16      0.32      0.00 
   -3   -8   16      0.68      0.00 
   -4   -8   16      0.79      0.00 
   -5   -8   16      0.50      0.00 
   -6   -8   16     -0.01      0.00 
   -7   -8   16     -0.33      0.00 
   -8   -8   16     -0.23      0.00 
   -9   -8   16      0.11      0.00 
  -10   -8   16      0.31      0.00 
  -11   -8   16      0.20      0.00 
  -12   -8   16     -0.06      0.00 
    6   -9   16     -0.22      0.00 
    5   -9   16     -0.49      0.00 
    4   -9   16     -0.57      0.00 
    3   -9   16     -0.40      0.00 
    2   -9   16     -0.01      0.00 
    1   -9   16      0.47      0.00 
    0   -9   16      0.78      0.00 
   -1   -9   16      0.58      0.00 
   -2   -9   16     -0.21      0.00 
   -3   -9   16     -1.18      0.00 
   -4   -9   16     -1.69      0.00 
   -5   -9   16     -1.47      0.00 
   -6   -9   16     -0.81      0.00 
   -7   -9   16     -0.23      0.00 
   -8   -9   16      0.07      0.00 
   -9   -9   16      0.18      0.00 
  -10   -9   16      0.22      0.00 
  -11   -9   16      0.21      0.00 
    5  -10   16     -0.54      0.00 
    4  -10   16     -0.53      0.00 
    3  -10   16     -0.22      0.00 
    2  -10   16      0.17      0.00 
    1  -10   16      0.24      0.00 
    0  -10   16     -0.13      0.00 
   -1  -10   16     -0.52      0.00 
   -2  -10   16     -0.40      0.00 
   -3  -10   16      0.28      0.00 
   -4  -10   16      1.01      0.00 
   -5  -10   16      1.24      0.00 
   -6  -10   16      0.90      0.00 
   -7  -10   16      0.36      0.00 
   -8  -10   16     -0.08      0.00 
   -9  -10   16     -0.32      0.00 
  -10  -10   16     -0.41      0.00 
  -11  -10   16     -0.37      0.00 
    4  -11   16      1.11      0.00 
    3  -11   16      0.67      0.00 
    2  -11   16      0.06      0.00 
    1  -11   16     -0.39      0.00 
    0  -11   16     -0.45      0.00 
   -1  -11   16     -0.13      0.00 
   -2  -11   16      0.30      0.00 
   -3  -11   16      0.53      0.00 
   -4  -11   16      0.39      0.00 
   -5  -11   16      0.03      0.00 
   -6  -11   16     -0.23      0.00 
   -7  -11   16     -0.21      0.00 
   -8  -11   16      0.01      0.00 
   -9  -11   16      0.19      0.00 
  -10  -11   16      0.23      0.00 
    2  -12   16      0.15      0.00 
    1  -12   16      0.19      0.00 
    0  -12   16      0.18      0.00 
   -1  -12   16      0.20      0.00 
   -2  -12   16      0.18      0.00 
   -3  -12   16      0.03      0.00 
   -4  -12   16     -0.18      0.00 
   -5  -12   16     -0.27      0.00 
   -6  -12   16     -0.21      0.00 
   -7  -12   16     -0.10      0.00 
   -8  -12   16     -0.07      0.00 
   -9  -12   16     -0.11      0.00 
    0  -13   16      0.14      0.00 
   -1  -13   16      0.07      0.00 
   -2  -13   16     -0.25      0.00 
   -3  -13   16     -0.56      0.00 
   -4  -13   16     -0.58      0.00 
   -5  -13   16     -0.30      0.00 
   -6  -13   16      0.03      0.00 
   -7  -13   16      0.15      0.00 
    8   19   15      0.08      0.00 
    7   19   15     -0.05      0.00 
    6   19   15     -0.20      0.00 
    5   19   15     -0.25      0.00 
    4   19   15     -0.19      0.00 
    3   19   15     -0.15      0.00 
    2   19   15     -0.16      0.00 
   10   18   15      0.30      0.00 
    9   18   15      0.27      0.00 
    8   18   15      0.22      0.00 
    7   18   15      0.26      0.00 
    6   18   15      0.20      0.00 
    5   18   15     -0.15      0.00 
    4   18   15     -0.58      0.00 
    3   18   15     -0.73      0.00 
    2   18   15     -0.52      0.00 
    1   18   15     -0.22      0.00 
    0   18   15     -0.06      0.00 
   -1   18   15     -0.05      0.00 
   11   17   15     -0.09      0.00 
   10   17   15     -0.20      0.00 
    9   17   15     -0.21      0.00 
    8   17   15     -0.17      0.00 
    7   17   15     -0.07      0.00 
    6   17   15      0.19      0.00 
    5   17   15      0.52      0.00 
    4   17   15      0.72      0.00 
    3   17   15      0.66      0.00 
    2   17   15      0.43      0.00 
    1   17   15      0.20      0.00 
    0   17   15      0.08      0.00 
   -1   17   15      0.10      0.00 
   -2   17   15      0.20      0.00 
   -3   17   15      0.25      0.00 
   -4   17   15      0.14      0.00 
   11   16   15     -0.64      0.00 
   10   16   15     -0.52      0.00 
    9   16   15     -0.12      0.00 
    8   16   15      0.20      0.00 
    7   16   15      0.16      0.00 
    6   16   15     -0.14      0.00 
    5   16   15     -0.33      0.00 
    4   16   15     -0.25      0.00 
    3   16   15     -0.03      0.00 
    2   16   15      0.13      0.00 
    1   16   15      0.17      0.00 
    0   16   15      0.15      0.00 
   -1   16   15      0.05      0.00 
   -2   16   15     -0.08      0.00 
   -3   16   15     -0.15      0.00 
   -4   16   15     -0.10      0.00 
   -5   16   15     -0.05      0.00 
   12   15   15      0.27      0.00 
   11   15   15      0.25      0.00 
   10   15   15     -0.05      0.00 
    9   15   15     -0.32      0.00 
    8   15   15     -0.31      0.00 
    7   15   15     -0.09      0.00 
    6   15   15      0.03      0.00 
    5   15   15     -0.05      0.00 
    4   15   15     -0.16      0.00 
    3   15   15     -0.12      0.00 
    2   15   15      0.01      0.00 
    1   15   15      0.09      0.00 
    0   15   15      0.02      0.00 
   -1   15   15     -0.11      0.00 
   -2   15   15     -0.19      0.00 
   -3   15   15     -0.13      0.00 
   -4   15   15      0.08      0.00 
   -5   15   15      0.30      0.00 
   13   14   15      0.09      0.00 
   12   14   15      0.19      0.00 
   11   14   15      0.47      0.00 
   10   14   15      0.72      0.00 
    9   14   15      0.65      0.00 
    8   14   15      0.24      0.00 
    7   14   15     -0.20      0.00 
    6   14   15     -0.38      0.00 
    5   14   15     -0.28      0.00 
    4   14   15     -0.10      0.00 
    3   14   15     -0.01      0.00 
    2   14   15      0.02      0.00 
    1   14   15      0.05      0.00 
    0   14   15      0.07      0.00 
   -1   14   15      0.02      0.00 
   -2   14   15     -0.08      0.00 
   -3   14   15     -0.18      0.00 
   -4   14   15     -0.24      0.00 
   -5   14   15     -0.21      0.00 
   -6   14   15     -0.09      0.00 
   -7   14   15      0.08      0.00 
   14   13   15      0.45      0.00 
   13   13   15      0.43      0.00 
   12   13   15      0.16      0.00 
   11   13   15     -0.09      0.00 
   10   13   15     -0.10      0.00 
    9   13   15      0.09      0.00 
    8   13   15      0.27      0.00 
    7   13   15      0.30      0.00 
    6   13   15      0.16      0.00 
    5   13   15     -0.10      0.00 
    4   13   15     -0.35      0.00 
    3   13   15     -0.45      0.00 
    2   13   15     -0.33      0.00 
    1   13   15     -0.06      0.00 
    0   13   15      0.18      0.00 
   -1   13   15      0.29      0.00 
   -2   13   15      0.27      0.00 
   -3   13   15      0.12      0.00 
   -4   13   15     -0.18      0.00 
   -5   13   15     -0.57      0.00 
   -6   13   15     -0.80      0.00 
   -7   13   15     -0.66      0.00 
   -8   13   15     -0.25      0.00 
   14   12   15     -0.61      0.00 
   13   12   15     -0.75      0.00 
   12   12   15     -0.75      0.00 
   11   12   15     -0.56      0.00 
   10   12   15     -0.22      0.00 
    9   12   15      0.12      0.00 
    8   12   15      0.27      0.00 
    7   12   15      0.21      0.00 
    6   12   15      0.06      0.00 
    5   12   15     -0.01      0.00 
    4   12   15      0.05      0.00 
    3   12   15      0.16      0.00 
    2   12   15      0.14      0.00 
    1   12   15     -0.11      0.00 
    0   12   15     -0.47      0.00 
   -1   12   15     -0.67      0.00 
   -2   12   15     -0.48      0.00 
   -3   12   15      0.07      0.00 
   -4   12   15      0.68      0.00 
   -5   12   15      1.02      0.00 
   -6   12   15      0.94      0.00 
   -7   12   15      0.54      0.00 
   -8   12   15      0.12      0.00 
   -9   12   15     -0.07      0.00 
   14   11   15      0.69      0.00 
   13   11   15      0.53      0.00 
   12   11   15      0.38      0.00 
   11   11   15      0.24      0.00 
   10   11   15      0.02      0.00 
    9   11   15     -0.30      0.00 
    8   11   15     -0.58      0.00 
    7   11   15     -0.67      0.00 
    6   11   15     -0.44      0.00 
    5   11   15      0.09      0.00 
    4   11   15      0.70      0.00 
    3   11   15      1.01      0.00 
    2   11   15      0.82      0.00 
    1   11   15      0.35      0.00 
    0   11   15      0.00      0.00 
   -1   11   15     -0.02      0.00 
   -2   11   15      0.10      0.00 
   -3   11   15      0.17      0.00 
   -4   11   15      0.16      0.00 
   -5   11   15      0.16      0.00 
   -6   11   15      0.20      0.00 
   -7   11   15      0.23      0.00 
   -8   11   15      0.23      0.00 
   -9   11   15      0.19      0.00 
  -10   11   15      0.12      0.00 
   13   10   15      0.07      0.00 
   12   10   15      0.15      0.00 
   11   10   15      0.03      0.00 
   10   10   15     -0.26      0.00 
    9   10   15     -0.49      0.00 
    8   10   15     -0.40      0.00 
    7   10   15     -0.02      0.00 
    6   10   15      0.24      0.00 
    5   10   15      0.08      0.00 
    4   10   15     -0.39      0.00 
    3   10   15     -0.70      0.00 
    2   10   15     -0.53      0.00 
    1   10   15     -0.01      0.00 
    0   10   15      0.50      0.00 
   -1   10   15      0.74      0.00 
   -2   10   15      0.64      0.00 
   -3   10   15      0.21      0.00 
   -4   10   15     -0.43      0.00 
   -5   10   15     -0.98      0.00 
   -6   10   15     -1.15      0.00 
   -7   10   15     -0.91      0.00 
   -8   10   15     -0.53      0.00 
   -9   10   15     -0.25      0.00 
  -10   10   15     -0.13      0.00 
   13    9   15     -0.98      0.00 
   12    9   15     -0.82      0.00 
   11    9   15     -0.34      0.00 
   10    9   15      0.23      0.00 
    9    9   15      0.65      0.00 
    8    9   15      0.80      0.00 
    7    9   15      0.73      0.00 
    6    9   15      0.55      0.00 
    5    9   15      0.34      0.00 
    4    9   15      0.13      0.00 
    3    9   15     -0.06      0.00 
    2    9   15     -0.27      0.00 
    1    9   15     -0.54      0.00 
    0    9   15     -0.89      0.00 
   -1    9   15     -1.21      0.00 
   -2    9   15     -1.29      0.00 
   -3    9   15     -1.01      0.00 
   -4    9   15     -0.44      0.00 
   -5    9   15      0.15      0.00 
   -6    9   15      0.47      0.00 
   -7    9   15      0.46      0.00 
   -8    9   15      0.19      0.00 
   -9    9   15     -0.19      0.00 
  -10    9   15     -0.47      0.00 
   13    8   15      0.67      0.00 
   12    8   15      0.68      0.00 
   11    8   15      0.44      0.00 
   10    8   15      0.19      0.00 
    9    8   15      0.05      0.00 
    8    8   15     -0.14      0.00 
    7    8   15     -0.47      0.00 
    6    8   15     -0.69      0.00 
    5    8   15     -0.46      0.00 
    4    8   15      0.12      0.00 
    3    8   15      0.59      0.00 
    2    8   15      0.62      0.00 
    1    8   15      0.37      0.00 
    0    8   15      0.19      0.00 
   -1    8   15      0.22      0.00 
   -2    8   15      0.36      0.00 
   -3    8   15      0.48      0.00 
   -4    8   15      0.52      0.00 
   -5    8   15      0.47      0.00 
   -6    8   15      0.40      0.00 
   -7    8   15      0.44      0.00 
   -8    8   15      0.68      0.00 
   -9    8   15      1.00      0.00 
  -10    8   15      1.14      0.00 
  -11    8   15      0.91      0.00 
   13    7   15      0.74      0.00 
   12    7   15      0.61      0.00 
   11    7   15      0.36      0.00 
   10    7   15      0.10      0.00 
    9    7   15     -0.04      0.00 
    8    7   15      0.05      0.00 
    7    7   15      0.30      0.00 
    6    7   15      0.44      0.00 
    5    7   15      0.26      0.00 
    4    7   15     -0.13      0.00 
    3    7   15     -0.41      0.00 
    2    7   15     -0.34      0.00 
    1    7   15      0.08      0.00 
    0    7   15      0.65      0.00 
   -1    7   15      1.10      0.00 
   -2    7   15      1.23      0.00 
   -3    7   15      0.95      0.00 
   -4    7   15      0.45      0.00 
   -5    7   15     -0.01      0.00 
   -6    7   15     -0.26      0.00 
   -7    7   15     -0.37      0.00 
   -8    7   15     -0.41      0.00 
   -9    7   15     -0.35      0.00 
  -10    7   15     -0.14      0.00 
  -11    7   15      0.12      0.00 
   15    6   15     -0.12      0.00 
   14    6   15     -0.39      0.00 
   13    6   15     -0.71      0.00 
   12    6   15     -0.86      0.00 
   11    6   15     -0.68      0.00 
   10    6   15     -0.21      0.00 
    9    6   15      0.28      0.00 
    8    6   15      0.45      0.00 
    7    6   15      0.17      0.00 
    6    6   15     -0.39      0.00 
    5    6   15     -0.85      0.00 
    4    6   15     -0.90      0.00 
    3    6   15     -0.59      0.00 
    2    6   15     -0.26      0.00 
    1    6   15     -0.23      0.00 
    0    6   15     -0.49      0.00 
   -1    6   15     -0.75      0.00 
   -2    6   15     -0.76      0.00 
   -3    6   15     -0.57      0.00 
   -4    6   15     -0.37      0.00 
   -5    6   15     -0.24      0.00 
   -6    6   15     -0.08      0.00 
   -7    6   15      0.08      0.00 
   -8    6   15      0.00      0.00 
   -9    6   15     -0.48      0.00 
  -10    6   15     -1.15      0.00 
  -11    6   15     -1.52      0.00 
  -12    6   15     -1.33      0.00 
   14    5   15     -0.26      0.00 
   13    5   15     -0.26      0.00 
   12    5   15     -0.17      0.00 
   11    5   15      0.05      0.00 
   10    5   15      0.23      0.00 
    9    5   15      0.12      0.00 
    8    5   15     -0.26      0.00 
    7    5   15     -0.48      0.00 
    6    5   15     -0.14      0.00 
    5    5   15      0.64      0.00 
    4    5   15      1.25      0.00 
    3    5   15      1.25      0.00 
    2    5   15      0.73      0.00 
    1    5   15      0.12      0.00 
    0    5   15     -0.33      0.00 
   -1    5   15     -0.59      0.00 
   -2    5   15     -0.68      0.00 
   -3    5   15     -0.57      0.00 
   -4    5   15     -0.25      0.00 
   -5    5   15      0.09      0.00 
   -6    5   15      0.19      0.00 
   -7    5   15     -0.02      0.00 
   -8    5   15     -0.23      0.00 
   -9    5   15     -0.12      0.00 
  -10    5   15      0.33      0.00 
  -11    5   15      0.76      0.00 
  -12    5   15      0.84      0.00 
   14    4   15      0.14      0.00 
   13    4   15      0.27      0.00 
   12    4   15      0.34      0.00 
   11    4   15      0.10      0.00 
   10    4   15     -0.47      0.00 
    9    4   15     -1.05      0.00 
    8    4   15     -1.18      0.00 
    7    4   15     -0.80      0.00 
    6    4   15     -0.23      0.00 
    5    4   15      0.10      0.00 
    4    4   15      0.00      0.00 
    3    4   15     -0.41      0.00 
    2    4   15     -0.74      0.00 
    1    4   15     -0.62      0.00 
    0    4   15     -0.05      0.00 
   -1    4   15      0.61      0.00 
   -2    4   15      0.93      0.00 
   -3    4   15      0.81      0.00 
   -4    4   15      0.45      0.00 
   -5    4   15      0.08      0.00 
   -6    4   15     -0.15      0.00 
   -7    4   15     -0.15      0.00 
   -8    4   15      0.11      0.00 
   -9    4   15      0.41      0.00 
  -10    4   15      0.44      0.00 
  -11    4   15      0.14      0.00 
  -12    4   15     -0.17      0.00 
   14    3   15     -0.38      0.00 
   13    3   15     -0.44      0.00 
   12    3   15     -0.32      0.00 
   11    3   15      0.03      0.00 
   10    3   15      0.56      0.00 
    9    3   15      1.11      0.00 
    8    3   15      1.34      0.00 
    7    3   15      0.98      0.00 
    6    3   15      0.04      0.00 
    5    3   15     -0.97      0.00 
    4    3   15     -1.37      0.00 
    3    3   15     -0.85      0.00 
    2    3   15      0.25      0.00 
    1    3   15      1.17      0.00 
    0    3   15      1.41      0.00 
   -1    3   15      1.01      0.00 
   -2    3   15      0.40      0.00 
   -3    3   15     -0.08      0.00 
   -4    3   15     -0.29      0.00 
   -5    3   15     -0.26      0.00 
   -6    3   15     -0.13      0.00 
   -7    3   15     -0.09      0.00 
   -8    3   15     -0.30      0.00 
   -9    3   15     -0.63      0.00 
  -10    3   15     -0.74      0.00 
  -11    3   15     -0.45      0.00 
  -12    3   15      0.01      0.00 
  -13    3   15      0.20      0.00 
   14    2   15      0.06      0.00 
   13    2   15      0.13      0.00 
   12    2   15      0.22      0.00 
   11    2   15      0.40      0.00 
   10    2   15      0.60      0.00 
    9    2   15      0.62      0.00 
    8    2   15      0.43      0.00 
    7    2   15      0.29      0.00 
    6    2   15      0.56      0.00 
    5    2   15      1.22      0.00 
    4    2   15      1.76      0.00 
    3    2   15      1.61      0.00 
    2    2   15      0.62      0.00 
    1    2   15     -0.83      0.00 
    0    2   15     -2.06      0.00 
   -1    2   15     -2.52      0.00 
   -2    2   15     -2.06      0.00 
   -3    2   15     -1.03      0.00 
   -4    2   15     -0.01      0.00 
   -5    2   15      0.58      0.00 
   -6    2   15      0.70      0.00 
   -7    2   15      0.65      0.00 
   -8    2   15      0.70      0.00 
   -9    2   15      0.83      0.00 
  -10    2   15      0.84      0.00 
  -11    2   15      0.67      0.00 
  -12    2   15      0.46      0.00 
  -13    2   15      0.37      0.00 
   13    1   15      0.21      0.00 
   12    1   15     -0.04      0.00 
   11    1   15     -0.67      0.00 
   10    1   15     -1.48      0.00 
    9    1   15     -2.06      0.00 
    8    1   15     -2.02      0.00 
    7    1   15     -1.32      0.00 
    6    1   15     -0.35      0.00 
    5    1   15      0.29      0.00 
    4    1   15      0.21      0.00 
    3    1   15     -0.35      0.00 
    2    1   15     -0.73      0.00 
    1    1   15     -0.33      0.00 
    0    1   15      0.82      0.00 
   -1    1   15      2.07      0.00 
   -2    1   15      2.72      0.00 
   -3    1   15      2.46      0.00 
   -4    1   15      1.51      0.00 
   -5    1   15      0.34      0.00 
   -6    1   15     -0.57      0.00 
   -7    1   15     -0.92      0.00 
   -8    1   15     -0.76      0.00 
   -9    1   15     -0.39      0.00 
  -10    1   15     -0.15      0.00 
  -11    1   15     -0.14      0.00 
  -12    1   15     -0.25      0.00 
  -13    1   15     -0.29      0.00 
   13    0   15      0.02      0.00 
   12    0   15      0.00      0.00 
   11    0   15      0.24      0.00 
   10    0   15      0.69      0.00 
    9    0   15      1.08      0.00 
    8    0   15      1.14      0.00 
    7    0   15      0.70      0.00 
    6    0   15     -0.22      0.00 
    5    0   15     -1.30      0.00 
    4    0   15     -1.92      0.00 
    3    0   15     -1.62      0.00 
    2    0   15     -0.56      0.00 
    1    0   15      0.50      0.00 
    0    0   15      0.82      0.00 
   -1    0   15      0.24      0.00 
   -2    0   15     -0.80      0.00 
   -3    0   15     -1.68      0.00 
   -4    0   15     -1.99      0.00 
   -5    0   15     -1.61      0.00 
   -6    0   15     -0.74      0.00 
   -7    0   15      0.12      0.00 
   -8    0   15      0.50      0.00 
   -9    0   15      0.30      0.00 
  -10    0   15     -0.11      0.00 
  -11    0   15     -0.32      0.00 
  -12    0   15     -0.25      0.00 
  -13    0   15     -0.13      0.00 
   12   -1   15      0.46      0.00 
   11   -1   15      0.74      0.00 
   10   -1   15      0.71      0.00 
    9   -1   15      0.39      0.00 
    8   -1   15     -0.04      0.00 
    7   -1   15     -0.34      0.00 
    6   -1   15     -0.27      0.00 
    5   -1   15      0.32      0.00 
    4   -1   15      1.20      0.00 
    3   -1   15      1.75      0.00 
    2   -1   15      1.41      0.00 
    1   -1   15      0.23      0.00 
    0   -1   15     -1.11      0.00 
   -1   -1   15     -1.85      0.00 
   -2   -1   15     -1.71      0.00 
   -3   -1   15     -0.95      0.00 
   -4   -1   15     -0.02      0.00 
   -5   -1   15      0.68      0.00 
   -6   -1   15      0.90      0.00 
   -7   -1   15      0.61      0.00 
   -8   -1   15      0.11      0.00 
   -9   -1   15     -0.14      0.00 
  -10   -1   15      0.07      0.00 
  -11   -1   15      0.50      0.00 
  -12   -1   15      0.72      0.00 
  -13   -1   15      0.58      0.00 
   12   -2   15     -0.52      0.00 
   11   -2   15     -0.69      0.00 
   10   -2   15     -0.72      0.00 
    9   -2   15     -0.69      0.00 
    8   -2   15     -0.59      0.00 
    7   -2   15     -0.24      0.00 
    6   -2   15      0.36      0.00 
    5   -2   15      0.84      0.00 
    4   -2   15      0.71      0.00 
    3   -2   15      0.00      0.00 
    2   -2   15     -0.64      0.00 
    1   -2   15     -0.48      0.00 
    0   -2   15      0.61      0.00 
   -1   -2   15      2.01      0.00 
   -2   -2   15      2.91      0.00 
   -3   -2   15      2.90      0.00 
   -4   -2   15      2.12      0.00 
   -5   -2   15      1.02      0.00 
   -6   -2   15      0.05      0.00 
   -7   -2   15     -0.46      0.00 
   -8   -2   15     -0.53      0.00 
   -9   -2   15     -0.43      0.00 
  -10   -2   15     -0.49      0.00 
  -11   -2   15     -0.71      0.00 
  -12   -2   15     -0.82      0.00 
  -13   -2   15     -0.62      0.00 
   11   -3   15     -0.34      0.00 
   10   -3   15     -0.35      0.00 
    9   -3   15      0.13      0.00 
    8   -3   15      0.89      0.00 
    7   -3   15      1.36      0.00 
    6   -3   15      1.10      0.00 
    5   -3   15      0.24      0.00 
    4   -3   15     -0.57      0.00 
    3   -3   15     -0.71      0.00 
    2   -3   15     -0.14      0.00 
    1   -3   15      0.48      0.00 
    0   -3   15      0.40      0.00 
   -1   -3   15     -0.59      0.00 
   -2   -3   15     -1.98      0.00 
   -3   -3   15     -2.99      0.00 
   -4   -3   15     -3.16      0.00 
   -5   -3   15     -2.55      0.00 
   -6   -3   15     -1.55      0.00 
   -7   -3   15     -0.54      0.00 
   -8   -3   15      0.20      0.00 
   -9   -3   15      0.55      0.00 
  -10   -3   15      0.56      0.00 
  -11   -3   15      0.39      0.00 
  -12   -3   15      0.21      0.00 
  -13   -3   15      0.08      0.00 
   11   -4   15      0.76      0.00 
   10   -4   15      0.80      0.00 
    9   -4   15      0.21      0.00 
    8   -4   15     -0.74      0.00 
    7   -4   15     -1.52      0.00 
    6   -4   15     -1.75      0.00 
    5   -4   15     -1.37      0.00 
    4   -4   15     -0.62      0.00 
    3   -4   15      0.00      0.00 
    2   -4   15      0.09      0.00 
    1   -4   15     -0.41      0.00 
    0   -4   15     -1.03      0.00 
   -1   -4   15     -1.15      0.00 
   -2   -4   15     -0.48      0.00 
   -3   -4   15      0.75      0.00 
   -4   -4   15      1.93      0.00 
   -5   -4   15      2.49      0.00 
   -6   -4   15      2.21      0.00 
   -7   -4   15      1.30      0.00 
   -8   -4   15      0.29      0.00 
   -9   -4   15     -0.29      0.00 
  -10   -4   15     -0.25      0.00 
  -11   -4   15      0.13      0.00 
  -12   -4   15      0.39      0.00 
  -13   -4   15      0.31      0.00 
   10   -5   15     -0.61      0.00 
    9   -5   15     -0.64      0.00 
    8   -5   15     -0.33      0.00 
    7   -5   15      0.31      0.00 
    6   -5   15      1.12      0.00 
    5   -5   15      1.69      0.00 
    4   -5   15      1.65      0.00 
    3   -5   15      0.94      0.00 
    2   -5   15      0.00      0.00 
    1   -5   15     -0.49      0.00 
    0   -5   15     -0.20      0.00 
   -1   -5   15      0.65      0.00 
   -2   -5   15      1.41      0.00 
   -3   -5   15      1.49      0.00 
   -4   -5   15      0.75      0.00 
   -5   -5   15     -0.40      0.00 
   -6   -5   15     -1.27      0.00 
   -7   -5   15     -1.40      0.00 
   -8   -5   15     -0.96      0.00 
   -9   -5   15     -0.46      0.00 
  -10   -5   15     -0.29      0.00 
  -11   -5   15     -0.37      0.00 
  -12   -5   15     -0.38      0.00 
  -13   -5   15     -0.19      0.00 
    9   -6   15      0.72      0.00 
    8   -6   15      0.76      0.00 
    7   -6   15      0.48      0.00 
    6   -6   15     -0.18      0.00 
    5   -6   15     -1.04      0.00 
    4   -6   15     -1.68      0.00 
    3   -6   15     -1.67      0.00 
    2   -6   15     -0.95      0.00 
    1   -6   15      0.07      0.00 
    0   -6   15      0.75      0.00 
   -1   -6   15      0.64      0.00 
   -2   -6   15     -0.19      0.00 
   -3   -6   15     -1.21      0.00 
   -4   -6   15     -1.75      0.00 
   -5   -6   15     -1.43      0.00 
   -6   -6   15     -0.42      0.00 
   -7   -6   15      0.71      0.00 
   -8   -6   15      1.36      0.00 
   -9   -6   15      1.32      0.00 
  -10   -6   15      0.82      0.00 
  -11   -6   15      0.26      0.00 
  -12   -6   15     -0.08      0.00 
  -13   -6   15     -0.19      0.00 
    9   -7   15     -0.03      0.00 
    8   -7   15     -0.01      0.00 
    7   -7   15     -0.08      0.00 
    6   -7   15     -0.13      0.00 
    5   -7   15     -0.01      0.00 
    4   -7   15      0.34      0.00 
    3   -7   15      0.75      0.00 
    2   -7   15      0.90      0.00 
    1   -7   15      0.61      0.00 
    0   -7   15      0.02      0.00 
   -1   -7   15     -0.50      0.00 
   -2   -7   15     -0.59      0.00 
   -3   -7   15     -0.17      0.00 
   -4   -7   15      0.50      0.00 
   -5   -7   15      1.01      0.00 
   -6   -7   15      1.01      0.00 
   -7   -7   15      0.48      0.00 
   -8   -7   15     -0.18      0.00 
   -9   -7   15     -0.50      0.00 
  -10   -7   15     -0.30      0.00 
  -11   -7   15      0.16      0.00 
  -12   -7   15      0.50      0.00 
  -13   -7   15      0.54      0.00 
    8   -8   15     -0.21      0.00 
    7   -8   15      0.42      0.00 
    6   -8   15      1.02      0.00 
    5   -8   15      1.24      0.00 
    4   -8   15      0.98      0.00 
    3   -8   15      0.38      0.00 
    2   -8   15     -0.25      0.00 
    1   -8   15     -0.65      0.00 
    0   -8   15     -0.60      0.00 
   -1   -8   15     -0.11      0.00 
   -2   -8   15      0.52      0.00 
   -3   -8   15      0.80      0.00 
   -4   -8   15      0.46      0.00 
   -5   -8   15     -0.23      0.00 
   -6   -8   15     -0.76      0.00 
   -7   -8   15     -0.82      0.00 
   -8   -8   15     -0.57      0.00 
   -9   -8   15     -0.34      0.00 
  -10   -8   15     -0.23      0.00 
  -11   -8   15     -0.18      0.00 
  -12   -8   15     -0.17      0.00 
    7   -9   15      0.11      0.00 
    6   -9   15     -0.11      0.00 
    5   -9   15     -0.30      0.00 
    4   -9   15     -0.44      0.00 
    3   -9   15     -0.46      0.00 
    2   -9   15     -0.28      0.00 
    1   -9   15      0.13      0.00 
    0   -9   15      0.51      0.00 
   -1   -9   15      0.42      0.00 
   -2   -9   15     -0.28      0.00 
   -3   -9   15     -1.09      0.00 
   -4   -9   15     -1.30      0.00 
   -5   -9   15     -0.75      0.00 
   -6   -9   15      0.04      0.00 
   -7   -9   15      0.48      0.00 
   -8   -9   15      0.45      0.00 
   -9   -9   15      0.20      0.00 
  -10   -9   15     -0.03      0.00 
  -11   -9   15     -0.20      0.00 
  -12   -9   15     -0.28      0.00 
    6  -10   15     -1.72      0.00 
    5  -10   15     -1.88      0.00 
    4  -10   15     -1.39      0.00 
    3  -10   15     -0.52      0.00 
    2  -10   15      0.24      0.00 
    1  -10   15      0.56      0.00 
    0  -10   15      0.44      0.00 
   -1  -10   15      0.17      0.00 
   -2  -10   15      0.13      0.00 
   -3  -10   15      0.45      0.00 
   -4  -10   15      0.93      0.00 
   -5  -10   15      1.18      0.00 
   -6  -10   15      0.98      0.00 
   -7  -10   15      0.47      0.00 
   -8  -10   15      0.01      0.00 
   -9  -10   15     -0.11      0.00 
  -10  -10   15      0.07      0.00 
  -11  -10   15      0.31      0.00 
    5  -11   15      1.22      0.00 
    4  -11   15      0.89      0.00 
    3  -11   15      0.32      0.00 
    2  -11   15     -0.07      0.00 
    1  -11   15     -0.22      0.00 
    0  -11   15     -0.29      0.00 
   -1  -11   15     -0.30      0.00 
   -2  -11   15     -0.14      0.00 
   -3  -11   15      0.14      0.00 
   -4  -11   15      0.25      0.00 
   -5  -11   15     -0.01      0.00 
   -6  -11   15     -0.39      0.00 
   -7  -11   15     -0.48      0.00 
   -8  -11   15     -0.22      0.00 
   -9  -11   15      0.07      0.00 
  -10  -11   15      0.10      0.00 
  -11  -11   15     -0.06      0.00 
    3  -12   15      0.41      0.00 
    2  -12   15      0.31      0.00 
    1  -12   15      0.05      0.00 
    0  -12   15     -0.08      0.00 
   -1  -12   15      0.04      0.00 
   -2  -12   15      0.19      0.00 
   -3  -12   15      0.16      0.00 
   -4  -12   15     -0.04      0.00 
   -5  -12   15     -0.15      0.00 
   -6  -12   15     -0.03      0.00 
   -7  -12   15      0.20      0.00 
   -8  -12   15      0.29      0.00 
   -9  -12   15      0.16      0.00 
  -10  -12   15     -0.07      0.00 
    1  -13   15     -0.12      0.00 
    0  -13   15      0.03      0.00 
   -1  -13   15      0.07      0.00 
   -2  -13   15     -0.03      0.00 
   -3  -13   15     -0.19      0.00 
   -4  -13   15     -0.24      0.00 
   -5  -13   15     -0.15      0.00 
   -6  -13   15     -0.03      0.00 
   -7  -13   15     -0.07      0.00 
   -8  -13   15     -0.22      0.00 
    5   20   14      0.11      0.00 
    4   20   14      0.16      0.00 
    3   20   14      0.21      0.00 
    9   19   14     -0.27      0.00 
    8   19   14     -0.07      0.00 
    7   19   14      0.14      0.00 
    6   19   14      0.29      0.00 
    5   19   14      0.43      0.00 
    4   19   14      0.49      0.00 
    3   19   14      0.32      0.00 
    2   19   14     -0.01      0.00 
    1   19   14     -0.24      0.00 
   10   18   14      0.60      0.00 
    9   18   14      0.42      0.00 
    8   18   14      0.24      0.00 
    7   18   14      0.14      0.00 
    6   18   14     -0.03      0.00 
    5   18   14     -0.34      0.00 
    4   18   14     -0.56      0.00 
    3   18   14     -0.44      0.00 
    2   18   14     -0.10      0.00 
    1   18   14      0.13      0.00 
    0   18   14      0.08      0.00 
   -1   18   14     -0.10      0.00 
   -2   18   14     -0.23      0.00 
   11   17   14     -0.20      0.00 
   10   17   14     -0.11      0.00 
    9   17   14      0.01      0.00 
    8   17   14      0.03      0.00 
    7   17   14      0.02      0.00 
    6   17   14      0.01      0.00 
    5   17   14     -0.07      0.00 
    4   17   14     -0.33      0.00 
    3   17   14     -0.64      0.00 
    2   17   14     -0.71      0.00 
    1   17   14     -0.48      0.00 
    0   17   14     -0.13      0.00 
   -1   17   14      0.13      0.00 
   -2   17   14      0.26      0.00 
   -3   17   14      0.31      0.00 
   -4   17   14      0.29      0.00 
   12   16   14     -0.26      0.00 
   11   16   14     -0.50      0.00 
   10   16   14     -0.46      0.00 
    9   16   14     -0.24      0.00 
    8   16   14     -0.11      0.00 
    7   16   14     -0.12      0.00 
    6   16   14     -0.11      0.00 
    5   16   14      0.08      0.00 
    4   16   14      0.34      0.00 
    3   16   14      0.44      0.00 
    2   16   14      0.33      0.00 
    1   16   14      0.15      0.00 
    0   16   14      0.03      0.00 
   -1   16   14     -0.03      0.00 
   -2   16   14     -0.07      0.00 
   -3   16   14     -0.08      0.00 
   -4   16   14     -0.07      0.00 
   -5   16   14     -0.09      0.00 
   13   15   14     -0.01      0.00 
   12   15   14      0.18      0.00 
   11   15   14      0.04      0.00 
   10   15   14     -0.27      0.00 
    9   15   14     -0.33      0.00 
    8   15   14     -0.03      0.00 
    7   15   14      0.27      0.00 
    6   15   14      0.25      0.00 
    5   15   14      0.04      0.00 
    4   15   14     -0.02      0.00 
    3   15   14      0.20      0.00 
    2   15   14      0.44      0.00 
    1   15   14      0.47      0.00 
    0   15   14      0.31      0.00 
   -1   15   14      0.16      0.00 
   -2   15   14      0.07      0.00 
   -3   15   14      0.05      0.00 
   -4   15   14      0.09      0.00 
   -5   15   14      0.15      0.00 
   -6   15   14      0.14      0.00 
   14   14   14     -0.31      0.00 
   13   14   14     -0.36      0.00 
   12   14   14     -0.22      0.00 
   11   14   14      0.06      0.00 
   10   14   14      0.25      0.00 
    9   14   14      0.25      0.00 
    8   14   14      0.12      0.00 
    7   14   14      0.08      0.00 
    6   14   14      0.17      0.00 
    5   14   14      0.26      0.00 
    4   14   14      0.17      0.00 
    3   14   14     -0.06      0.00 
    2   14   14     -0.32      0.00 
    1   14   14     -0.47      0.00 
    0   14   14     -0.49      0.00 
   -1   14   14     -0.39      0.00 
   -2   14   14     -0.22      0.00 
   -3   14   14     -0.01      0.00 
   -4   14   14      0.21      0.00 
   -5   14   14      0.37      0.00 
   -6   14   14      0.42      0.00 
   -7   14   14      0.34      0.00 
   14   13   14      0.57      0.00 
   13   13   14      0.57      0.00 
   12   13   14      0.33      0.00 
   11   13   14      0.09      0.00 
   10   13   14      0.02      0.00 
    9   13   14      0.06      0.00 
    8   13   14      0.09      0.00 
    7   13   14      0.08      0.00 
    6   13   14      0.05      0.00 
    5   13   14      0.00      0.00 
    4   13   14     -0.08      0.00 
    3   13   14     -0.05      0.00 
    2   13   14      0.19      0.00 
    1   13   14      0.55      0.00 
    0   13   14      0.70      0.00 
   -1   13   14      0.44      0.00 
   -2   13   14     -0.07      0.00 
   -3   13   14     -0.50      0.00 
   -4   13   14     -0.71      0.00 
   -5   13   14     -0.77      0.00 
   -6   13   14     -0.73      0.00 
   -7   13   14     -0.55      0.00 
   -8   13   14     -0.29      0.00 
   14   12   14     -0.36      0.00 
   13   12   14     -0.40      0.00 
   12   12   14     -0.36      0.00 
   11   12   14     -0.16      0.00 
   10   12   14      0.16      0.00 
    9   12   14      0.40      0.00 
    8   12   14      0.31      0.00 
    7   12   14     -0.16      0.00 
    6   12   14     -0.77      0.00 
    5   12   14     -1.19      0.00 
    4   12   14     -1.21      0.00 
    3   12   14     -0.87      0.00 
    2   12   14     -0.39      0.00 
    1   12   14     -0.04      0.00 
    0   12   14      0.06      0.00 
   -1   12   14      0.01      0.00 
   -2   12   14     -0.04      0.00 
   -3   12   14     -0.02      0.00 
   -4   12   14      0.01      0.00 
   -5   12   14     -0.01      0.00 
   -6   12   14     -0.09      0.00 
   -7   12   14     -0.14      0.00 
   -8   12   14     -0.12      0.00 
   -9   12   14     -0.03      0.00 
   14   11   14      0.38      0.00 
   13   11   14      0.41      0.00 
   12   11   14      0.36      0.00 
   11   11   14      0.26      0.00 
   10   11   14      0.15      0.00 
    9   11   14      0.08      0.00 
    8   11   14      0.03      0.00 
    7   11   14      0.02      0.00 
    6   11   14      0.14      0.00 
    5   11   14      0.40      0.00 
    4   11   14      0.64      0.00 
    3   11   14      0.53      0.00 
    2   11   14     -0.03      0.00 
    1   11   14     -0.70      0.00 
    0   11   14     -1.00      0.00 
   -1   11   14     -0.72      0.00 
   -2   11   14     -0.05      0.00 
   -3   11   14      0.64      0.00 
   -4   11   14      1.05      0.00 
   -5   11   14      1.10      0.00 
   -6   11   14      0.86      0.00 
   -7   11   14      0.54      0.00 
   -8   11   14      0.31      0.00 
   -9   11   14      0.21      0.00 
  -10   11   14      0.21      0.00 
   13   10   14     -0.11      0.00 
   12   10   14     -0.15      0.00 
   11   10   14     -0.22      0.00 
   10   10   14     -0.44      0.00 
    9   10   14     -0.68      0.00 
    8   10   14     -0.70      0.00 
    7   10   14     -0.37      0.00 
    6   10   14      0.09      0.00 
    5   10   14      0.41      0.00 
    4   10   14      0.56      0.00 
    3   10   14      0.73      0.00 
    2   10   14      0.98      0.00 
    1   10   14      1.17      0.00 
    0   10   14      1.16      0.00 
   -1   10   14      0.94      0.00 
   -2   10   14      0.58      0.00 
   -3   10   14      0.13      0.00 
   -4   10   14     -0.32      0.00 
   -5   10   14     -0.57      0.00 
   -6   10   14     -0.46      0.00 
   -7   10   14     -0.07      0.00 
   -8   10   14      0.32      0.00 
   -9   10   14      0.49      0.00 
  -10   10   14      0.40      0.00 
  -11   10   14      0.19      0.00 
   13    9   14     -0.53      0.00 
   12    9   14     -0.67      0.00 
   11    9   14     -0.42      0.00 
   10    9   14      0.04      0.00 
    9    9   14      0.45      0.00 
    8    9   14      0.65      0.00 
    7    9   14      0.56      0.00 
    6    9   14      0.19      0.00 
    5    9   14     -0.32      0.00 
    4    9   14     -0.70      0.00 
    3    9   14     -0.70      0.00 
    2    9   14     -0.41      0.00 
    1    9   14     -0.17      0.00 
    0    9   14     -0.23      0.00 
   -1    9   14     -0.50      0.00 
   -2    9   14     -0.68      0.00 
   -3    9   14     -0.62      0.00 
   -4    9   14     -0.42      0.00 
   -5    9   14     -0.31      0.00 
   -6    9   14     -0.42      0.00 
   -7    9   14     -0.68      0.00 
   -8    9   14     -0.93      0.00 
   -9    9   14     -1.02      0.00 
  -10    9   14     -0.89      0.00 
  -11    9   14     -0.57      0.00 
   13    8   14      0.21      0.00 
   12    8   14      0.46      0.00 
   11    8   14      0.33      0.00 
   10    8   14     -0.02      0.00 
    9    8   14     -0.36      0.00 
    8    8   14     -0.60      0.00 
    7    8   14     -0.62      0.00 
    6    8   14     -0.26      0.00 
    5    8   14      0.38      0.00 
    4    8   14      0.82      0.00 
    3    8   14      0.59      0.00 
    2    8   14     -0.20      0.00 
    1    8   14     -0.94      0.00 
    0    8   14     -1.19      0.00 
   -1    8   14     -1.02      0.00 
   -2    8   14     -0.72      0.00 
   -3    8   14     -0.42      0.00 
   -4    8   14     -0.09      0.00 
   -5    8   14      0.25      0.00 
   -6    8   14      0.49      0.00 
   -7    8   14      0.54      0.00 
   -8    8   14      0.42      0.00 
   -9    8   14      0.16      0.00 
  -10    8   14     -0.16      0.00 
  -11    8   14     -0.40      0.00 
   14    7   14      0.39      0.00 
   13    7   14      0.51      0.00 
   12    7   14      0.56      0.00 
   11    7   14      0.47      0.00 
   10    7   14      0.32      0.00 
    9    7   14      0.31      0.00 
    8    7   14      0.50      0.00 
    7    7   14      0.70      0.00 
    6    7   14      0.62      0.00 
    5    7   14      0.23      0.00 
    4    7   14     -0.15      0.00 
    3    7   14     -0.17      0.00 
    2    7   14      0.18      0.00 
    1    7   14      0.67      0.00 
    0    7   14      1.06      0.00 
   -1    7   14      1.22      0.00 
   -2    7   14      1.06      0.00 
   -3    7   14      0.63      0.00 
   -4    7   14      0.12      0.00 
   -5    7   14     -0.21      0.00 
   -6    7   14     -0.23      0.00 
   -7    7   14      0.03      0.00 
   -8    7   14      0.52      0.00 
   -9    7   14      1.08      0.00 
  -10    7   14      1.45      0.00 
  -11    7   14      1.36      0.00 
  -12    7   14      0.88      0.00 
   15    6   14      0.20      0.00 
   14    6   14     -0.01      0.00 
   13    6   14     -0.30      0.00 
   12    6   14     -0.49      0.00 
   11    6   14     -0.40      0.00 
   10    6   14      0.01      0.00 
    9    6   14      0.56      0.00 
    8    6   14      0.86      0.00 
    7    6   14      0.65      0.00 
    6    6   14     -0.04      0.00 
    5    6   14     -0.79      0.00 
    4    6   14     -1.09      0.00 
    3    6   14     -0.84      0.00 
    2    6   14     -0.36      0.00 
    1    6   14     -0.10      0.00 
    0    6   14     -0.15      0.00 
   -1    6   14     -0.21      0.00 
   -2    6   14      0.00      0.00 
   -3    6   14      0.37      0.00 
   -4    6   14      0.59      0.00 
   -5    6   14      0.51      0.00 
   -6    6   14      0.31      0.00 
   -7    6   14      0.15      0.00 
   -8    6   14     -0.06      0.00 
   -9    6   14     -0.41      0.00 
  -10    6   14     -0.73      0.00 
  -11    6   14     -0.69      0.00 
  -12    6   14     -0.29      0.00 
   15    5   14     -0.11      0.00 
   14    5   14     -0.05      0.00 
   13    5   14     -0.03      0.00 
   12    5   14     -0.06      0.00 
   11    5   14      0.01      0.00 
   10    5   14      0.11      0.00 
    9    5   14     -0.05      0.00 
    8    5   14     -0.61      0.00 
    7    5   14     -1.12      0.00 
    6    5   14     -0.97      0.00 
    5    5   14     -0.05      0.00 
    4    5   14      1.03      0.00 
    3    5   14      1.54      0.00 
    2    5   14      1.21      0.00 
    1    5   14      0.41      0.00 
    0    5   14     -0.33      0.00 
   -1    5   14     -0.72      0.00 
   -2    5   14     -0.74      0.00 
   -3    5   14     -0.51      0.00 
   -4    5   14     -0.20      0.00 
   -5    5   14      0.02      0.00 
   -6    5   14     -0.01      0.00 
   -7    5   14     -0.30      0.00 
   -8    5   14     -0.64      0.00 
   -9    5   14     -0.77      0.00 
  -10    5   14     -0.67      0.00 
  -11    5   14     -0.52      0.00 
  -12    5   14     -0.47      0.00 
   15    4   14      0.15      0.00 
   14    4   14      0.26      0.00 
   13    4   14      0.29      0.00 
   12    4   14      0.19      0.00 
   11    4   14     -0.13      0.00 
   10    4   14     -0.60      0.00 
    9    4   14     -0.93      0.00 
    8    4   14     -0.80      0.00 
    7    4   14     -0.22      0.00 
    6    4   14      0.37      0.00 
    5    4   14      0.45      0.00 
    4    4   14     -0.16      0.00 
    3    4   14     -1.11      0.00 
    2    4   14     -1.70      0.00 
    1    4   14     -1.43      0.00 
    0    4   14     -0.48      0.00 
   -1    4   14      0.48      0.00 
   -2    4   14      0.85      0.00 
   -3    4   14      0.56      0.00 
   -4    4   14      0.05      0.00 
   -5    4   14     -0.23      0.00 
   -6    4   14     -0.14      0.00 
   -7    4   14      0.23      0.00 
   -8    4   14      0.67      0.00 
   -9    4   14      0.91      0.00 
  -10    4   14      0.79      0.00 
  -11    4   14      0.38      0.00 
  -12    4   14     -0.02      0.00 
  -13    4   14     -0.12      0.00 
   14    3   14     -0.42      0.00 
   13    3   14     -0.65      0.00 
   12    3   14     -0.66      0.00 
   11    3   14     -0.37      0.00 
   10    3   14      0.12      0.00 
    9    3   14      0.56      0.00 
    8    3   14      0.71      0.00 
    7    3   14      0.38      0.00 
    6    3   14     -0.30      0.00 
    5    3   14     -0.91      0.00 
    4    3   14     -0.93      0.00 
    3    3   14     -0.16      0.00 
    2    3   14      1.02      0.00 
    1    3   14      1.89      0.00 
    0    3   14      1.93      0.00 
   -1    3   14      1.18      0.00 
   -2    3   14      0.17      0.00 
   -3    3   14     -0.54      0.00 
   -4    3   14     -0.75      0.00 
   -5    3   14     -0.62      0.00 
   -6    3   14     -0.48      0.00 
   -7    3   14     -0.52      0.00 
   -8    3   14     -0.72      0.00 
   -9    3   14     -0.87      0.00 
  -10    3   14     -0.74      0.00 
  -11    3   14     -0.32      0.00 
  -12    3   14      0.15      0.00 
  -13    3   14      0.39      0.00 
   14    2   14     -0.21      0.00 
   13    2   14      0.07      0.00 
   12    2   14      0.61      0.00 
   11    2   14      1.13      0.00 
   10    2   14      1.31      0.00 
    9    2   14      1.00      0.00 
    8    2   14      0.37      0.00 
    7    2   14     -0.17      0.00 
    6    2   14     -0.24      0.00 
    5    2   14      0.24      0.00 
    4    2   14      0.93      0.00 
    3    2   14      1.20      0.00 
    2    2   14      0.57      0.00 
    1    2   14     -0.79      0.00 
    0    2   14     -2.12      0.00 
   -1    2   14     -2.61      0.00 
   -2    2   14     -2.02      0.00 
   -3    2   14     -0.80      0.00 
   -4    2   14      0.33      0.00 
   -5    2   14      0.90      0.00 
   -6    2   14      0.86      0.00 
   -7    2   14      0.49      0.00 
   -8    2   14      0.15      0.00 
   -9    2   14      0.04      0.00 
  -10    2   14      0.10      0.00 
  -11    2   14      0.13      0.00 
  -12    2   14      0.07      0.00 
  -13    2   14     -0.02      0.00 
   14    1   14      0.36      0.00 
   13    1   14      0.42      0.00 
   12    1   14      0.07      0.00 
   11    1   14     -0.56      0.00 
   10    1   14     -1.05      0.00 
    9    1   14     -1.09      0.00 
    8    1   14     -0.64      0.00 
    7    1   14      0.16      0.00 
    6    1   14      1.02      0.00 
    5    1   14      1.45      0.00 
    4    1   14      1.02      0.00 
    3    1   14     -0.13      0.00 
    2    1   14     -1.16      0.00 
    1    1   14     -1.18      0.00 
    0    1   14     -0.07      0.00 
   -1    1   14      1.44      0.00 
   -2    1   14      2.47      0.00 
   -3    1   14      2.55      0.00 
   -4    1   14      1.80      0.00 
   -5    1   14      0.71      0.00 
   -6    1   14     -0.14      0.00 
   -7    1   14     -0.35      0.00 
   -8    1   14     -0.03      0.00 
   -9    1   14      0.36      0.00 
  -10    1   14      0.42      0.00 
  -11    1   14      0.22      0.00 
  -12    1   14      0.08      0.00 
  -13    1   14      0.17      0.00 
  -14    1   14      0.35      0.00 
   13    0   14     -0.40      0.00 
   12    0   14     -0.64      0.00 
   11    0   14     -0.59      0.00 
   10    0   14     -0.27      0.00 
    9    0   14      0.11      0.00 
    8    0   14      0.34      0.00 
    7    0   14      0.23      0.00 
    6    0   14     -0.31      0.00 
    5    0   14     -1.07      0.00 
    4    0   14     -1.47      0.00 
    3    0   14     -0.94      0.00 
    2    0   14      0.41      0.00 
    1    0   14      1.69      0.00 
    0    0   14      1.94      0.00 
   -1    0   14      0.97      0.00 
   -2    0   14     -0.57      0.00 
   -3    0   14     -1.78      0.00 
   -4    0   14     -2.15      0.00 
   -5    0   14     -1.72      0.00 
   -6    0   14     -0.86      0.00 
   -7    0   14      0.00      0.00 
   -8    0   14      0.51      0.00 
   -9    0   14      0.55      0.00 
  -10    0   14      0.29      0.00 
  -11    0   14      0.03      0.00 
  -12    0   14     -0.08      0.00 
  -13    0   14     -0.14      0.00 
  -14    0   14     -0.24      0.00 
   13   -1   14      0.18      0.00 
   12   -1   14      0.58      0.00 
   11   -1   14      0.83      0.00 
   10   -1   14      0.67      0.00 
    9   -1   14      0.08      0.00 
    8   -1   14     -0.70      0.00 
    7   -1   14     -1.31      0.00 
    6   -1   14     -1.43      0.00 
    5   -1   14     -0.91      0.00 
    4   -1   14     -0.01      0.00 
    3   -1   14      0.67      0.00 
    2   -1   14      0.55      0.00 
    1   -1   14     -0.40      0.00 
    0   -1   14     -1.48      0.00 
   -1   -1   14     -1.90      0.00 
   -2   -1   14     -1.36      0.00 
   -3   -1   14     -0.26      0.00 
   -4   -1   14      0.74      0.00 
   -5   -1   14      1.21      0.00 
   -6   -1   14      1.06      0.00 
   -7   -1   14      0.51      0.00 
   -8   -1   14     -0.07      0.00 
   -9   -1   14     -0.30      0.00 
  -10   -1   14     -0.06      0.00 
  -11   -1   14      0.38      0.00 
  -12   -1   14      0.62      0.00 
  -13   -1   14      0.49      0.00 
  -14   -1   14      0.22      0.00 
   12   -2   14      0.26      0.00 
   11   -2   14      0.24      0.00 
   10   -2   14      0.07      0.00 
    9   -2   14     -0.11      0.00 
    8   -2   14     -0.06      0.00 
    7   -2   14      0.34      0.00 
    6   -2   14      0.94      0.00 
    5   -2   14      1.26      0.00 
    4   -2   14      0.88      0.00 
    3   -2   14     -0.19      0.00 
    2   -2   14     -1.30      0.00 
    1   -2   14     -1.55      0.00 
    0   -2   14     -0.58      0.00 
   -1   -2   14      1.08      0.00 
   -2   -2   14      2.36      0.00 
   -3   -2   14      2.52      0.00 
   -4   -2   14      1.67      0.00 
   -5   -2   14      0.55      0.00 
   -6   -2   14     -0.17      0.00 
   -7   -2   14     -0.34      0.00 
   -8   -2   14     -0.27      0.00 
   -9   -2   14     -0.30      0.00 
  -10   -2   14     -0.53      0.00 
  -11   -2   14     -0.76      0.00 
  -12   -2   14     -0.77      0.00 
  -13   -2   14     -0.53      0.00 
  -14   -2   14     -0.21      0.00 
   12   -3   14     -0.83      0.00 
   11   -3   14     -1.10      0.00 
   10   -3   14     -0.70      0.00 
    9   -3   14      0.21      0.00 
    8   -3   14      1.09      0.00 
    7   -3   14      1.48      0.00 
    6   -3   14      1.25      0.00 
    5   -3   14      0.68      0.00 
    4   -3   14      0.32      0.00 
    3   -3   14      0.61      0.00 
    2   -3   14      1.49      0.00 
    1   -3   14      2.27      0.00 
    0   -3   14      2.09      0.00 
   -1   -3   14      0.65      0.00 
   -2   -3   14     -1.48      0.00 
   -3   -3   14     -3.22      0.00 
   -4   -3   14     -3.83      0.00 
   -5   -3   14     -3.26      0.00 
   -6   -3   14     -2.03      0.00 
   -7   -3   14     -0.79      0.00 
   -8   -3   14      0.04      0.00 
   -9   -3   14      0.28      0.00 
  -10   -3   14      0.12      0.00 
  -11   -3   14     -0.12      0.00 
  -12   -3   14     -0.15      0.00 
  -13   -3   14     -0.02      0.00 
  -14   -3   14      0.06      0.00 
   11   -4   14      0.55      0.00 
   10   -4   14      0.37      0.00 
    9   -4   14     -0.25      0.00 
    8   -4   14     -1.11      0.00 
    7   -4   14     -1.89      0.00 
    6   -4   14     -2.26      0.00 
    5   -4   14     -2.03      0.00 
    4   -4   14     -1.30      0.00 
    3   -4   14     -0.53      0.00 
    2   -4   14     -0.19      0.00 
    1   -4   14     -0.41      0.00 
    0   -4   14     -0.79      0.00 
   -1   -4   14     -0.74      0.00 
   -2   -4   14      0.10      0.00 
   -3   -4   14      1.55      0.00 
   -4   -4   14      2.94      0.00 
   -5   -4   14      3.53      0.00 
   -6   -4   14      2.95      0.00 
   -7   -4   14      1.53      0.00 
   -8   -4   14      0.17      0.00 
   -9   -4   14     -0.40      0.00 
  -10   -4   14     -0.15      0.00 
  -11   -4   14      0.29      0.00 
  -12   -4   14      0.33      0.00 
  -13   -4   14      0.01      0.00 
  -14   -4   14     -0.28      0.00 
   10   -5   14     -0.18      0.00 
    9   -5   14     -0.25      0.00 
    8   -5   14      0.08      0.00 
    7   -5   14      0.89      0.00 
    6   -5   14      1.83      0.00 
    5   -5   14      2.28      0.00 
    4   -5   14      1.84      0.00 
    3   -5   14      0.61      0.00 
    2   -5   14     -0.81      0.00 
    1   -5   14     -1.72      0.00 
    0   -5   14     -1.72      0.00 
   -1   -5   14     -0.95      0.00 
   -2   -5   14      0.02      0.00 
   -3   -5   14      0.47      0.00 
   -4   -5   14      0.03      0.00 
   -5   -5   14     -1.01      0.00 
   -6   -5   14     -1.86      0.00 
   -7   -5   14     -1.91      0.00 
   -8   -5   14     -1.24      0.00 
   -9   -5   14     -0.43      0.00 
  -10   -5   14      0.06      0.00 
  -11   -5   14      0.28      0.00 
  -12   -5   14      0.42      0.00 
  -13   -5   14      0.48      0.00 
  -14   -5   14      0.36      0.00 
   10   -6   14      0.42      0.00 
    9   -6   14      0.66      0.00 
    8   -6   14      0.73      0.00 
    7   -6   14      0.46      0.00 
    6   -6   14     -0.13      0.00 
    5   -6   14     -0.76      0.00 
    4   -6   14     -1.10      0.00 
    3   -6   14     -0.91      0.00 
    2   -6   14     -0.19      0.00 
    1   -6   14      0.75      0.00 
    0   -6   14      1.31      0.00 
   -1   -6   14      0.97      0.00 
   -2   -6   14     -0.25      0.00 
   -3   -6   14     -1.69      0.00 
   -4   -6   14     -2.47      0.00 
   -5   -6   14     -2.07      0.00 
   -6   -6   14     -0.81      0.00 
   -7   -6   14      0.52      0.00 
   -8   -6   14      1.19      0.00 
   -9   -6   14      1.01      0.00 
  -10   -6   14      0.34      0.00 
  -11   -6   14     -0.31      0.00 
  -12   -6   14     -0.60      0.00 
  -13   -6   14     -0.49      0.00 
    9   -7   14     -0.14      0.00 
    8   -7   14     -0.66      0.00 
    7   -7   14     -1.19      0.00 
    6   -7   14     -1.40      0.00 
    5   -7   14     -1.14      0.00 
    4   -7   14     -0.53      0.00 
    3   -7   14      0.14      0.00 
    2   -7   14      0.54      0.00 
    1   -7   14      0.52      0.00 
    0   -7   14      0.28      0.00 
   -1   -7   14      0.23      0.00 
   -2   -7   14      0.69      0.00 
   -3   -7   14      1.56      0.00 
   -4   -7   14      2.36      0.00 
   -5   -7   14      2.62      0.00 
   -6   -7   14      2.17      0.00 
   -7   -7   14      1.26      0.00 
   -8   -7   14      0.37      0.00 
   -9   -7   14     -0.17      0.00 
  -10   -7   14     -0.30      0.00 
  -11   -7   14     -0.17      0.00 
  -12   -7   14      0.02      0.00 
  -13   -7   14      0.15      0.00 
    8   -8   14     -0.20      0.00 
    7   -8   14      0.37      0.00 
    6   -8   14      0.92      0.00 
    5   -8   14      1.10      0.00 
    4   -8   14      0.76      0.00 
    3   -8   14      0.11      0.00 
    2   -8   14     -0.52      0.00 
    1   -8   14     -0.81      0.00 
    0   -8   14     -0.65      0.00 
   -1   -8   14     -0.15      0.00 
   -2   -8   14      0.41      0.00 
   -3   -8   14      0.62      0.00 
   -4   -8   14      0.27      0.00 
   -5   -8   14     -0.40      0.00 
   -6   -8   14     -0.85      0.00 
   -7   -8   14     -0.74      0.00 
   -8   -8   14     -0.21      0.00 
   -9   -8   14      0.34      0.00 
  -10   -8   14      0.67      0.00 
  -11   -8   14      0.72      0.00 
  -12   -8   14      0.57      0.00 
  -13   -8   14      0.28      0.00 
    8   -9   14      0.82      0.00 
    7   -9   14      1.35      0.00 
    6   -9   14      1.38      0.00 
    5   -9   14      0.96      0.00 
    4   -9   14      0.47      0.00 
    3   -9   14      0.23      0.00 
    2   -9   14      0.28      0.00 
    1   -9   14      0.40      0.00 
    0   -9   14      0.32      0.00 
   -1   -9   14     -0.16      0.00 
   -2   -9   14     -1.06      0.00 
   -3   -9   14     -2.03      0.00 
   -4   -9   14     -2.49      0.00 
   -5   -9   14     -2.10      0.00 
   -6   -9   14     -1.17      0.00 
   -7   -9   14     -0.35      0.00 
   -8   -9   14     -0.10      0.00 
   -9   -9   14     -0.30      0.00 
  -10   -9   14     -0.54      0.00 
  -11   -9   14     -0.52      0.00 
  -12   -9   14     -0.30      0.00 
    7  -10   14     -1.10      0.00 
    6  -10   14     -1.58      0.00 
    5  -10   14     -1.46      0.00 
    4  -10   14     -0.88      0.00 
    3  -10   14     -0.26      0.00 
    2  -10   14      0.11      0.00 
    1  -10   14      0.21      0.00 
    0  -10   14      0.18      0.00 
   -1  -10   14      0.14      0.00 
   -2  -10   14      0.21      0.00 
   -3  -10   14      0.54      0.00 
   -4  -10   14      1.10      0.00 
   -5  -10   14      1.56      0.00 
   -6  -10   14      1.48      0.00 
   -7  -10   14      0.81      0.00 
   -8  -10   14     -0.03      0.00 
   -9  -10   14     -0.50      0.00 
  -10  -10   14     -0.50      0.00 
  -11  -10   14     -0.30      0.00 
  -12  -10   14     -0.19      0.00 
    6  -11   14      0.29      0.00 
    5  -11   14      0.29      0.00 
    4  -11   14      0.03      0.00 
    3  -11   14     -0.34      0.00 
    2  -11   14     -0.52      0.00 
    1  -11   14     -0.46      0.00 
    0  -11   14     -0.26      0.00 
   -1  -11   14     -0.01      0.00 
   -2  -11   14      0.27      0.00 
   -3  -11   14      0.48      0.00 
   -4  -11   14      0.45      0.00 
   -5  -11   14      0.10      0.00 
   -6  -11   14     -0.29      0.00 
   -7  -11   14     -0.38      0.00 
   -8  -11   14     -0.04      0.00 
   -9  -11   14      0.48      0.00 
  -10  -11   14      0.81      0.00 
  -11  -11   14      0.80      0.00 
    4  -12   14      0.13      0.00 
    3  -12   14      0.31      0.00 
    2  -12   14      0.42      0.00 
    1  -12   14      0.39      0.00 
    0  -12   14      0.25      0.00 
   -1  -12   14      0.05      0.00 
   -2  -12   14     -0.11      0.00 
   -3  -12   14     -0.14      0.00 
   -4  -12   14     -0.08      0.00 
   -5  -12   14     -0.02      0.00 
   -6  -12   14      0.03      0.00 
   -7  -12   14      0.07      0.00 
   -8  -12   14      0.07      0.00 
   -9  -12   14     -0.09      0.00 
  -10  -12   14     -0.37      0.00 
    2  -13   14     -0.04      0.00 
    1  -13   14     -0.05      0.00 
    0  -13   14      0.01      0.00 
   -1  -13   14      0.07      0.00 
   -2  -13   14      0.00      0.00 
   -3  -13   14     -0.17      0.00 
   -4  -13   14     -0.28      0.00 
   -5  -13   14     -0.13      0.00 
   -6  -13   14      0.18      0.00 
   -7  -13   14      0.41      0.00 
   -8  -13   14      0.39      0.00 
   -9  -13   14      0.23      0.00 
  -10  -13   14      0.12      0.00 
   -6  -14   14     -0.24      0.00 
   -7  -14   14     -0.55      0.00 
   -8  -14   14     -0.53      0.00 
    6   20   13     -0.05      0.00 
    5   20   13      0.08      0.00 
    4   20   13      0.19      0.00 
    3   20   13      0.25      0.00 
   10   19   13     -0.28      0.00 
    9   19   13     -0.27      0.00 
    8   19   13     -0.22      0.00 
    7   19   13     -0.21      0.00 
    6   19   13     -0.14      0.00 
    5   19   13      0.03      0.00 
    4   19   13      0.19      0.00 
    3   19   13      0.16      0.00 
    2   19   13      0.02      0.00 
    1   19   13     -0.01      0.00 
    0   19   13      0.12      0.00 
   10   18   13      0.06      0.00 
    9   18   13     -0.12      0.00 
    8   18   13      0.05      0.00 
    7   18   13      0.42      0.00 
    6   18   13      0.57      0.00 
    5   18   13      0.39      0.00 
    4   18   13      0.18      0.00 
    3   18   13      0.14      0.00 
    2   18   13      0.14      0.00 
    1   18   13      0.00      0.00 
    0   18   13     -0.18      0.00 
   -1   18   13     -0.24      0.00 
   -2   18   13     -0.21      0.00 
   -3   18   13     -0.20      0.00 
   11   17   13      0.48      0.00 
   10   17   13      0.46      0.00 
    9   17   13      0.32      0.00 
    8   17   13      0.10      0.00 
    7   17   13     -0.06      0.00 
    6   17   13     -0.09      0.00 
    5   17   13     -0.09      0.00 
    4   17   13     -0.19      0.00 
    3   17   13     -0.28      0.00 
    2   17   13     -0.21      0.00 
    1   17   13      0.00      0.00 
    0   17   13      0.18      0.00 
   -1   17   13      0.22      0.00 
   -2   17   13      0.16      0.00 
   -3   17   13      0.07      0.00 
   -4   17   13     -0.02      0.00 
   13   16   13     -0.20      0.00 
   12   16   13     -0.47      0.00 
   11   16   13     -0.45      0.00 
   10   16   13     -0.12      0.00 
    9   16   13      0.20      0.00 
    8   16   13      0.21      0.00 
    7   16   13     -0.02      0.00 
    6   16   13     -0.25      0.00 
    5   16   13     -0.35      0.00 
    4   16   13     -0.44      0.00 
    3   16   13     -0.56      0.00 
    2   16   13     -0.57      0.00 
    1   16   13     -0.37      0.00 
    0   16   13     -0.10      0.00 
   -1   16   13      0.02      0.00 
   -2   16   13     -0.04      0.00 
   -3   16   13     -0.08      0.00 
   -4   16   13     -0.03      0.00 
   -5   16   13      0.02      0.00 
   14   15   13     -0.04      0.00 
   13   15   13      0.05      0.00 
   12   15   13     -0.01      0.00 
   11   15   13     -0.32      0.00 
   10   15   13     -0.64      0.00 
    9   15   13     -0.62      0.00 
    8   15   13     -0.23      0.00 
    7   15   13      0.18      0.00 
    6   15   13      0.35      0.00 
    5   15   13      0.40      0.00 
    4   15   13      0.53      0.00 
    3   15   13      0.73      0.00 
    2   15   13      0.77      0.00 
    1   15   13      0.58      0.00 
    0   15   13      0.28      0.00 
   -1   15   13      0.04      0.00 
   -2   15   13     -0.11      0.00 
   -3   15   13     -0.20      0.00 
   -4   15   13     -0.19      0.00 
   -5   15   13     -0.09      0.00 
   -6   15   13     -0.01      0.00 
   14   14   13     -0.41      0.00 
   13   14   13     -0.29      0.00 
   12   14   13     -0.04      0.00 
   11   14   13      0.12      0.00 
   10   14   13      0.07      0.00 
    9   14   13     -0.12      0.00 
    8   14   13     -0.26      0.00 
    7   14   13     -0.28      0.00 
    6   14   13     -0.23      0.00 
    5   14   13     -0.19      0.00 
    4   14   13     -0.15      0.00 
    3   14   13     -0.15      0.00 
    2   14   13     -0.21      0.00 
    1   14   13     -0.28      0.00 
    0   14   13     -0.23      0.00 
   -1   14   13     -0.02      0.00 
   -2   14   13      0.24      0.00 
   -3   14   13      0.37      0.00 
   -4   14   13      0.37      0.00 
   -5   14   13      0.35      0.00 
   -6   14   13      0.36      0.00 
   -7   14   13      0.31      0.00 
   14   13   13      0.53      0.00 
   13   13   13      0.37      0.00 
   12   13   13      0.07      0.00 
   11   13   13     -0.12      0.00 
   10   13   13     -0.09      0.00 
    9   13   13      0.09      0.00 
    8   13   13      0.32      0.00 
    7   13   13      0.54      0.00 
    6   13   13      0.61      0.00 
    5   13   13      0.42      0.00 
    4   13   13     -0.01      0.00 
    3   13   13     -0.43      0.00 
    2   13   13     -0.54      0.00 
    1   13   13     -0.38      0.00 
    0   13   13     -0.18      0.00 
   -1   13   13     -0.14      0.00 
   -2   13   13     -0.16      0.00 
   -3   13   13     -0.08      0.00 
   -4   13   13      0.04      0.00 
   -5   13   13      0.06      0.00 
   -6   13   13     -0.02      0.00 
   -7   13   13     -0.03      0.00 
   -8   13   13      0.09      0.00 
   14   12   13     -0.72      0.00 
   13   12   13     -0.55      0.00 
   12   12   13     -0.36      0.00 
   11   12   13     -0.14      0.00 
   10   12   13      0.16      0.00 
    9   12   13      0.40      0.00 
    8   12   13      0.42      0.00 
    7   12   13      0.22      0.00 
    6   12   13     -0.02      0.00 
    5   12   13     -0.12      0.00 
    4   12   13     -0.04      0.00 
    3   12   13      0.21      0.00 
    2   12   13      0.52      0.00 
    1   12   13      0.67      0.00 
    0   12   13      0.46      0.00 
   -1   12   13     -0.09      0.00 
   -2   12   13     -0.66      0.00 
   -3   12   13     -0.87      0.00 
   -4   12   13     -0.62      0.00 
   -5   12   13     -0.22      0.00 
   -6   12   13     -0.01      0.00 
   -7   12   13     -0.06      0.00 
   -8   12   13     -0.19      0.00 
   -9   12   13     -0.21      0.00 
   14   11   13      0.67      0.00 
   13   11   13      0.65      0.00 
   12   11   13      0.54      0.00 
   11   11   13      0.39      0.00 
   10   11   13      0.26      0.00 
    9   11   13      0.14      0.00 
    8   11   13     -0.11      0.00 
    7   11   13     -0.50      0.00 
    6   11   13     -0.80      0.00 
    5   11   13     -0.76      0.00 
    4   11   13     -0.44      0.00 
    3   11   13     -0.19      0.00 
    2   11   13     -0.19      0.00 
    1   11   13     -0.26      0.00 
    0   11   13     -0.13      0.00 
   -1   11   13      0.24      0.00 
   -2   11   13      0.58      0.00 
   -3   11   13      0.64      0.00 
   -4   11   13      0.40      0.00 
   -5   11   13      0.02      0.00 
   -6   11   13     -0.33      0.00 
   -7   11   13     -0.52      0.00 
   -8   11   13     -0.53      0.00 
   -9   11   13     -0.42      0.00 
  -10   11   13     -0.25      0.00 
   13   10   13      0.28      0.00 
   12   10   13      0.17      0.00 
   11   10   13     -0.11      0.00 
   10   10   13     -0.43      0.00 
    9   10   13     -0.59      0.00 
    8   10   13     -0.41      0.00 
    7   10   13      0.00      0.00 
    6   10   13      0.29      0.00 
    5   10   13      0.19      0.00 
    4   10   13     -0.16      0.00 
    3   10   13     -0.40      0.00 
    2   10   13     -0.31      0.00 
    1   10   13     -0.01      0.00 
    0   10   13      0.29      0.00 
   -1   10   13      0.51      0.00 
   -2   10   13      0.65      0.00 
   -3   10   13      0.65      0.00 
   -4   10   13      0.48      0.00 
   -5   10   13      0.28      0.00 
   -6   10   13      0.26      0.00 
   -7   10   13      0.44      0.00 
   -8   10   13      0.65      0.00 
   -9   10   13      0.69      0.00 
  -10   10   13      0.56      0.00 
  -11   10   13      0.33      0.00 
   13    9   13     -1.25      0.00 
   12    9   13     -1.11      0.00 
   11    9   13     -0.42      0.00 
   10    9   13      0.31      0.00 
    9    9   13      0.65      0.00 
    8    9   13      0.53      0.00 
    7    9   13      0.20      0.00 
    6    9   13     -0.09      0.00 
    5    9   13     -0.15      0.00 
    4    9   13      0.15      0.00 
    3    9   13      0.68      0.00 
    2    9   13      1.04      0.00 
    1    9   13      0.84      0.00 
    0    9   13      0.13      0.00 
   -1    9   13     -0.67      0.00 
   -2    9   13     -1.07      0.00 
   -3    9   13     -0.99      0.00 
   -4    9   13     -0.68      0.00 
   -5    9   13     -0.40      0.00 
   -6    9   13     -0.22      0.00 
   -7    9   13     -0.09      0.00 
   -8    9   13      0.05      0.00 
   -9    9   13      0.16      0.00 
  -10    9   13      0.17      0.00 
  -11    9   13      0.11      0.00 
   13    8   13      0.37      0.00 
   12    8   13      0.22      0.00 
   11    8   13     -0.08      0.00 
   10    8   13     -0.34      0.00 
    9    8   13     -0.51      0.00 
    8    8   13     -0.65      0.00 
    7    8   13     -0.71      0.00 
    6    8   13     -0.51      0.00 
    5    8   13     -0.11      0.00 
    4    8   13      0.14      0.00 
    3    8   13     -0.04      0.00 
    2    8   13     -0.46      0.00 
    1    8   13     -0.71      0.00 
    0    8   13     -0.60      0.00 
   -1    8   13     -0.30      0.00 
   -2    8   13     -0.04      0.00 
   -3    8   13      0.12      0.00 
   -4    8   13      0.20      0.00 
   -5    8   13      0.16      0.00 
   -6    8   13     -0.06      0.00 
   -7    8   13     -0.38      0.00 
   -8    8   13     -0.65      0.00 
   -9    8   13     -0.73      0.00 
  -10    8   13     -0.60      0.00 
  -11    8   13     -0.37      0.00 
  -12    8   13     -0.16      0.00 
   15    7   13      0.27      0.00 
   14    7   13      0.58      0.00 
   13    7   13      0.87      0.00 
   12    7   13      0.87      0.00 
   11    7   13      0.45      0.00 
   10    7   13     -0.16      0.00 
    9    7   13     -0.46      0.00 
    8    7   13     -0.16      0.00 
    7    7   13      0.58      0.00 
    6    7   13      1.21      0.00 
    5    7   13      1.33      0.00 
    4    7   13      0.91      0.00 
    3    7   13      0.27      0.00 
    2    7   13     -0.15      0.00 
    1    7   13     -0.16      0.00 
    0    7   13      0.14      0.00 
   -1    7   13      0.38      0.00 
   -2    7   13      0.29      0.00 
   -3    7   13     -0.04      0.00 
   -4    7   13     -0.26      0.00 
   -5    7   13     -0.12      0.00 
   -6    7   13      0.23      0.00 
   -7    7   13      0.51      0.00 
   -8    7   13      0.57      0.00 
   -9    7   13      0.46      0.00 
  -10    7   13      0.24      0.00 
  -11    7   13     -0.04      0.00 
  -12    7   13     -0.25      0.00 
   15    6   13     -0.13      0.00 
   14    6   13     -0.38      0.00 
   13    6   13     -0.48      0.00 
   12    6   13     -0.30      0.00 
   11    6   13      0.13      0.00 
   10    6   13      0.71      0.00 
    9    6   13      1.29      0.00 
    8    6   13      1.56      0.00 
    7    6   13      1.13      0.00 
    6    6   13      0.02      0.00 
    5    6   13     -1.13      0.00 
    4    6   13     -1.49      0.00 
    3    6   13     -0.87      0.00 
    2    6   13      0.11      0.00 
    1    6   13      0.65      0.00 
    0    6   13      0.48      0.00 
   -1    6   13      0.03      0.00 
   -2    6   13     -0.18      0.00 
   -3    6   13     -0.06      0.00 
   -4    6   13      0.14      0.00 
   -5    6   13      0.23      0.00 
   -6    6   13      0.30      0.00 
   -7    6   13      0.44      0.00 
   -8    6   13      0.55      0.00 
   -9    6   13      0.48      0.00 
  -10    6   13      0.28      0.00 
  -11    6   13      0.11      0.00 
  -12    6   13      0.02      0.00 
   15    5   13     -0.39      0.00 
   14    5   13     -0.44      0.00 
   13    5   13     -0.41      0.00 
   12    5   13     -0.27      0.00 
   11    5   13      0.03      0.00 
   10    5   13      0.31      0.00 
    9    5   13      0.24      0.00 
    8    5   13     -0.22      0.00 
    7    5   13     -0.63      0.00 
    6    5   13     -0.49      0.00 
    5    5   13      0.22      0.00 
    4    5   13      0.95      0.00 
    3    5   13      1.11      0.00 
    2    5   13      0.57      0.00 
    1    5   13     -0.34      0.00 
    0    5   13     -1.04      0.00 
   -1    5   13     -1.12      0.00 
   -2    5   13     -0.61      0.00 
   -3    5   13      0.10      0.00 
   -4    5   13      0.54      0.00 
   -5    5   13      0.42      0.00 
   -6    5   13     -0.13      0.00 
   -7    5   13     -0.77      0.00 
   -8    5   13     -1.09      0.00 
   -9    5   13     -0.90      0.00 
  -10    5   13     -0.34      0.00 
  -11    5   13      0.26      0.00 
  -12    5   13      0.60      0.00 
  -13    5   13      0.61      0.00 
   15    4   13      0.36      0.00 
   14    4   13      0.70      0.00 
   13    4   13      0.74      0.00 
   12    4   13      0.26      0.00 
   11    4   13     -0.58      0.00 
   10    4   13     -1.34      0.00 
    9    4   13     -1.65      0.00 
    8    4   13     -1.44      0.00 
    7    4   13     -0.94      0.00 
    6    4   13     -0.42      0.00 
    5    4   13     -0.14      0.00 
    4    4   13     -0.32      0.00 
    3    4   13     -0.92      0.00 
    2    4   13     -1.45      0.00 
    1    4   13     -1.32      0.00 
    0    4   13     -0.46      0.00 
   -1    4   13      0.57      0.00 
   -2    4   13      1.06      0.00 
   -3    4   13      0.81      0.00 
   -4    4   13      0.24      0.00 
   -5    4   13     -0.13      0.00 
   -6    4   13     -0.08      0.00 
   -7    4   13      0.27      0.00 
   -8    4   13      0.63      0.00 
   -9    4   13      0.67      0.00 
  -10    4   13      0.24      0.00 
  -11    4   13     -0.47      0.00 
  -12    4   13     -0.97      0.00 
  -13    4   13     -0.90      0.00 
   15    3   13      0.15      0.00 
   14    3   13     -0.06      0.00 
   13    3   13     -0.36      0.00 
   12    3   13     -0.44      0.00 
   11    3   13     -0.10      0.00 
   10    3   13      0.49      0.00 
    9    3   13      1.00      0.00 
    8    3   13      1.12      0.00 
    7    3   13      0.71      0.00 
    6    3   13     -0.15      0.00 
    5    3   13     -1.05      0.00 
    4    3   13     -1.37      0.00 
    3    3   13     -0.64      0.00 
    2    3   13      0.94      0.00 
    1    3   13      2.46      0.00 
    0    3   13      2.96      0.00 
   -1    3   13      2.17      0.00 
   -2    3   13      0.68      0.00 
   -3    3   13     -0.61      0.00 
   -4    3   13     -1.11      0.00 
   -5    3   13     -0.87      0.00 
   -6    3   13     -0.34      0.00 
   -7    3   13     -0.04      0.00 
   -8    3   13     -0.14      0.00 
   -9    3   13     -0.41      0.00 
  -10    3   13     -0.44      0.00 
  -11    3   13     -0.13      0.00 
  -12    3   13      0.22      0.00 
  -13    3   13      0.22      0.00 
   14    2   13     -0.41      0.00 
   13    2   13     -0.24      0.00 
   12    2   13      0.28      0.00 
   11    2   13      0.82      0.00 
   10    2   13      1.01      0.00 
    9    2   13      0.74      0.00 
    8    2   13      0.22      0.00 
    7    2   13     -0.12      0.00 
    6    2   13      0.09      0.00 
    5    2   13      0.89      0.00 
    4    2   13      1.86      0.00 
    3    2   13      2.15      0.00 
    2    2   13      1.18      0.00 
    1    2   13     -0.79      0.00 
    0    2   13     -2.69      0.00 
   -1    2   13     -3.46      0.00 
   -2    2   13     -2.82      0.00 
   -3    2   13     -1.35      0.00 
   -4    2   13      0.04      0.00 
   -5    2   13      0.73      0.00 
   -6    2   13      0.63      0.00 
   -7    2   13      0.15      0.00 
   -8    2   13     -0.15      0.00 
   -9    2   13     -0.05      0.00 
  -10    2   13      0.25      0.00 
  -11    2   13      0.38      0.00 
  -12    2   13      0.32      0.00 
  -13    2   13      0.25      0.00 
  -14    2   13      0.30      0.00 
   14    1   13      0.16      0.00 
   13    1   13      0.25      0.00 
   12    1   13      0.02      0.00 
   11    1   13     -0.56      0.00 
   10    1   13     -1.18      0.00 
    9    1   13     -1.48      0.00 
    8    1   13     -1.29      0.00 
    7    1   13     -0.64      0.00 
    6    1   13      0.17      0.00 
    5    1   13      0.62      0.00 
    4    1   13      0.31      0.00 
    3    1   13     -0.62      0.00 
    2    1   13     -1.35      0.00 
    1    1   13     -1.07      0.00 
    0    1   13      0.27      0.00 
   -1    1   13      1.94      0.00 
   -2    1   13      2.98      0.00 
   -3    1   13      2.93      0.00 
   -4    1   13      1.97      0.00 
   -5    1   13      0.69      0.00 
   -6    1   13     -0.34      0.00 
   -7    1   13     -0.81      0.00 
   -8    1   13     -0.78      0.00 
   -9    1   13     -0.54      0.00 
  -10    1   13     -0.35      0.00 
  -11    1   13     -0.27      0.00 
  -12    1   13     -0.20      0.00 
  -13    1   13     -0.02      0.00 
  -14    1   13      0.20      0.00 
   14    0   13      0.08      0.00 
   13    0   13     -0.14      0.00 
   12    0   13     -0.30      0.00 
   11    0   13     -0.04      0.00 
   10    0   13      0.67      0.00 
    9    0   13      1.47      0.00 
    8    0   13      1.83      0.00 
    7    0   13      1.47      0.00 
    6    0   13      0.44      0.00 
    5    0   13     -0.85      0.00 
    4    0   13     -1.72      0.00 
    3    0   13     -1.61      0.00 
    2    0   13     -0.57      0.00 
    1    0   13      0.61      0.00 
    0    0   13      0.95      0.00 
   -1    0   13      0.09      0.00 
   -2    0   13     -1.36      0.00 
   -3    0   13     -2.41      0.00 
   -4    0   13     -2.51      0.00 
   -5    0   13     -1.76      0.00 
   -6    0   13     -0.63      0.00 
   -7    0   13      0.41      0.00 
   -8    0   13      0.98      0.00 
   -9    0   13      0.91      0.00 
  -10    0   13      0.36      0.00 
  -11    0   13     -0.17      0.00 
  -12    0   13     -0.35      0.00 
  -13    0   13     -0.26      0.00 
  -14    0   13     -0.19      0.00 
   13   -1   13     -0.04      0.00 
   12   -1   13      0.23      0.00 
   11   -1   13      0.37      0.00 
   10   -1   13      0.15      0.00 
    9   -1   13     -0.43      0.00 
    8   -1   13     -1.08      0.00 
    7   -1   13     -1.41      0.00 
    6   -1   13     -1.11      0.00 
    5   -1   13     -0.11      0.00 
    4   -1   13      1.24      0.00 
    3   -1   13      2.21      0.00 
    2   -1   13      2.07      0.00 
    1   -1   13      0.75      0.00 
    0   -1   13     -0.98      0.00 
   -1   -1   13     -2.00      0.00 
   -2   -1   13     -1.69      0.00 
   -3   -1   13     -0.39      0.00 
   -4   -1   13      0.97      0.00 
   -5   -1   13      1.58      0.00 
   -6   -1   13      1.26      0.00 
   -7   -1   13      0.52      0.00 
   -8   -1   13      0.03      0.00 
   -9   -1   13      0.11      0.00 
  -10   -1   13      0.59      0.00 
  -11   -1   13      0.97      0.00 
  -12   -1   13      0.94      0.00 
  -13   -1   13      0.58      0.00 
  -14   -1   13      0.20      0.00 
   13   -2   13      0.29      0.00 
   12   -2   13      0.30      0.00 
   11   -2   13      0.02      0.00 
   10   -2   13     -0.48      0.00 
    9   -2   13     -0.92      0.00 
    8   -2   13     -1.00      0.00 
    7   -2   13     -0.63      0.00 
    6   -2   13     -0.05      0.00 
    5   -2   13      0.20      0.00 
    4   -2   13     -0.25      0.00 
    3   -2   13     -1.22      0.00 
    2   -2   13     -1.93      0.00 
    1   -2   13     -1.50      0.00 
    0   -2   13      0.26      0.00 
   -1   -2   13      2.64      0.00 
   -2   -2   13      4.37      0.00 
   -3   -2   13      4.54      0.00 
   -4   -2   13      3.27      0.00 
   -5   -2   13      1.50      0.00 
   -6   -2   13      0.23      0.00 
   -7   -2   13     -0.22      0.00 
   -8   -2   13     -0.18      0.00 
   -9   -2   13     -0.13      0.00 
  -10   -2   13     -0.27      0.00 
  -11   -2   13     -0.45      0.00 
  -12   -2   13     -0.49      0.00 
  -13   -2   13     -0.30      0.00 
  -14   -2   13     -0.03      0.00 
   12   -3   13     -0.19      0.00 
   11   -3   13     -0.08      0.00 
   10   -3   13      0.43      0.00 
    9   -3   13      1.23      0.00 
    8   -3   13      1.99      0.00 
    7   -3   13      2.29      0.00 
    6   -3   13      1.88      0.00 
    5   -3   13      0.96      0.00 
    4   -3   13      0.16      0.00 
    3   -3   13     -0.01      0.00 
    2   -3   13      0.41      0.00 
    1   -3   13      0.75      0.00 
    0   -3   13      0.28      0.00 
   -1   -3   13     -1.25      0.00 
   -2   -3   13     -3.32      0.00 
   -3   -3   13     -5.00      0.00 
   -4   -3   13     -5.47      0.00 
   -5   -3   13     -4.47      0.00 
   -6   -3   13     -2.53      0.00 
   -7   -3   13     -0.61      0.00 
   -8   -3   13      0.43      0.00 
   -9   -3   13      0.41      0.00 
  -10   -3   13     -0.09      0.00 
  -11   -3   13     -0.33      0.00 
  -12   -3   13     -0.11      0.00 
  -13   -3   13      0.21      0.00 
  -14   -3   13      0.25      0.00 
   12   -4   13     -0.31      0.00 
   11   -4   13     -0.11      0.00 
   10   -4   13      0.00      0.00 
    9   -4   13     -0.38      0.00 
    8   -4   13     -1.29      0.00 
    7   -4   13     -2.28      0.00 
    6   -4   13     -2.61      0.00 
    5   -4   13     -1.92      0.00 
    4   -4   13     -0.51      0.00 
    3   -4   13      0.84      0.00 
    2   -4   13      1.44      0.00 
    1   -4   13      1.16      0.00 
    0   -4   13      0.44      0.00 
   -1   -4   13     -0.03      0.00 
   -2   -4   13      0.28      0.00 
   -3   -4   13      1.40      0.00 
   -4   -4   13      2.74      0.00 
   -5   -4   13      3.40      0.00 
   -6   -4   13      2.84      0.00 
   -7   -4   13      1.37      0.00 
   -8   -4   13     -0.07      0.00 
   -9   -4   13     -0.75      0.00 
  -10   -4   13     -0.71      0.00 
  -11   -4   13     -0.50      0.00 
  -12   -4   13     -0.49      0.00 
  -13   -4   13     -0.52      0.00 
  -14   -4   13     -0.37      0.00 
   11   -5   13     -0.65      0.00 
   10   -5   13     -1.21      0.00 
    9   -5   13     -1.31      0.00 
    8   -5   13     -0.68      0.00 
    7   -5   13      0.45      0.00 
    6   -5   13      1.50      0.00 
    5   -5   13      1.87      0.00 
    4   -5   13      1.33      0.00 
    3   -5   13      0.12      0.00 
    2   -5   13     -1.09      0.00 
    1   -5   13     -1.56      0.00 
    0   -5   13     -0.89      0.00 
   -1   -5   13      0.63      0.00 
   -2   -5   13      2.11      0.00 
   -3   -5   13      2.64      0.00 
   -4   -5   13      1.88      0.00 
   -5   -5   13      0.29      0.00 
   -6   -5   13     -1.20      0.00 
   -7   -5   13     -1.85      0.00 
   -8   -5   13     -1.52      0.00 
   -9   -5   13     -0.67      0.00 
  -10   -5   13      0.16      0.00 
  -11   -5   13      0.58      0.00 
  -12   -5   13      0.55      0.00 
  -13   -5   13      0.21      0.00 
  -14   -5   13     -0.16      0.00 
   10   -6   13      1.18      0.00 
    9   -6   13      1.41      0.00 
    8   -6   13      1.41      0.00 
    7   -6   13      1.09      0.00 
    6   -6   13      0.43      0.00 
    5   -6   13     -0.40      0.00 
    4   -6   13     -1.02      0.00 
    3   -6   13     -1.10      0.00 
    2   -6   13     -0.63      0.00 
    1   -6   13     -0.11      0.00 
    0   -6   13     -0.19      0.00 
   -1   -6   13     -1.15      0.00 
   -2   -6   13     -2.63      0.00 
   -3   -6   13     -3.82      0.00 
   -4   -6   13     -4.04      0.00 
   -5   -6   13     -3.15      0.00 
   -6   -6   13     -1.53      0.00 
   -7   -6   13      0.08      0.00 
   -8   -6   13      1.03      0.00 
   -9   -6   13      1.13      0.00 
  -10   -6   13      0.70      0.00 
  -11   -6   13      0.28      0.00 
  -12   -6   13      0.20      0.00 
  -13   -6   13      0.32      0.00 
  -14   -6   13      0.33      0.00 
   10   -7   13      0.16      0.00 
    9   -7   13      0.15      0.00 
    8   -7   13     -0.20      0.00 
    7   -7   13     -0.69      0.00 
    6   -7   13     -0.92      0.00 
    5   -7   13     -0.60      0.00 
    4   -7   13      0.14      0.00 
    3   -7   13      0.84      0.00 
    2   -7   13      1.09      0.00 
    1   -7   13      0.85      0.00 
    0   -7   13      0.43      0.00 
   -1   -7   13      0.22      0.00 
   -2   -7   13      0.39      0.00 
   -3   -7   13      0.91      0.00 
   -4   -7   13      1.51      0.00 
   -5   -7   13      1.80      0.00 
   -6   -7   13      1.52      0.00 
   -7   -7   13      0.74      0.00 
   -8   -7   13     -0.11      0.00 
   -9   -7   13     -0.64      0.00 
  -10   -7   13     -0.75      0.00 
  -11   -7   13     -0.61      0.00 
  -12   -7   13     -0.36      0.00 
  -13   -7   13     -0.07      0.00 
  -14   -7   13      0.22      0.00 
    9   -8   13     -0.79      0.00 
    8   -8   13     -0.90      0.00 
    7   -8   13     -0.51      0.00 
    6   -8   13      0.18      0.00 
    5   -8   13      0.59      0.00 
    4   -8   13      0.33      0.00 
    3   -8   13     -0.42      0.00 
    2   -8   13     -1.05      0.00 
    1   -8   13     -1.06      0.00 
    0   -8   13     -0.31      0.00 
   -1   -8   13      0.91      0.00 
   -2   -8   13      2.10      0.00 
   -3   -8   13      2.62      0.00 
   -4   -8   13      2.16      0.00 
   -5   -8   13      1.06      0.00 
   -6   -8   13      0.11      0.00 
   -7   -8   13     -0.12      0.00 
   -8   -8   13      0.23      0.00 
   -9   -8   13      0.62      0.00 
  -10   -8   13      0.65      0.00 
  -11   -8   13      0.36      0.00 
  -12   -8   13     -0.01      0.00 
  -13   -8   13     -0.28      0.00 
    8   -9   13      0.76      0.00 
    7   -9   13      0.97      0.00 
    6   -9   13      0.70      0.00 
    5   -9   13      0.16      0.00 
    4   -9   13     -0.22      0.00 
    3   -9   13     -0.19      0.00 
    2   -9   13      0.14      0.00 
    1   -9   13      0.43      0.00 
    0   -9   13      0.35      0.00 
   -1   -9   13     -0.28      0.00 
   -2   -9   13     -1.31      0.00 
   -3   -9   13     -2.25      0.00 
   -4   -9   13     -2.53      0.00 
   -5   -9   13     -1.95      0.00 
   -6   -9   13     -0.83      0.00 
   -7   -9   13      0.21      0.00 
   -8   -9   13      0.69      0.00 
   -9   -9   13      0.63      0.00 
  -10   -9   13      0.33      0.00 
  -11   -9   13      0.15      0.00 
  -12   -9   13      0.19      0.00 
  -13   -9   13      0.31      0.00 
    8  -10   13     -0.31      0.00 
    7  -10   13     -0.69      0.00 
    6  -10   13     -0.97      0.00 
    5  -10   13     -0.87      0.00 
    4  -10   13     -0.31      0.00 
    3  -10   13      0.44      0.00 
    2  -10   13      0.89      0.00 
    1  -10   13      0.78      0.00 
    0  -10   13      0.29      0.00 
   -1  -10   13     -0.17      0.00 
   -2  -10   13     -0.28      0.00 
   -3  -10   13     -0.05      0.00 
   -4  -10   13      0.35      0.00 
   -5  -10   13      0.65      0.00 
   -6  -10   13      0.58      0.00 
   -7  -10   13      0.05      0.00 
   -8  -10   13     -0.69      0.00 
   -9  -10   13     -1.19      0.00 
  -10  -10   13     -1.12      0.00 
  -11  -10   13     -0.60      0.00 
  -12  -10   13     -0.06      0.00 
    6  -11   13      0.94      0.00 
    5  -11   13      0.99      0.00 
    4  -11   13      0.48      0.00 
    3  -11   13     -0.31      0.00 
    2  -11   13     -0.87      0.00 
    1  -11   13     -0.91      0.00 
    0  -11   13     -0.53      0.00 
   -1  -11   13     -0.02      0.00 
   -2  -11   13      0.33      0.00 
   -3  -11   13      0.44      0.00 
   -4  -11   13      0.33      0.00 
   -5  -11   13      0.11      0.00 
   -6  -11   13     -0.09      0.00 
   -7  -11   13     -0.15      0.00 
   -8  -11   13      0.02      0.00 
   -9  -11   13      0.32      0.00 
  -10  -11   13      0.54      0.00 
  -11  -11   13      0.47      0.00 
  -12  -11   13      0.15      0.00 
    5  -12   13     -0.47      0.00 
    4  -12   13     -0.21      0.00 
    3  -12   13      0.06      0.00 
    2  -12   13      0.18      0.00 
    1  -12   13      0.19      0.00 
    0  -12   13      0.22      0.00 
   -1  -12   13      0.25      0.00 
   -2  -12   13      0.22      0.00 
   -3  -12   13      0.14      0.00 
   -4  -12   13      0.06      0.00 
   -5  -12   13      0.00      0.00 
   -6  -12   13     -0.03      0.00 
   -7  -12   13      0.03      0.00 
   -8  -12   13      0.19      0.00 
   -9  -12   13      0.33      0.00 
  -10  -12   13      0.36      0.00 
  -11  -12   13      0.30      0.00 
    1  -13   13     -0.10      0.00 
    0  -13   13     -0.15      0.00 
   -1  -13   13     -0.39      0.00 
   -2  -13   13     -0.68      0.00 
   -3  -13   13     -0.73      0.00 
   -4  -13   13     -0.38      0.00 
   -5  -13   13      0.17      0.00 
   -6  -13   13      0.53      0.00 
   -7  -13   13      0.49      0.00 
   -8  -13   13      0.12      0.00 
   -9  -13   13     -0.29      0.00 
  -10  -13   13     -0.52      0.00 
   -5  -14   13      0.07      0.00 
   -6  -14   13     -0.36      0.00 
   -7  -14   13     -0.41      0.00 
   -8  -14   13     -0.12      0.00 
   -9  -14   13      0.19      0.00 
   -6  -15   13     -0.33      0.00 
   -7  -15   13     -0.29      0.00 
    8   20   12      0.22      0.00 
    7   20   12      0.10      0.00 
    6   20   12      0.02      0.00 
    5   20   12     -0.01      0.00 
    4   20   12     -0.04      0.00 
    3   20   12     -0.07      0.00 
    2   20   12     -0.05      0.00 
   10   19   12     -0.25      0.00 
    9   19   12     -0.28      0.00 
    8   19   12     -0.35      0.00 
    7   19   12     -0.36      0.00 
    6   19   12     -0.11      0.00 
    5   19   12      0.31      0.00 
    4   19   12      0.58      0.00 
    3   19   12      0.52      0.00 
    2   19   12      0.33      0.00 
    1   19   12      0.28      0.00 
    0   19   12      0.31      0.00 
   10   18   12      0.10      0.00 
    9   18   12     -0.11      0.00 
    8   18   12     -0.05      0.00 
    7   18   12      0.11      0.00 
    6   18   12      0.07      0.00 
    5   18   12     -0.14      0.00 
    4   18   12     -0.17      0.00 
    3   18   12      0.01      0.00 
    2   18   12      0.14      0.00 
    1   18   12      0.05      0.00 
    0   18   12     -0.12      0.00 
   -1   18   12     -0.16      0.00 
   -2   18   12     -0.08      0.00 
   -3   18   12     -0.01      0.00 
   12   17   12     -0.03      0.00 
   11   17   12     -0.10      0.00 
   10   17   12     -0.14      0.00 
    9   17   12     -0.08      0.00 
    8   17   12      0.14      0.00 
    7   17   12      0.46      0.00 
    6   17   12      0.65      0.00 
    5   17   12      0.51      0.00 
    4   17   12      0.08      0.00 
    3   17   12     -0.34      0.00 
    2   17   12     -0.57      0.00 
    1   17   12     -0.59      0.00 
    0   17   12     -0.46      0.00 
   -1   17   12     -0.18      0.00 
   -2   17   12      0.13      0.00 
   -3   17   12      0.30      0.00 
   -4   17   12      0.26      0.00 
   -5   17   12      0.16      0.00 
   13   16   12      0.65      0.00 
   12   16   12      0.44      0.00 
   11   16   12      0.30      0.00 
   10   16   12      0.27      0.00 
    9   16   12      0.09      0.00 
    8   16   12     -0.34      0.00 
    7   16   12     -0.74      0.00 
    6   16   12     -0.80      0.00 
    5   16   12     -0.53      0.00 
    4   16   12     -0.25      0.00 
    3   16   12     -0.12      0.00 
    2   16   12     -0.02      0.00 
    1   16   12      0.18      0.00 
    0   16   12      0.37      0.00 
   -1   16   12      0.35      0.00 
   -2   16   12      0.17      0.00 
   -3   16   12      0.00      0.00 
   -4   16   12     -0.09      0.00 
   -5   16   12     -0.17      0.00 
   -6   16   12     -0.24      0.00 
   14   15   12      0.02      0.00 
   13   15   12      0.18      0.00 
   12   15   12      0.26      0.00 
   11   15   12      0.19      0.00 
   10   15   12      0.11      0.00 
    9   15   12      0.21      0.00 
    8   15   12      0.39      0.00 
    7   15   12      0.38      0.00 
    6   15   12      0.13      0.00 
    5   15   12     -0.14      0.00 
    4   15   12     -0.18      0.00 
    3   15   12      0.00      0.00 
    2   15   12      0.23      0.00 
    1   15   12      0.37      0.00 
    0   15   12      0.38      0.00 
   -1   15   12      0.24      0.00 
   -2   15   12     -0.01      0.00 
   -3   15   12     -0.22      0.00 
   -4   15   12     -0.21      0.00 
   -5   15   12     -0.04      0.00 
   -6   15   12      0.07      0.00 
   14   14   12     -0.71      0.00 
   13   14   12     -0.74      0.00 
   12   14   12     -0.61      0.00 
   11   14   12     -0.49      0.00 
   10   14   12     -0.43      0.00 
    9   14   12     -0.33      0.00 
    8   14   12     -0.05      0.00 
    7   14   12      0.36      0.00 
    6   14   12      0.74      0.00 
    5   14   12      0.96      0.00 
    4   14   12      0.95      0.00 
    3   14   12      0.73      0.00 
    2   14   12      0.35      0.00 
    1   14   12     -0.06      0.00 
    0   14   12     -0.28      0.00 
   -1   14   12     -0.26      0.00 
   -2   14   12     -0.16      0.00 
   -3   14   12     -0.13      0.00 
   -4   14   12     -0.14      0.00 
   -5   14   12     -0.08      0.00 
   -6   14   12      0.03      0.00 
   -7   14   12      0.02      0.00 
   15   13   12      0.73      0.00 
   14   13   12      0.68      0.00 
   13   13   12      0.41      0.00 
   12   13   12      0.08      0.00 
   11   13   12     -0.21      0.00 
   10   13   12     -0.42      0.00 
    9   13   12     -0.52      0.00 
    8   13   12     -0.45      0.00 
    7   13   12     -0.30      0.00 
    6   13   12     -0.19      0.00 
    5   13   12     -0.20      0.00 
    4   13   12     -0.28      0.00 
    3   13   12     -0.26      0.00 
    2   13   12     -0.09      0.00 
    1   13   12      0.18      0.00 
    0   13   12      0.40      0.00 
   -1   13   12      0.50      0.00 
   -2   13   12      0.44      0.00 
   -3   13   12      0.24      0.00 
   -4   13   12     -0.08      0.00 
   -5   13   12     -0.39      0.00 
   -6   13   12     -0.49      0.00 
   -7   13   12     -0.31      0.00 
   -8   13   12     -0.06      0.00 
   -9   13   12      0.03      0.00 
   14   12   12     -0.42      0.00 
   13   12   12     -0.34      0.00 
   12   12   12     -0.21      0.00 
   11   12   12      0.06      0.00 
   10   12   12      0.42      0.00 
    9   12   12      0.65      0.00 
    8   12   12      0.57      0.00 
    7   12   12      0.24      0.00 
    6   12   12     -0.20      0.00 
    5   12   12     -0.66      0.00 
    4   12   12     -1.02      0.00 
    3   12   12     -1.13      0.00 
    2   12   12     -0.94      0.00 
    1   12   12     -0.65      0.00 
    0   12   12     -0.56      0.00 
   -1   12   12     -0.67      0.00 
   -2   12   12     -0.70      0.00 
   -3   12   12     -0.34      0.00 
   -4   12   12      0.32      0.00 
   -5   12   12      0.88      0.00 
   -6   12   12      1.03      0.00 
   -7   12   12      0.85      0.00 
   -8   12   12      0.65      0.00 
   -9   12   12      0.60      0.00 
  -10   12   12      0.55      0.00 
   14   11   12     -0.16      0.00 
   13   11   12      0.17      0.00 
   12   11   12      0.26      0.00 
   11   11   12      0.09      0.00 
   10   11   12     -0.05      0.00 
    9   11   12     -0.02      0.00 
    8   11   12      0.10      0.00 
    7   11   12      0.23      0.00 
    6   11   12      0.47      0.00 
    5   11   12      0.85      0.00 
    4   11   12      1.09      0.00 
    3   11   12      0.81      0.00 
    2   11   12      0.09      0.00 
    1   11   12     -0.58      0.00 
    0   11   12     -0.84      0.00 
   -1   11   12     -0.74      0.00 
   -2   11   12     -0.54      0.00 
   -3   11   12     -0.31      0.00 
   -4   11   12     -0.06      0.00 
   -5   11   12      0.13      0.00 
   -6   11   12      0.11      0.00 
   -7   11   12     -0.14      0.00 
   -8   11   12     -0.39      0.00 
   -9   11   12     -0.45      0.00 
  -10   11   12     -0.29      0.00 
   13   10   12      0.71      0.00 
   12   10   12      0.52      0.00 
   11   10   12      0.18      0.00 
   10   10   12     -0.17      0.00 
    9   10   12     -0.38      0.00 
    8   10   12     -0.40      0.00 
    7   10   12     -0.38      0.00 
    6   10   12     -0.53      0.00 
    5   10   12     -0.80      0.00 
    4   10   12     -0.87      0.00 
    3   10   12     -0.42      0.00 
    2   10   12      0.48      0.00 
    1   10   12      1.42      0.00 
    0   10   12      2.01      0.00 
   -1   10   12      2.10      0.00 
   -2   10   12      1.72      0.00 
   -3   10   12      0.97      0.00 
   -4   10   12      0.07      0.00 
   -5   10   12     -0.64      0.00 
   -6   10   12     -0.91      0.00 
   -7   10   12     -0.80      0.00 
   -8   10   12     -0.56      0.00 
   -9   10   12     -0.39      0.00 
  -10   10   12     -0.28      0.00 
  -11   10   12     -0.16      0.00 
   13    9   12     -0.66      0.00 
   12    9   12     -0.68      0.00 
   11    9   12     -0.22      0.00 
   10    9   12      0.39      0.00 
    9    9   12      0.79      0.00 
    8    9   12      0.90      0.00 
    7    9   12      0.75      0.00 
    6    9   12      0.35      0.00 
    5    9   12     -0.15      0.00 
    4    9   12     -0.45      0.00 
    3    9   12     -0.35      0.00 
    2    9   12     -0.05      0.00 
    1    9   12      0.03      0.00 
    0    9   12     -0.23      0.00 
   -1    9   12     -0.54      0.00 
   -2    9   12     -0.51      0.00 
   -3    9   12     -0.15      0.00 
   -4    9   12      0.26      0.00 
   -5    9   12      0.46      0.00 
   -6    9   12      0.46      0.00 
   -7    9   12      0.40      0.00 
   -8    9   12      0.32      0.00 
   -9    9   12      0.24      0.00 
  -10    9   12      0.13      0.00 
  -11    9   12      0.04      0.00 
  -12    9   12     -0.03      0.00 
   13    8   12     -0.70      0.00 
   12    8   12     -0.54      0.00 
   11    8   12     -0.39      0.00 
   10    8   12     -0.41      0.00 
    9    8   12     -0.75      0.00 
    8    8   12     -1.28      0.00 
    7    8   12     -1.53      0.00 
    6    8   12     -1.03      0.00 
    5    8   12      0.10      0.00 
    4    8   12      1.14      0.00 
    3    8   12      1.39      0.00 
    2    8   12      0.77      0.00 
    1    8   12     -0.18      0.00 
    0    8   12     -0.92      0.00 
   -1    8   12     -1.25      0.00 
   -2    8   12     -1.21      0.00 
   -3    8   12     -0.98      0.00 
   -4    8   12     -0.71      0.00 
   -5    8   12     -0.53      0.00 
   -6    8   12     -0.41      0.00 
   -7    8   12     -0.22      0.00 
   -8    8   12      0.09      0.00 
   -9    8   12      0.39      0.00 
  -10    8   12      0.49      0.00 
  -11    8   12      0.36      0.00 
  -12    8   12      0.12      0.00 
   16    7   12      0.23      0.00 
   15    7   12      0.47      0.00 
   14    7   12      0.71      0.00 
   13    7   12      0.77      0.00 
   12    7   12      0.51      0.00 
   11    7   12      0.00      0.00 
   10    7   12     -0.47      0.00 
    9    7   12     -0.58      0.00 
    8    7   12     -0.23      0.00 
    7    7   12      0.29      0.00 
    6    7   12      0.50      0.00 
    5    7   12      0.14      0.00 
    4    7   12     -0.56      0.00 
    3    7   12     -1.09      0.00 
    2    7   12     -0.99      0.00 
    1    7   12     -0.23      0.00 
    0    7   12      0.75      0.00 
   -1    7   12      1.32      0.00 
   -2    7   12      1.12      0.00 
   -3    7   12      0.37      0.00 
   -4    7   12     -0.35      0.00 
   -5    7   12     -0.66      0.00 
   -6    7   12     -0.64      0.00 
   -7    7   12     -0.52      0.00 
   -8    7   12     -0.38      0.00 
   -9    7   12     -0.16      0.00 
  -10    7   12      0.09      0.00 
  -11    7   12      0.22      0.00 
  -12    7   12      0.22      0.00 
   16    6   12      0.53      0.00 
   15    6   12      0.54      0.00 
   14    6   12      0.37      0.00 
   13    6   12      0.19      0.00 
   12    6   12      0.10      0.00 
   11    6   12      0.15      0.00 
   10    6   12      0.42      0.00 
    9    6   12      0.92      0.00 
    8    6   12      1.41      0.00 
    7    6   12      1.43      0.00 
    6    6   12      0.86      0.00 
    5    6   12      0.05      0.00 
    4    6   12     -0.44      0.00 
    3    6   12     -0.40      0.00 
    2    6   12     -0.12      0.00 
    1    6   12     -0.03      0.00 
    0    6   12     -0.27      0.00 
   -1    6   12     -0.56      0.00 
   -2    6   12     -0.55      0.00 
   -3    6   12     -0.12      0.00 
   -4    6   12      0.54      0.00 
   -5    6   12      1.17      0.00 
   -6    6   12      1.57      0.00 
   -7    6   12      1.57      0.00 
   -8    6   12      1.05      0.00 
   -9    6   12      0.17      0.00 
  -10    6   12     -0.61      0.00 
  -11    6   12     -0.89      0.00 
  -12    6   12     -0.69      0.00 
  -13    6   12     -0.36      0.00 
   16    5   12     -0.34      0.00 
   15    5   12     -0.64      0.00 
   14    5   12     -0.68      0.00 
   13    5   12     -0.33      0.00 
   12    5   12      0.31      0.00 
   11    5   12      0.95      0.00 
   10    5   12      1.21      0.00 
    9    5   12      0.95      0.00 
    8    5   12      0.41      0.00 
    7    5   12      0.04      0.00 
    6    5   12      0.17      0.00 
    5    5   12      0.83      0.00 
    4    5   12      1.75      0.00 
    3    5   12      2.38      0.00 
    2    5   12      2.21      0.00 
    1    5   12      1.17      0.00 
    0    5   12     -0.22      0.00 
   -1    5   12     -1.15      0.00 
   -2    5   12     -1.18      0.00 
   -3    5   12     -0.53      0.00 
   -4    5   12      0.13      0.00 
   -5    5   12      0.32      0.00 
   -6    5   12     -0.01      0.00 
   -7    5   12     -0.46      0.00 
   -8    5   12     -0.57      0.00 
   -9    5   12     -0.18      0.00 
  -10    5   12      0.42      0.00 
  -11    5   12      0.77      0.00 
  -12    5   12      0.63      0.00 
  -13    5   12      0.17      0.00 
   15    4   12     -0.05      0.00 
   14    4   12      0.16      0.00 
   13    4   12      0.23      0.00 
   12    4   12     -0.09      0.00 
   11    4   12     -0.70      0.00 
   10    4   12     -1.21      0.00 
    9    4   12     -1.32      0.00 
    8    4   12     -1.02      0.00 
    7    4   12     -0.51      0.00 
    6    4   12     -0.10      0.00 
    5    4   12     -0.18      0.00 
    4    4   12     -1.05      0.00 
    3    4   12     -2.39      0.00 
    2    4   12     -3.31      0.00 
    1    4   12     -2.96      0.00 
    0    4   12     -1.37      0.00 
   -1    4   12      0.56      0.00 
   -2    4   12      1.74      0.00 
   -3    4   12      1.74      0.00 
   -4    4   12      0.92      0.00 
   -5    4   12      0.02      0.00 
   -6    4   12     -0.40      0.00 
   -7    4   12     -0.24      0.00 
   -8    4   12      0.21      0.00 
   -9    4   12      0.47      0.00 
  -10    4   12      0.29      0.00 
  -11    4   12     -0.13      0.00 
  -12    4   12     -0.33      0.00 
  -13    4   12     -0.08      0.00 
   15    3   12      0.10      0.00 
   14    3   12     -0.02      0.00 
   13    3   12     -0.47      0.00 
   12    3   12     -0.95      0.00 
   11    3   12     -1.10      0.00 
   10    3   12     -0.77      0.00 
    9    3   12     -0.27      0.00 
    8    3   12     -0.13      0.00 
    7    3   12     -0.69      0.00 
    6    3   12     -1.73      0.00 
    5    3   12     -2.53      0.00 
    4    3   12     -2.33      0.00 
    3    3   12     -0.91      0.00 
    2    3   12      1.15      0.00 
    1    3   12      2.77      0.00 
    0    3   12      3.05      0.00 
   -1    3   12      1.96      0.00 
   -2    3   12      0.24      0.00 
   -3    3   12     -1.11      0.00 
   -4    3   12     -1.55      0.00 
   -5    3   12     -1.19      0.00 
   -6    3   12     -0.59      0.00 
   -7    3   12     -0.32      0.00 
   -8    3   12     -0.52      0.00 
   -9    3   12     -0.90      0.00 
  -10    3   12     -1.06      0.00 
  -11    3   12     -0.87      0.00 
  -12    3   12     -0.60      0.00 
  -13    3   12     -0.48      0.00 
  -14    3   12     -0.43      0.00 
   15    2   12      0.04      0.00 
   14    2   12      0.16      0.00 
   13    2   12      0.53      0.00 
   12    2   12      1.17      0.00 
   11    2   12      1.80      0.00 
   10    2   12      2.00      0.00 
    9    2   12      1.61      0.00 
    8    2   12      0.91      0.00 
    7    2   12      0.36      0.00 
    6    2   12      0.36      0.00 
    5    2   12      0.96      0.00 
    4    2   12      1.77      0.00 
    3    2   12      2.00      0.00 
    2    2   12      1.08      0.00 
    1    2   12     -0.79      0.00 
    0    2   12     -2.59      0.00 
   -1    2   12     -3.31      0.00 
   -2    2   12     -2.71      0.00 
   -3    2   12     -1.35      0.00 
   -4    2   12     -0.02      0.00 
   -5    2   12      0.75      0.00 
   -6    2   12      0.85      0.00 
   -7    2   12      0.55      0.00 
   -8    2   12      0.28      0.00 
   -9    2   12      0.28      0.00 
  -10    2   12      0.48      0.00 
  -11    2   12      0.62      0.00 
  -12    2   12      0.53      0.00 
  -13    2   12      0.27      0.00 
  -14    2   12      0.01      0.00 
   14    1   12      0.21      0.00 
   13    1   12      0.18      0.00 
   12    1   12     -0.14      0.00 
   11    1   12     -0.76      0.00 
   10    1   12     -1.32      0.00 
    9    1   12     -1.42      0.00 
    8    1   12     -0.84      0.00 
    7    1   12      0.32      0.00 
    6    1   12      1.63      0.00 
    5    1   12      2.40      0.00 
    4    1   12      2.10      0.00 
    3    1   12      0.90      0.00 
    2    1   12     -0.27      0.00 
    1    1   12     -0.37      0.00 
    0    1   12      0.83      0.00 
   -1    1   12      2.55      0.00 
   -2    1   12      3.68      0.00 
   -3    1   12      3.61      0.00 
   -4    1   12      2.50      0.00 
   -5    1   12      1.01      0.00 
   -6    1   12     -0.20      0.00 
   -7    1   12     -0.77      0.00 
   -8    1   12     -0.69      0.00 
   -9    1   12     -0.27      0.00 
  -10    1   12      0.10      0.00 
  -11    1   12      0.21      0.00 
  -12    1   12      0.20      0.00 
  -13    1   12      0.32      0.00 
  -14    1   12      0.56      0.00 
   14    0   12     -0.40      0.00 
   13    0   12     -0.82      0.00 
   12    0   12     -1.01      0.00 
   11    0   12     -0.73      0.00 
   10    0   12     -0.10      0.00 
    9    0   12      0.52      0.00 
    8    0   12      0.73      0.00 
    7    0   12      0.26      0.00 
    6    0   12     -0.84      0.00 
    5    0   12     -2.10      0.00 
    4    0   12     -2.69      0.00 
    3    0   12     -1.96      0.00 
    2    0   12     -0.13      0.00 
    1    0   12      1.64      0.00 
    0    0   12      2.05      0.00 
   -1    0   12      0.73      0.00 
   -2    0   12     -1.45      0.00 
   -3    0   12     -3.09      0.00 
   -4    0   12     -3.37      0.00 
   -5    0   12     -2.39      0.00 
   -6    0   12     -0.92      0.00 
   -7    0   12      0.26      0.00 
   -8    0   12      0.71      0.00 
   -9    0   12      0.46      0.00 
  -10    0   12     -0.09      0.00 
  -11    0   12     -0.45      0.00 
  -12    0   12     -0.45      0.00 
  -13    0   12     -0.31      0.00 
  -14    0   12     -0.24      0.00 
   13   -1   12      0.35      0.00 
   12   -1   12      0.73      0.00 
   11   -1   12      0.98      0.00 
   10   -1   12      0.97      0.00 
    9   -1   12      0.58      0.00 
    8   -1   12     -0.15      0.00 
    7   -1   12     -0.90      0.00 
    6   -1   12     -1.13      0.00 
    5   -1   12     -0.54      0.00 
    4   -1   12      0.43      0.00 
    3   -1   12      0.88      0.00 
    2   -1   12      0.10      0.00 
    1   -1   12     -1.71      0.00 
    0   -1   12     -3.57      0.00 
   -1   -1   12     -4.32      0.00 
   -2   -1   12     -3.47      0.00 
   -3   -1   12     -1.48      0.00 
   -4   -1   12      0.48      0.00 
   -5   -1   12      1.38      0.00 
   -6   -1   12      1.02      0.00 
   -7   -1   12      0.09      0.00 
   -8   -1   12     -0.47      0.00 
   -9   -1   12     -0.30      0.00 
  -10   -1   12      0.24      0.00 
  -11   -1   12      0.61      0.00 
  -12   -1   12      0.60      0.00 
  -13   -1   12      0.36      0.00 
  -14   -1   12      0.16      0.00 
   13   -2   12      0.13      0.00 
   12   -2   12      0.08      0.00 
   11   -2   12     -0.20      0.00 
   10   -2   12     -0.68      0.00 
    9   -2   12     -1.11      0.00 
    8   -2   12     -1.09      0.00 
    7   -2   12     -0.45      0.00 
    6   -2   12      0.52      0.00 
    5   -2   12      1.13      0.00 
    4   -2   12      0.82      0.00 
    3   -2   12     -0.22      0.00 
    2   -2   12     -1.11      0.00 
    1   -2   12     -0.85      0.00 
    0   -2   12      0.87      0.00 
   -1   -2   12      3.35      0.00 
   -2   -2   12      5.30      0.00 
   -3   -2   12      5.70      0.00 
   -4   -2   12      4.46      0.00 
   -5   -2   12      2.42      0.00 
   -6   -2   12      0.70      0.00 
   -7   -2   12     -0.10      0.00 
   -8   -2   12     -0.11      0.00 
   -9   -2   12      0.09      0.00 
  -10   -2   12      0.03      0.00 
  -11   -2   12     -0.33      0.00 
  -12   -2   12     -0.68      0.00 
  -13   -2   12     -0.72      0.00 
  -14   -2   12     -0.49      0.00 
  -15   -2   12     -0.21      0.00 
   13   -3   12      0.12      0.00 
   12   -3   12     -0.22      0.00 
   11   -3   12     -0.34      0.00 
   10   -3   12      0.05      0.00 
    9   -3   12      0.91      0.00 
    8   -3   12      1.84      0.00 
    7   -3   12      2.20      0.00 
    6   -3   12      1.67      0.00 
    5   -3   12      0.55      0.00 
    4   -3   12     -0.27      0.00 
    3   -3   12     -0.04      0.00 
    2   -3   12      1.10      0.00 
    1   -3   12      2.15      0.00 
    0   -3   12      1.98      0.00 
   -1   -3   12      0.28      0.00 
   -2   -3   12     -2.26      0.00 
   -3   -3   12     -4.45      0.00 
   -4   -3   12     -5.30      0.00 
   -5   -3   12     -4.47      0.00 
   -6   -3   12     -2.41      0.00 
   -7   -3   12     -0.22      0.00 
   -8   -3   12      1.08      0.00 
   -9   -3   12      1.17      0.00 
  -10   -3   12      0.65      0.00 
  -11   -3   12      0.34      0.00 
  -12   -3   12      0.47      0.00 
  -13   -3   12      0.69      0.00 
  -14   -3   12      0.62      0.00 
  -15   -3   12      0.33      0.00 
   12   -4   12      0.71      0.00 
   11   -4   12      1.24      0.00 
   10   -4   12      1.19      0.00 
    9   -4   12      0.35      0.00 
    8   -4   12     -1.00      0.00 
    7   -4   12     -2.20      0.00 
    6   -4   12     -2.61      0.00 
    5   -4   12     -2.01      0.00 
    4   -4   12     -0.79      0.00 
    3   -4   12      0.28      0.00 
    2   -4   12      0.48      0.00 
    1   -4   12     -0.27      0.00 
    0   -4   12     -1.36      0.00 
   -1   -4   12     -1.84      0.00 
   -2   -4   12     -1.15      0.00 
   -3   -4   12      0.51      0.00 
   -4   -4   12      2.30      0.00 
   -5   -4   12      3.29      0.00 
   -6   -4   12      3.02      0.00 
   -7   -4   12      1.76      0.00 
   -8   -4   12      0.29      0.00 
   -9   -4   12     -0.66      0.00 
  -10   -4   12     -0.84      0.00 
  -11   -4   12     -0.56      0.00 
  -12   -4   12     -0.20      0.00 
  -13   -4   12      0.05      0.00 
  -14   -4   12      0.19      0.00 
  -15   -4   12      0.23      0.00 
   11   -5   12     -1.57      0.00 
   10   -5   12     -1.68      0.00 
    9   -5   12     -1.30      0.00 
    8   -5   12     -0.52      0.00 
    7   -5   12      0.50      0.00 
    6   -5   12      1.51      0.00 
    5   -5   12      2.09      0.00 
    4   -5   12      1.84      0.00 
    3   -5   12      0.74      0.00 
    2   -5   12     -0.52      0.00 
    1   -5   12     -0.95      0.00 
    0   -5   12     -0.09      0.00 
   -1   -5   12      1.52      0.00 
   -2   -5   12      2.78      0.00 
   -3   -5   12      2.88      0.00 
   -4   -5   12      1.78      0.00 
   -5   -5   12      0.07      0.00 
   -6   -5   12     -1.42      0.00 
   -7   -5   12     -2.12      0.00 
   -8   -5   12     -1.87      0.00 
   -9   -5   12     -1.09      0.00 
  -10   -5   12     -0.39      0.00 
  -11   -5   12     -0.18      0.00 
  -12   -5   12     -0.36      0.00 
  -13   -5   12     -0.58      0.00 
  -14   -5   12     -0.57      0.00 
   11   -6   12      0.29      0.00 
   10   -6   12      0.24      0.00 
    9   -6   12      0.33      0.00 
    8   -6   12      0.51      0.00 
    7   -6   12      0.51      0.00 
    6   -6   12      0.05      0.00 
    5   -6   12     -0.74      0.00 
    4   -6   12     -1.32      0.00 
    3   -6   12     -1.20      0.00 
    2   -6   12     -0.44      0.00 
    1   -6   12      0.35      0.00 
    0   -6   12      0.46      0.00 
   -1   -6   12     -0.36      0.00 
   -2   -6   12     -1.74      0.00 
   -3   -6   12     -2.97      0.00 
   -4   -6   12     -3.38      0.00 
   -5   -6   12     -2.73      0.00 
   -6   -6   12     -1.37      0.00 
   -7   -6   12      0.00      0.00 
   -8   -6   12      0.80      0.00 
   -9   -6   12      0.90      0.00 
  -10   -6   12      0.61      0.00 
  -11   -6   12      0.31      0.00 
  -12   -6   12      0.12      0.00 
  -13   -6   12     -0.03      0.00 
  -14   -6   12     -0.20      0.00 
   10   -7   12      0.77      0.00 
    9   -7   12      0.59      0.00 
    8   -7   12     -0.04      0.00 
    7   -7   12     -0.82      0.00 
    6   -7   12     -1.25      0.00 
    5   -7   12     -1.00      0.00 
    4   -7   12     -0.20      0.00 
    3   -7   12      0.63      0.00 
    2   -7   12      0.89      0.00 
    1   -7   12      0.36      0.00 
    0   -7   12     -0.63      0.00 
   -1   -7   12     -1.34      0.00 
   -2   -7   12     -1.17      0.00 
   -3   -7   12     -0.13      0.00 
   -4   -7   12      1.15      0.00 
   -5   -7   12      1.83      0.00 
   -6   -7   12      1.55      0.00 
   -7   -7   12      0.66      0.00 
   -8   -7   12     -0.21      0.00 
   -9   -7   12     -0.62      0.00 
  -10   -7   12     -0.56      0.00 
  -11   -7   12     -0.17      0.00 
  -12   -7   12      0.33      0.00 
  -13   -7   12      0.74      0.00 
  -14   -7   12      0.84      0.00 
   10   -8   12     -0.62      0.00 
    9   -8   12     -0.70      0.00 
    8   -8   12     -0.38      0.00 
    7   -8   12      0.34      0.00 
    6   -8   12      1.15      0.00 
    5   -8   12      1.53      0.00 
    4   -8   12      1.11      0.00 
    3   -8   12      0.08      0.00 
    2   -8   12     -0.87      0.00 
    1   -8   12     -1.02      0.00 
    0   -8   12     -0.17      0.00 
   -1   -8   12      1.20      0.00 
   -2   -8   12      2.24      0.00 
   -3   -8   12      2.31      0.00 
   -4   -8   12      1.41      0.00 
   -5   -8   12      0.17      0.00 
   -6   -8   12     -0.67      0.00 
   -7   -8   12     -0.74      0.00 
   -8   -8   12     -0.23      0.00 
   -9   -8   12      0.37      0.00 
  -10   -8   12      0.64      0.00 
  -11   -8   12      0.45      0.00 
  -12   -8   12     -0.02      0.00 
  -13   -8   12     -0.43      0.00 
  -14   -8   12     -0.48      0.00 
    9   -9   12      0.57      0.00 
    8   -9   12      0.87      0.00 
    7   -9   12      0.95      0.00 
    6   -9   12      0.71      0.00 
    5   -9   12      0.19      0.00 
    4   -9   12     -0.38      0.00 
    3   -9   12     -0.68      0.00 
    2   -9   12     -0.50      0.00 
    1   -9   12      0.00      0.00 
    0   -9   12      0.34      0.00 
   -1   -9   12      0.11      0.00 
   -2   -9   12     -0.66      0.00 
   -3   -9   12     -1.47      0.00 
   -4   -9   12     -1.80      0.00 
   -5   -9   12     -1.44      0.00 
   -6   -9   12     -0.58      0.00 
   -7   -9   12      0.35      0.00 
   -8   -9   12      0.87      0.00 
   -9   -9   12      0.77      0.00 
  -10   -9   12      0.25      0.00 
  -11   -9   12     -0.24      0.00 
  -12   -9   12     -0.34      0.00 
  -13   -9   12     -0.11      0.00 
    8  -10   12     -0.81      0.00 
    7  -10   12     -1.52      0.00 
    6  -10   12     -1.88      0.00 
    5  -10   12     -1.52      0.00 
    4  -10   12     -0.50      0.00 
    3  -10   12      0.65      0.00 
    2  -10   12      1.29      0.00 
    1  -10   12      1.13      0.00 
    0  -10   12      0.46      0.00 
   -1  -10   12     -0.16      0.00 
   -2  -10   12     -0.32      0.00 
   -3  -10   12      0.01      0.00 
   -4  -10   12      0.58      0.00 
   -5  -10   12      1.03      0.00 
   -6  -10   12      1.07      0.00 
   -7  -10   12      0.66      0.00 
   -8  -10   12     -0.02      0.00 
   -9  -10   12     -0.60      0.00 
  -10  -10   12     -0.75      0.00 
  -11  -10   12     -0.47      0.00 
  -12  -10   12     -0.04      0.00 
  -13  -10   12      0.20      0.00 
    7  -11   12      0.80      0.00 
    6  -11   12      1.18      0.00 
    5  -11   12      0.97      0.00 
    4  -11   12      0.35      0.00 
    3  -11   12     -0.20      0.00 
    2  -11   12     -0.47      0.00 
    1  -11   12     -0.55      0.00 
    0  -11   12     -0.52      0.00 
   -1  -11   12     -0.30      0.00 
   -2  -11   12      0.06      0.00 
   -3  -11   12      0.29      0.00 
   -4  -11   12      0.15      0.00 
   -5  -11   12     -0.23      0.00 
   -6  -11   12     -0.54      0.00 
   -7  -11   12     -0.59      0.00 
   -8  -11   12     -0.44      0.00 
   -9  -11   12     -0.20      0.00 
  -10  -11   12      0.06      0.00 
  -11  -11   12      0.27      0.00 
  -12  -11   12      0.35      0.00 
    6  -12   12     -0.09      0.00 
    5  -12   12     -0.12      0.00 
    4  -12   12     -0.03      0.00 
    3  -12   12     -0.02      0.00 
    2  -12   12     -0.04      0.00 
    1  -12   12      0.16      0.00 
    0  -12   12      0.59      0.00 
   -1  -12   12      0.87      0.00 
   -2  -12   12      0.70      0.00 
   -3  -12   12      0.20      0.00 
   -4  -12   12     -0.21      0.00 
   -5  -12   12     -0.29      0.00 
   -6  -12   12     -0.13      0.00 
   -7  -12   12      0.05      0.00 
   -8  -12   12      0.18      0.00 
   -9  -12   12      0.28      0.00 
  -10  -12   12      0.33      0.00 
  -11  -12   12      0.26      0.00 
  -12  -12   12      0.08      0.00 
   -3  -13   12     -0.54      0.00 
   -4  -13   12     -0.11      0.00 
   -5  -13   12      0.52      0.00 
   -6  -13   12      0.91      0.00 
   -7  -13   12      0.85      0.00 
   -8  -13   12      0.55      0.00 
   -9  -13   12      0.31      0.00 
  -10  -13   12      0.26      0.00 
  -11  -13   12      0.27      0.00 
   -4  -14   12      0.19      0.00 
   -5  -14   12      0.14      0.00 
   -6  -14   12     -0.13      0.00 
   -7  -14   12     -0.28      0.00 
   -8  -14   12     -0.21      0.00 
   -9  -14   12     -0.12      0.00 
  -10  -14   12     -0.17      0.00 
   -4  -15   12     -0.19      0.00 
   -5  -15   12     -0.69      0.00 
   -6  -15   12     -0.90      0.00 
   -7  -15   12     -0.78      0.00 
   -8  -15   12     -0.55      0.00 
   -9  -15   12     -0.43      0.00 
   -5  -16   12      0.46      0.00 
    8   20   11      0.06      0.00 
    7   20   11     -0.14      0.00 
    6   20   11     -0.29      0.00 
    5   20   11     -0.36      0.00 
    4   20   11     -0.35      0.00 
    3   20   11     -0.31      0.00 
    2   20   11     -0.32      0.00 
    1   20   11     -0.37      0.00 
   10   19   11     -0.04      0.00 
    9   19   11      0.12      0.00 
    8   19   11      0.00      0.00 
    7   19   11     -0.21      0.00 
    6   19   11     -0.18      0.00 
    5   19   11      0.06      0.00 
    4   19   11      0.16      0.00 
    3   19   11      0.03      0.00 
    2   19   11     -0.07      0.00 
    1   19   11      0.09      0.00 
    0   19   11      0.31      0.00 
   -1   19   11      0.29      0.00 
   11   18   11      0.21      0.00 
   10   18   11     -0.21      0.00 
    9   18   11     -0.53      0.00 
    8   18   11     -0.49      0.00 
    7   18   11     -0.19      0.00 
    6   18   11      0.10      0.00 
    5   18   11      0.34      0.00 
    4   18   11      0.61      0.00 
    3   18   11      0.83      0.00 
    2   18   11      0.85      0.00 
    1   18   11      0.64      0.00 
    0   18   11      0.35      0.00 
   -1   18   11      0.05      0.00 
   -2   18   11     -0.25      0.00 
   -3   18   11     -0.45      0.00 
   12   17   11      0.01      0.00 
   11   17   11      0.31      0.00 
   10   17   11      0.44      0.00 
    9   17   11      0.44      0.00 
    8   17   11      0.45      0.00 
    7   17   11      0.46      0.00 
    6   17   11      0.30      0.00 
    5   17   11     -0.07      0.00 
    4   17   11     -0.43      0.00 
    3   17   11     -0.58      0.00 
    2   17   11     -0.54      0.00 
    1   17   11     -0.46      0.00 
    0   17   11     -0.34      0.00 
   -1   17   11     -0.09      0.00 
   -2   17   11      0.26      0.00 
   -3   17   11      0.47      0.00 
   -4   17   11      0.45      0.00 
   -5   17   11      0.31      0.00 
   13   16   11     -0.31      0.00 
   12   16   11     -0.57      0.00 
   11   16   11     -0.55      0.00 
   10   16   11     -0.30      0.00 
    9   16   11     -0.06      0.00 
    8   16   11      0.07      0.00 
    7   16   11      0.19      0.00 
    6   16   11      0.35      0.00 
    5   16   11      0.38      0.00 
    4   16   11      0.12      0.00 
    3   16   11     -0.33      0.00 
    2   16   11     -0.68      0.00 
    1   16   11     -0.77      0.00 
    0   16   11     -0.67      0.00 
   -1   16   11     -0.45      0.00 
   -2   16   11     -0.17      0.00 
   -3   16   11      0.10      0.00 
   -4   16   11      0.19      0.00 
   -5   16   11      0.10      0.00 
   -6   16   11     -0.02      0.00 
   14   15   11      0.94      0.00 
   13   15   11      1.22      0.00 
   12   15   11      1.07      0.00 
   11   15   11      0.54      0.00 
   10   15   11     -0.02      0.00 
    9   15   11     -0.41      0.00 
    8   15   11     -0.65      0.00 
    7   15   11     -0.85      0.00 
    6   15   11     -0.89      0.00 
    5   15   11     -0.61      0.00 
    4   15   11     -0.05      0.00 
    3   15   11      0.49      0.00 
    2   15   11      0.81      0.00 
    1   15   11      0.92      0.00 
    0   15   11      0.85      0.00 
   -1   15   11      0.59      0.00 
   -2   15   11      0.18      0.00 
   -3   15   11     -0.14      0.00 
   -4   15   11     -0.19      0.00 
   -5   15   11     -0.05      0.00 
   -6   15   11      0.05      0.00 
   -7   15   11      0.02      0.00 
   15   14   11     -0.52      0.00 
   14   14   11     -0.50      0.00 
   13   14   11     -0.17      0.00 
   12   14   11      0.24      0.00 
   11   14   11      0.47      0.00 
   10   14   11      0.43      0.00 
    9   14   11      0.28      0.00 
    8   14   11      0.16      0.00 
    7   14   11      0.06      0.00 
    6   14   11     -0.09      0.00 
    5   14   11     -0.28      0.00 
    4   14   11     -0.44      0.00 
    3   14   11     -0.50      0.00 
    2   14   11     -0.47      0.00 
    1   14   11     -0.36      0.00 
    0   14   11     -0.14      0.00 
   -1   14   11      0.15      0.00 
   -2   14   11      0.35      0.00 
   -3   14   11      0.41      0.00 
   -4   14   11      0.42      0.00 
   -5   14   11      0.46      0.00 
   -6   14   11      0.45      0.00 
   -7   14   11      0.25      0.00 
   -8   14   11     -0.01      0.00 
   15   13   11      0.21      0.00 
   14   13   11     -0.15      0.00 
   13   13   11     -0.62      0.00 
   12   13   11     -0.94      0.00 
   11   13   11     -1.00      0.00 
   10   13   11     -0.78      0.00 
    9   13   11     -0.29      0.00 
    8   13   11      0.40      0.00 
    7   13   11      1.07      0.00 
    6   13   11      1.50      0.00 
    5   13   11      1.56      0.00 
    4   13   11      1.29      0.00 
    3   13   11      0.84      0.00 
    2   13   11      0.41      0.00 
    1   13   11      0.13      0.00 
    0   13   11      0.01      0.00 
   -1   13   11     -0.03      0.00 
   -2   13   11     -0.13      0.00 
   -3   13   11     -0.38      0.00 
   -4   13   11     -0.76      0.00 
   -5   13   11     -1.04      0.00 
   -6   13   11     -1.01      0.00 
   -7   13   11     -0.74      0.00 
   -8   13   11     -0.49      0.00 
   -9   13   11     -0.42      0.00 
   14   12   11     -0.01      0.00 
   13   12   11     -0.10      0.00 
   12   12   11     -0.02      0.00 
   11   12   11      0.19      0.00 
   10   12   11      0.26      0.00 
    9   12   11      0.05      0.00 
    8   12   11     -0.34      0.00 
    7   12   11     -0.66      0.00 
    6   12   11     -0.79      0.00 
    5   12   11     -0.71      0.00 
    4   12   11     -0.38      0.00 
    3   12   11      0.20      0.00 
    2   12   11      0.84      0.00 
    1   12   11      1.16      0.00 
    0   12   11      0.95      0.00 
   -1   12   11      0.35      0.00 
   -2   12   11     -0.22      0.00 
   -3   12   11     -0.48      0.00 
   -4   12   11     -0.42      0.00 
   -5   12   11     -0.23      0.00 
   -6   12   11     -0.06      0.00 
   -7   12   11      0.07      0.00 
   -8   12   11      0.22      0.00 
   -9   12   11      0.33      0.00 
  -10   12   11      0.28      0.00 
   14   11   11      0.32      0.00 
   13   11   11      0.46      0.00 
   12   11   11      0.36      0.00 
   11   11   11      0.18      0.00 
   10   11   11      0.18      0.00 
    9   11   11      0.34      0.00 
    8   11   11      0.39      0.00 
    7   11   11      0.27      0.00 
    6   11   11      0.10      0.00 
    5   11   11     -0.07      0.00 
    4   11   11     -0.48      0.00 
    3   11   11     -1.27      0.00 
    2   11   11     -2.07      0.00 
    1   11   11     -2.31      0.00 
    0   11   11     -1.83      0.00 
   -1   11   11     -0.96      0.00 
   -2   11   11     -0.11      0.00 
   -3   11   11      0.61      0.00 
   -4   11   11      1.18      0.00 
   -5   11   11      1.45      0.00 
   -6   11   11      1.30      0.00 
   -7   11   11      0.89      0.00 
   -8   11   11      0.54      0.00 
   -9   11   11      0.42      0.00 
  -10   11   11      0.41      0.00 
  -11   11   11      0.30      0.00 
   13   10   11      0.23      0.00 
   12   10   11      0.23      0.00 
   11   10   11     -0.25      0.00 
   10   10   11     -0.76      0.00 
    9   10   11     -0.81      0.00 
    8   10   11     -0.34      0.00 
    7   10   11      0.27      0.00 
    6   10   11      0.62      0.00 
    5   10   11      0.62      0.00 
    4   10   11      0.41      0.00 
    3   10   11      0.19      0.00 
    2   10   11      0.08      0.00 
    1   10   11      0.08      0.00 
    0   10   11      0.13      0.00 
   -1   10   11      0.12      0.00 
   -2   10   11     -0.04      0.00 
   -3   10   11     -0.30      0.00 
   -4   10   11     -0.50      0.00 
   -5   10   11     -0.48      0.00 
   -6   10   11     -0.26      0.00 
   -7   10   11     -0.03      0.00 
   -8   10   11      0.03      0.00 
   -9   10   11     -0.04      0.00 
  -10   10   11     -0.11      0.00 
  -11   10   11     -0.05      0.00 
   13    9   11     -0.32      0.00 
   12    9   11     -0.16      0.00 
   11    9   11      0.48      0.00 
   10    9   11      1.09      0.00 
    9    9   11      1.24      0.00 
    8    9   11      0.82      0.00 
    7    9   11     -0.03      0.00 
    6    9   11     -1.07      0.00 
    5    9   11     -1.81      0.00 
    4    9   11     -1.65      0.00 
    3    9   11     -0.46      0.00 
    2    9   11      1.10      0.00 
    1    9   11      2.08      0.00 
    0    9   11      2.06      0.00 
   -1    9   11      1.42      0.00 
   -2    9   11      0.77      0.00 
   -3    9   11      0.36      0.00 
   -4    9   11      0.08      0.00 
   -5    9   11     -0.23      0.00 
   -6    9   11     -0.55      0.00 
   -7    9   11     -0.81      0.00 
   -8    9   11     -0.97      0.00 
   -9    9   11     -0.96      0.00 
  -10    9   11     -0.76      0.00 
  -11    9   11     -0.41      0.00 
  -12    9   11     -0.06      0.00 
   13    8   11     -0.12      0.00 
   12    8   11     -0.29      0.00 
   11    8   11     -0.35      0.00 
   10    8   11     -0.34      0.00 
    9    8   11     -0.42      0.00 
    8    8   11     -0.57      0.00 
    7    8   11     -0.46      0.00 
    6    8   11      0.11      0.00 
    5    8   11      0.80      0.00 
    4    8   11      0.97      0.00 
    3    8   11      0.36      0.00 
    2    8   11     -0.62      0.00 
    1    8   11     -1.33      0.00 
    0    8   11     -1.41      0.00 
   -1    8   11     -0.94      0.00 
   -2    8   11     -0.17      0.00 
   -3    8   11      0.58      0.00 
   -4    8   11      0.99      0.00 
   -5    8   11      0.96      0.00 
   -6    8   11      0.66      0.00 
   -7    8   11      0.37      0.00 
   -8    8   11      0.24      0.00 
   -9    8   11      0.25      0.00 
  -10    8   11      0.28      0.00 
  -11    8   11      0.26      0.00 
  -12    8   11      0.16      0.00 
  -13    8   11      0.02      0.00 
   16    7   11     -0.32      0.00 
   15    7   11     -0.22      0.00 
   14    7   11      0.01      0.00 
   13    7   11      0.17      0.00 
   12    7   11      0.02      0.00 
   11    7   11     -0.47      0.00 
   10    7   11     -1.11      0.00 
    9    7   11     -1.50      0.00 
    8    7   11     -1.36      0.00 
    7    7   11     -0.67      0.00 
    6    7   11      0.30      0.00 
    5    7   11      1.16      0.00 
    4    7   11      1.64      0.00 
    3    7   11      1.64      0.00 
    2    7   11      1.31      0.00 
    1    7   11      0.95      0.00 
    0    7   11      0.63      0.00 
   -1    7   11      0.15      0.00 
   -2    7   11     -0.69      0.00 
   -3    7   11     -1.67      0.00 
   -4    7   11     -2.29      0.00 
   -5    7   11     -2.21      0.00 
   -6    7   11     -1.53      0.00 
   -7    7   11     -0.58      0.00 
   -8    7   11      0.36      0.00 
   -9    7   11      0.98      0.00 
  -10    7   11      1.05      0.00 
  -11    7   11      0.58      0.00 
  -12    7   11      0.01      0.00 
  -13    7   11     -0.25      0.00 
   16    6   11      0.51      0.00 
   15    6   11      0.45      0.00 
   14    6   11      0.13      0.00 
   13    6   11     -0.18      0.00 
   12    6   11     -0.25      0.00 
   11    6   11     -0.01      0.00 
   10    6   11      0.53      0.00 
    9    6   11      1.12      0.00 
    8    6   11      1.32      0.00 
    7    6   11      0.67      0.00 
    6    6   11     -0.81      0.00 
    5    6   11     -2.41      0.00 
    4    6   11     -3.20      0.00 
    3    6   11     -2.68      0.00 
    2    6   11     -1.19      0.00 
    1    6   11      0.38      0.00 
    0    6   11      1.30      0.00 
   -1    6   11      1.37      0.00 
   -2    6   11      0.92      0.00 
   -3    6   11      0.39      0.00 
   -4    6   11      0.08      0.00 
   -5    6   11      0.07      0.00 
   -6    6   11      0.20      0.00 
   -7    6   11      0.16      0.00 
   -8    6   11     -0.21      0.00 
   -9    6   11     -0.69      0.00 
  -10    6   11     -0.88      0.00 
  -11    6   11     -0.61      0.00 
  -12    6   11     -0.19      0.00 
  -13    6   11      0.03      0.00 
   16    5   11     -0.04      0.00 
   15    5   11     -0.21      0.00 
   14    5   11     -0.35      0.00 
   13    5   11     -0.26      0.00 
   12    5   11      0.12      0.00 
   11    5   11      0.58      0.00 
   10    5   11      0.81      0.00 
    9    5   11      0.72      0.00 
    8    5   11      0.57      0.00 
    7    5   11      0.74      0.00 
    6    5   11      1.40      0.00 
    5    5   11      2.34      0.00 
    4    5   11      2.96      0.00 
    3    5   11      2.62      0.00 
    2    5   11      1.07      0.00 
    1    5   11     -1.17      0.00 
    0    5   11     -2.99      0.00 
   -1    5   11     -3.41      0.00 
   -2    5   11     -2.28      0.00 
   -3    5   11     -0.34      0.00 
   -4    5   11      1.32      0.00 
   -5    5   11      1.94      0.00 
   -6    5   11      1.52      0.00 
   -7    5   11      0.61      0.00 
   -8    5   11     -0.11      0.00 
   -9    5   11     -0.31      0.00 
  -10    5   11     -0.06      0.00 
  -11    5   11      0.30      0.00 
  -12    5   11      0.46      0.00 
  -13    5   11      0.38      0.00 
   16    4   11     -0.08      0.00 
   15    4   11      0.06      0.00 
   14    4   11      0.50      0.00 
   13    4   11      0.89      0.00 
   12    4   11      0.82      0.00 
   11    4   11      0.22      0.00 
   10    4   11     -0.51      0.00 
    9    4   11     -0.81      0.00 
    8    4   11     -0.41      0.00 
    7    4   11      0.46      0.00 
    6    4   11      1.21      0.00 
    5    4   11      1.25      0.00 
    4    4   11      0.42      0.00 
    3    4   11     -0.77      0.00 
    2    4   11     -1.49      0.00 
    1    4   11     -1.24      0.00 
    0    4   11     -0.22      0.00 
   -1    4   11      0.83      0.00 
   -2    4   11      1.25      0.00 
   -3    4   11      0.99      0.00 
   -4    4   11      0.46      0.00 
   -5    4   11      0.14      0.00 
   -6    4   11      0.28      0.00 
   -7    4   11      0.78      0.00 
   -8    4   11      1.34      0.00 
   -9    4   11      1.58      0.00 
  -10    4   11      1.26      0.00 
  -11    4   11      0.55      0.00 
  -12    4   11     -0.08      0.00 
  -13    4   11     -0.28      0.00 
  -14    4   11     -0.14      0.00 
   15    3   11     -0.26      0.00 
   14    3   11     -0.66      0.00 
   13    3   11     -1.03      0.00 
   12    3   11     -1.18      0.00 
   11    3   11     -0.93      0.00 
   10    3   11     -0.33      0.00 
    9    3   11      0.23      0.00 
    8    3   11      0.21      0.00 
    7    3   11     -0.65      0.00 
    6    3   11     -2.10      0.00 
    5    3   11     -3.40      0.00 
    4    3   11     -3.66      0.00 
    3    3   11     -2.29      0.00 
    2    3   11      0.38      0.00 
    1    3   11      3.09      0.00 
    0    3   11      4.43      0.00 
   -1    3   11      3.86      0.00 
   -2    3   11      2.02      0.00 
   -3    3   11      0.09      0.00 
   -4    3   11     -1.11      0.00 
   -5    3   11     -1.43      0.00 
   -6    3   11     -1.19      0.00 
   -7    3   11     -0.93      0.00 
   -8    3   11     -0.94      0.00 
   -9    3   11     -1.16      0.00 
  -10    3   11     -1.23      0.00 
  -11    3   11     -0.99      0.00 
  -12    3   11     -0.60      0.00 
  -13    3   11     -0.33      0.00 
  -14    3   11     -0.23      0.00 
   15    2   11     -0.17      0.00 
   14    2   11     -0.06      0.00 
   13    2   11      0.12      0.00 
   12    2   11      0.39      0.00 
   11    2   11      0.61      0.00 
   10    2   11      0.61      0.00 
    9    2   11      0.24      0.00 
    8    2   11     -0.46      0.00 
    7    2   11     -1.18      0.00 
    6    2   11     -1.32      0.00 
    5    2   11     -0.46      0.00 
    4    2   11      0.93      0.00 
    3    2   11      1.54      0.00 
    2    2   11      0.33      0.00 
    1    2   11     -2.32      0.00 
    0    2   11     -4.76      0.00 
   -1    2   11     -5.48      0.00 
   -2    2   11     -4.27      0.00 
   -3    2   11     -2.10      0.00 
   -4    2   11     -0.18      0.00 
   -5    2   11      0.78      0.00 
   -6    2   11      0.76      0.00 
   -7    2   11      0.20      0.00 
   -8    2   11     -0.28      0.00 
   -9    2   11     -0.38      0.00 
  -10    2   11     -0.20      0.00 
  -11    2   11     -0.09      0.00 
  -12    2   11     -0.20      0.00 
  -13    2   11     -0.38      0.00 
  -14    2   11     -0.38      0.00 
   15    1   11      0.50      0.00 
   14    1   11      1.02      0.00 
   13    1   11      1.22      0.00 
   12    1   11      0.89      0.00 
   11    1   11      0.17      0.00 
   10    1   11     -0.54      0.00 
    9    1   11     -0.83      0.00 
    8    1   11     -0.42      0.00 
    7    1   11      0.69      0.00 
    6    1   11      1.99      0.00 
    5    1   11      2.60      0.00 
    4    1   11      1.93      0.00 
    3    1   11      0.39      0.00 
    2    1   11     -0.80      0.00 
    1    1   11     -0.54      0.00 
    0    1   11      1.16      0.00 
   -1    1   11      3.22      0.00 
   -2    1   11      4.33      0.00 
   -3    1   11      3.90      0.00 
   -4    1   11      2.34      0.00 
   -5    1   11      0.61      0.00 
   -6    1   11     -0.55      0.00 
   -7    1   11     -0.95      0.00 
   -8    1   11     -0.78      0.00 
   -9    1   11     -0.36      0.00 
  -10    1   11      0.03      0.00 
  -11    1   11      0.28      0.00 
  -12    1   11      0.43      0.00 
  -13    1   11      0.55      0.00 
  -14    1   11      0.58      0.00 
  -15    1   11      0.39      0.00 
   14    0   11     -0.56      0.00 
   13    0   11     -0.92      0.00 
   12    0   11     -0.90      0.00 
   11    0   11     -0.40      0.00 
   10    0   11      0.43      0.00 
    9    0   11      1.32      0.00 
    8    0   11      1.90      0.00 
    7    0   11      1.79      0.00 
    6    0   11      0.84      0.00 
    5    0   11     -0.48      0.00 
    4    0   11     -1.19      0.00 
    3    0   11     -0.50      0.00 
    2    0   11      1.38      0.00 
    1    0   11      3.15      0.00 
    0    0   11      3.41      0.00 
   -1    0   11      1.78      0.00 
   -2    0   11     -0.74      0.00 
   -3    0   11     -2.62      0.00 
   -4    0   11     -2.94      0.00 
   -5    0   11     -1.84      0.00 
   -6    0   11     -0.24      0.00 
   -7    0   11      0.96      0.00 
   -8    0   11      1.30      0.00 
   -9    0   11      0.91      0.00 
  -10    0   11      0.25      0.00 
  -11    0   11     -0.21      0.00 
  -12    0   11     -0.30      0.00 
  -13    0   11     -0.19      0.00 
  -14    0   11     -0.08      0.00 
  -15    0   11     -0.02      0.00 
   14   -1   11     -0.28      0.00 
   13   -1   11     -0.27      0.00 
   12   -1   11     -0.13      0.00 
   11   -1   11      0.01      0.00 
   10   -1   11     -0.05      0.00 
    9   -1   11     -0.50      0.00 
    8   -1   11     -1.29      0.00 
    7   -1   11     -2.03      0.00 
    6   -1   11     -2.07      0.00 
    5   -1   11     -1.00      0.00 
    4   -1   11      0.73      0.00 
    3   -1   11      1.95      0.00 
    2   -1   11      1.60      0.00 
    1   -1   11     -0.42      0.00 
    0   -1   11     -3.06      0.00 
   -1   -1   11     -4.81      0.00 
   -2   -1   11     -4.74      0.00 
   -3   -1   11     -3.04      0.00 
   -4   -1   11     -0.85      0.00 
   -5   -1   11      0.54      0.00 
   -6   -1   11      0.65      0.00 
   -7   -1   11      0.00      0.00 
   -8   -1   11     -0.46      0.00 
   -9   -1   11     -0.19      0.00 
  -10   -1   11      0.54      0.00 
  -11   -1   11      1.13      0.00 
  -12   -1   11      1.20      0.00 
  -13   -1   11      0.85      0.00 
  -14   -1   11      0.45      0.00 
  -15   -1   11      0.22      0.00 
   13   -2   11      0.50      0.00 
   12   -2   11      0.52      0.00 
   11   -2   11      0.13      0.00 
   10   -2   11     -0.47      0.00 
    9   -2   11     -0.98      0.00 
    8   -2   11     -1.13      0.00 
    7   -2   11     -0.78      0.00 
    6   -2   11     -0.20      0.00 
    5   -2   11     -0.05      0.00 
    4   -2   11     -1.00      0.00 
    3   -2   11     -2.83      0.00 
    2   -2   11     -4.22      0.00 
    1   -2   11     -3.67      0.00 
    0   -2   11     -0.82      0.00 
   -1   -2   11      3.11      0.00 
   -2   -2   11      6.13      0.00 
   -3   -2   11      6.89      0.00 
   -4   -2   11      5.43      0.00 
   -5   -2   11      2.85      0.00 
   -6   -2   11      0.45      0.00 
   -7   -2   11     -0.89      0.00 
   -8   -2   11     -1.10      0.00 
   -9   -2   11     -0.72      0.00 
  -10   -2   11     -0.49      0.00 
  -11   -2   11     -0.72      0.00 
  -12   -2   11     -1.08      0.00 
  -13   -2   11     -1.09      0.00 
  -14   -2   11     -0.67      0.00 
  -15   -2   11     -0.22      0.00 
   13   -3   11     -0.47      0.00 
   12   -3   11     -0.79      0.00 
   11   -3   11     -0.58      0.00 
   10   -3   11      0.23      0.00 
    9   -3   11      1.38      0.00 
    8   -3   11      2.41      0.00 
    7   -3   11      2.88      0.00 
    6   -3   11      2.48      0.00 
    5   -3   11      1.45      0.00 
    4   -3   11      0.60      0.00 
    3   -3   11      0.66      0.00 
    2   -3   11      1.53      0.00 
    1   -3   11      2.14      0.00 
    0   -3   11      1.38      0.00 
   -1   -3   11     -0.88      0.00 
   -2   -3   11     -3.66      0.00 
   -3   -3   11     -5.60      0.00 
   -4   -3   11     -5.89      0.00 
   -5   -3   11     -4.55      0.00 
   -6   -3   11     -2.24      0.00 
   -7   -3   11      0.00      0.00 
   -8   -3   11      1.26      0.00 
   -9   -3   11      1.24      0.00 
  -10   -3   11      0.53      0.00 
  -11   -3   11     -0.04      0.00 
  -12   -3   11     -0.12      0.00 
  -13   -3   11      0.00      0.00 
  -14   -3   11     -0.04      0.00 
  -15   -3   11     -0.22      0.00 
   12   -4   11      1.10      0.00 
   11   -4   11      1.18      0.00 
   10   -4   11      0.74      0.00 
    9   -4   11     -0.20      0.00 
    8   -4   11     -1.39      0.00 
    7   -4   11     -2.40      0.00 
    6   -4   11     -2.78      0.00 
    5   -4   11     -2.18      0.00 
    4   -4   11     -0.67      0.00 
    3   -4   11      1.10      0.00 
    2   -4   11      2.12      0.00 
    1   -4   11      1.80      0.00 
    0   -4   11      0.56      0.00 
   -1   -4   11     -0.38      0.00 
   -2   -4   11     -0.09      0.00 
   -3   -4   11      1.31      0.00 
   -4   -4   11      2.85      0.00 
   -5   -4   11      3.55      0.00 
   -6   -4   11      3.15      0.00 
   -7   -4   11      2.04      0.00 
   -8   -4   11      0.86      0.00 
   -9   -4   11      0.11      0.00 
  -10   -4   11     -0.09      0.00 
  -11   -4   11      0.08      0.00 
  -12   -4   11      0.36      0.00 
  -13   -4   11      0.57      0.00 
  -14   -4   11      0.64      0.00 
  -15   -4   11      0.57      0.00 
   12   -5   11     -0.31      0.00 
   11   -5   11     -0.53      0.00 
   10   -5   11     -0.73      0.00 
    9   -5   11     -0.69      0.00 
    8   -5   11     -0.24      0.00 
    7   -5   11      0.59      0.00 
    6   -5   11      1.50      0.00 
    5   -5   11      1.91      0.00 
    4   -5   11      1.32      0.00 
    3   -5   11     -0.22      0.00 
    2   -5   11     -1.80      0.00 
    1   -5   11     -2.20      0.00 
    0   -5   11     -0.89      0.00 
   -1   -5   11      1.44      0.00 
   -2   -5   11      3.37      0.00 
   -3   -5   11      3.78      0.00 
   -4   -5   11      2.64      0.00 
   -5   -5   11      0.76      0.00 
   -6   -5   11     -0.88      0.00 
   -7   -5   11     -1.68      0.00 
   -8   -5   11     -1.58      0.00 
   -9   -5   11     -0.97      0.00 
  -10   -5   11     -0.32      0.00 
  -11   -5   11      0.01      0.00 
  -12   -5   11      0.01      0.00 
  -13   -5   11     -0.14      0.00 
  -14   -5   11     -0.20      0.00 
  -15   -5   11     -0.12      0.00 
   11   -6   11     -0.37      0.00 
   10   -6   11      0.10      0.00 
    9   -6   11      0.70      0.00 
    8   -6   11      1.07      0.00 
    7   -6   11      0.96      0.00 
    6   -6   11      0.42      0.00 
    5   -6   11     -0.27      0.00 
    4   -6   11     -0.70      0.00 
    3   -6   11     -0.61      0.00 
    2   -6   11     -0.03      0.00 
    1   -6   11      0.55      0.00 
    0   -6   11      0.43      0.00 
   -1   -6   11     -0.80      0.00 
   -2   -6   11     -2.80      0.00 
   -3   -6   11     -4.52      0.00 
   -4   -6   11     -4.91      0.00 
   -5   -6   11     -3.75      0.00 
   -6   -6   11     -1.79      0.00 
   -7   -6   11     -0.08      0.00 
   -8   -6   11      0.76      0.00 
   -9   -6   11      0.75      0.00 
  -10   -6   11      0.30      0.00 
  -11   -6   11     -0.22      0.00 
  -12   -6   11     -0.55      0.00 
  -13   -6   11     -0.58      0.00 
  -14   -6   11     -0.40      0.00 
  -15   -6   11     -0.23      0.00 
   11   -7   11      0.56      0.00 
   10   -7   11      0.54      0.00 
    9   -7   11      0.10      0.00 
    8   -7   11     -0.61      0.00 
    7   -7   11     -1.29      0.00 
    6   -7   11     -1.63      0.00 
    5   -7   11     -1.34      0.00 
    4   -7   11     -0.39      0.00 
    3   -7   11      0.75      0.00 
    2   -7   11      1.35      0.00 
    1   -7   11      0.96      0.00 
    0   -7   11     -0.07      0.00 
   -1   -7   11     -0.78      0.00 
   -2   -7   11     -0.50      0.00 
   -3   -7   11      0.62      0.00 
   -4   -7   11      1.73      0.00 
   -5   -7   11      2.04      0.00 
   -6   -7   11      1.40      0.00 
   -7   -7   11      0.28      0.00 
   -8   -7   11     -0.69      0.00 
   -9   -7   11     -1.12      0.00 
  -10   -7   11     -0.96      0.00 
  -11   -7   11     -0.39      0.00 
  -12   -7   11      0.24      0.00 
  -13   -7   11      0.60      0.00 
  -14   -7   11      0.54      0.00 
   10   -8   11     -0.76      0.00 
    9   -8   11     -1.01      0.00 
    8   -8   11     -0.81      0.00 
    7   -8   11     -0.17      0.00 
    6   -8   11      0.63      0.00 
    5   -8   11      1.09      0.00 
    4   -8   11      0.83      0.00 
    3   -8   11     -0.03      0.00 
    2   -8   11     -0.95      0.00 
    1   -8   11     -1.26      0.00 
    0   -8   11     -0.63      0.00 
   -1   -8   11      0.68      0.00 
   -2   -8   11      2.00      0.00 
   -3   -8   11      2.60      0.00 
   -4   -8   11      2.19      0.00 
   -5   -8   11      1.07      0.00 
   -6   -8   11      0.01      0.00 
   -7   -8   11     -0.40      0.00 
   -8   -8   11     -0.10      0.00 
   -9   -8   11      0.48      0.00 
  -10   -8   11      0.79      0.00 
  -11   -8   11      0.64      0.00 
  -12   -8   11      0.18      0.00 
  -13   -8   11     -0.25      0.00 
  -14   -8   11     -0.39      0.00 
    9   -9   11      0.58      0.00 
    8   -9   11      1.23      0.00 
    7   -9   11      1.48      0.00 
    6   -9   11      1.15      0.00 
    5   -9   11      0.41      0.00 
    4   -9   11     -0.39      0.00 
    3   -9   11     -0.89      0.00 
    2   -9   11     -0.85      0.00 
    1   -9   11     -0.36      0.00 
    0   -9   11      0.09      0.00 
   -1   -9   11     -0.09      0.00 
   -2   -9   11     -1.02      0.00 
   -3   -9   11     -2.16      0.00 
   -4   -9   11     -2.69      0.00 
   -5   -9   11     -2.25      0.00 
   -6   -9   11     -1.15      0.00 
   -7   -9   11     -0.02      0.00 
   -8   -9   11      0.70      0.00 
   -9   -9   11      0.88      0.00 
  -10   -9   11      0.66      0.00 
  -11   -9   11      0.26      0.00 
  -12   -9   11     -0.02      0.00 
  -13   -9   11     -0.01      0.00 
  -14   -9   11      0.19      0.00 
    9  -10   11      0.12      0.00 
    8  -10   11     -0.63      0.00 
    7  -10   11     -1.36      0.00 
    6  -10   11     -1.59      0.00 
    5  -10   11     -1.16      0.00 
    4  -10   11     -0.37      0.00 
    3  -10   11      0.37      0.00 
    2  -10   11      0.78      0.00 
    1  -10   11      0.79      0.00 
    0  -10   11      0.47      0.00 
   -1  -10   11      0.05      0.00 
   -2  -10   11     -0.12      0.00 
   -3  -10   11      0.12      0.00 
   -4  -10   11      0.57      0.00 
   -5  -10   11      0.84      0.00 
   -6  -10   11      0.68      0.00 
   -7  -10   11      0.19      0.00 
   -8  -10   11     -0.41      0.00 
   -9  -10   11     -0.86      0.00 
  -10  -10   11     -1.02      0.00 
  -11  -10   11     -0.80      0.00 
  -12  -10   11     -0.34      0.00 
  -13  -10   11      0.06      0.00 
    8  -11   11     -0.08      0.00 
    7  -11   11      0.41      0.00 
    6  -11   11      0.83      0.00 
    5  -11   11      0.85      0.00 
    4  -11   11      0.59      0.00 
    3  -11   11      0.30      0.00 
    2  -11   11      0.02      0.00 
    1  -11   11     -0.34      0.00 
    0  -11   11     -0.58      0.00 
   -1  -11   11     -0.41      0.00 
   -2  -11   11      0.12      0.00 
   -3  -11   11      0.54      0.00 
   -4  -11   11      0.47      0.00 
   -5  -11   11      0.10      0.00 
   -6  -11   11     -0.10      0.00 
   -7  -11   11      0.04      0.00 
   -8  -11   11      0.29      0.00 
   -9  -11   11      0.34      0.00 
  -10  -11   11      0.20      0.00 
  -11  -11   11      0.09      0.00 
  -12  -11   11      0.11      0.00 
  -13  -11   11      0.17      0.00 
    7  -12   11      0.18      0.00 
    6  -12   11     -0.01      0.00 
    5  -12   11     -0.11      0.00 
    4  -12   11     -0.02      0.00 
    3  -12   11      0.20      0.00 
    2  -12   11      0.43      0.00 
    1  -12   11      0.61      0.00 
    0  -12   11      0.71      0.00 
   -1  -12   11      0.67      0.00 
   -2  -12   11      0.44      0.00 
   -3  -12   11      0.08      0.00 
   -4  -12   11     -0.27      0.00 
   -5  -12   11     -0.46      0.00 
   -6  -12   11     -0.46      0.00 
   -7  -12   11     -0.37      0.00 
   -8  -12   11     -0.27      0.00 
   -9  -12   11     -0.20      0.00 
  -10  -12   11     -0.13      0.00 
  -11  -12   11     -0.03      0.00 
  -12  -12   11      0.04      0.00 
   -2  -13   11      0.11      0.00 
   -3  -13   11     -0.34      0.00 
   -4  -13   11     -0.20      0.00 
   -5  -13   11      0.43      0.00 
   -6  -13   11      0.89      0.00 
   -7  -13   11      0.75      0.00 
   -8  -13   11      0.25      0.00 
   -9  -13   11     -0.07      0.00 
  -10  -13   11      0.00      0.00 
  -11  -13   11      0.22      0.00 
   -3  -14   11      0.38      0.00 
   -4  -14   11      0.74      0.00 
   -5  -14   11      0.67      0.00 
   -6  -14   11      0.45      0.00 
   -7  -14   11      0.42      0.00 
   -8  -14   11      0.65      0.00 
   -9  -14   11      0.90      0.00 
  -10  -14   11      0.92      0.00 
   -3  -15   11     -0.85      0.00 
   -4  -15   11     -0.92      0.00 
   -5  -15   11     -0.94      0.00 
   -6  -15   11     -0.82      0.00 
   -7  -15   11     -0.57      0.00 
   -8  -15   11     -0.38      0.00 
   -9  -15   11     -0.38      0.00 
   -4  -16   11      0.20      0.00 
   -5  -16   11      0.01      0.00 
   -6  -16   11     -0.24      0.00 
   -7  -16   11     -0.47      0.00 
   -8  -16   11     -0.57      0.00 
    9   20   10      0.17      0.00 
    8   20   10      0.27      0.00 
    7   20   10      0.26      0.00 
    6   20   10      0.12      0.00 
    5   20   10     -0.07      0.00 
    4   20   10     -0.16      0.00 
    3   20   10     -0.14      0.00 
    2   20   10     -0.15      0.00 
    1   20   10     -0.27      0.00 
    9   19   10      0.14      0.00 
    8   19   10     -0.15      0.00 
    7   19   10     -0.48      0.00 
    6   19   10     -0.50      0.00 
    5   19   10     -0.26      0.00 
    4   19   10     -0.10      0.00 
    3   19   10     -0.18      0.00 
    2   19   10     -0.31      0.00 
    1   19   10     -0.27      0.00 
    0   19   10     -0.12      0.00 
   -1   19   10     -0.01      0.00 
   11   18   10     -0.15      0.00 
   10   18   10     -0.31      0.00 
    9   18   10     -0.32      0.00 
    8   18   10     -0.15      0.00 
    7   18   10      0.00      0.00 
    6   18   10      0.06      0.00 
    5   18   10      0.12      0.00 
    4   18   10      0.26      0.00 
    3   18   10      0.35      0.00 
    2   18   10      0.27      0.00 
    1   18   10      0.13      0.00 
    0   18   10     -0.02      0.00 
   -1   18   10     -0.24      0.00 
   -2   18   10     -0.56      0.00 
   -3   18   10     -0.79      0.00 
   -4   18   10     -0.70      0.00 
   13   17   10      0.06      0.00 
   12   17   10      0.11      0.00 
   11   17   10      0.10      0.00 
   10   17   10     -0.05      0.00 
    9   17   10     -0.24      0.00 
    8   17   10     -0.25      0.00 
    7   17   10     -0.03      0.00 
    6   17   10      0.20      0.00 
    5   17   10      0.24      0.00 
    4   17   10      0.14      0.00 
    3   17   10      0.10      0.00 
    2   17   10      0.16      0.00 
    1   17   10      0.25      0.00 
    0   17   10      0.32      0.00 
   -1   17   10      0.34      0.00 
   -2   17   10      0.28      0.00 
   -3   17   10      0.11      0.00 
   -4   17   10     -0.07      0.00 
   -5   17   10     -0.13      0.00 
   14   16   10     -0.26      0.00 
   13   16   10     -0.29      0.00 
   12   16   10     -0.09      0.00 
   11   16   10      0.30      0.00 
   10   16   10      0.59      0.00 
    9   16   10      0.55      0.00 
    8   16   10      0.24      0.00 
    7   16   10     -0.07      0.00 
    6   16   10     -0.28      0.00 
    5   16   10     -0.46      0.00 
    4   16   10     -0.66      0.00 
    3   16   10     -0.79      0.00 
    2   16   10     -0.76      0.00 
    1   16   10     -0.62      0.00 
    0   16   10     -0.42      0.00 
   -1   16   10     -0.15      0.00 
   -2   16   10      0.20      0.00 
   -3   16   10      0.44      0.00 
   -4   16   10      0.36      0.00 
   -5   16   10      0.06      0.00 
   -6   16   10     -0.13      0.00 
   14   15   10      0.10      0.00 
   13   15   10      0.07      0.00 
   12   15   10     -0.07      0.00 
   11   15   10     -0.19      0.00 
   10   15   10     -0.11      0.00 
    9   15   10      0.20      0.00 
    8   15   10      0.53      0.00 
    7   15   10      0.68      0.00 
    6   15   10      0.67      0.00 
    5   15   10      0.62      0.00 
    4   15   10      0.56      0.00 
    3   15   10      0.42      0.00 
    2   15   10      0.18      0.00 
    1   15   10     -0.09      0.00 
    0   15   10     -0.33      0.00 
   -1   15   10     -0.55      0.00 
   -2   15   10     -0.68      0.00 
   -3   15   10     -0.60      0.00 
   -4   15   10     -0.34      0.00 
   -5   15   10     -0.04      0.00 
   -6   15   10      0.13      0.00 
   -7   15   10      0.19      0.00 
   15   14   10      0.12      0.00 
   14   14   10      0.52      0.00 
   13   14   10      0.85      0.00 
   12   14   10      0.80      0.00 
   11   14   10      0.32      0.00 
   10   14   10     -0.35      0.00 
    9   14   10     -0.87      0.00 
    8   14   10     -1.08      0.00 
    7   14   10     -0.99      0.00 
    6   14   10     -0.69      0.00 
    5   14   10     -0.25      0.00 
    4   14   10      0.25      0.00 
    3   14   10      0.61      0.00 
    2   14   10      0.70      0.00 
    1   14   10      0.60      0.00 
    0   14   10      0.51      0.00 
   -1   14   10      0.51      0.00 
   -2   14   10      0.49      0.00 
   -3   14   10      0.45      0.00 
   -4   14   10      0.49      0.00 
   -5   14   10      0.61      0.00 
   -6   14   10      0.60      0.00 
   -7   14   10      0.34      0.00 
   -8   14   10      0.03      0.00 
   15   13   10      0.19      0.00 
   14   13   10      0.08      0.00 
   13   13   10      0.01      0.00 
   12   13   10      0.01      0.00 
   11   13   10      0.03      0.00 
   10   13   10      0.08      0.00 
    9   13   10      0.16      0.00 
    8   13   10      0.24      0.00 
    7   13   10      0.17      0.00 
    6   13   10     -0.11      0.00 
    5   13   10     -0.53      0.00 
    4   13   10     -0.89      0.00 
    3   13   10     -1.03      0.00 
    2   13   10     -0.86      0.00 
    1   13   10     -0.42      0.00 
    0   13   10      0.18      0.00 
   -1   13   10      0.73      0.00 
   -2   13   10      0.98      0.00 
   -3   13   10      0.84      0.00 
   -4   13   10      0.41      0.00 
   -5   13   10     -0.02      0.00 
   -6   13   10     -0.22      0.00 
   -7   13   10     -0.28      0.00 
   -8   13   10     -0.36      0.00 
   -9   13   10     -0.49      0.00 
   14   12   10     -0.92      0.00 
   13   12   10     -1.12      0.00 
   12   12   10     -0.92      0.00 
   11   12   10     -0.41      0.00 
   10   12   10      0.07      0.00 
    9   12   10      0.32      0.00 
    8   12   10      0.45      0.00 
    7   12   10      0.61      0.00 
    6   12   10      0.76      0.00 
    5   12   10      0.82      0.00 
    4   12   10      0.82      0.00 
    3   12   10      0.82      0.00 
    2   12   10      0.71      0.00 
    1   12   10      0.31      0.00 
    0   12   10     -0.36      0.00 
   -1   12   10     -1.05      0.00 
   -2   12   10     -1.46      0.00 
   -3   12   10     -1.48      0.00 
   -4   12   10     -1.23      0.00 
   -5   12   10     -0.90      0.00 
   -6   12   10     -0.60      0.00 
   -7   12   10     -0.36      0.00 
   -8   12   10     -0.17      0.00 
   -9   12   10     -0.06      0.00 
  -10   12   10     -0.02      0.00 
   14   11   10      0.47      0.00 
   13   11   10      0.40      0.00 
   12   11   10      0.24      0.00 
   11   11   10      0.01      0.00 
   10   11   10     -0.24      0.00 
    9   11   10     -0.53      0.00 
    8   11   10     -0.79      0.00 
    7   11   10     -0.78      0.00 
    6   11   10     -0.32      0.00 
    5   11   10      0.39      0.00 
    4   11   10      0.85      0.00 
    3   11   10      0.77      0.00 
    2   11   10      0.37      0.00 
    1   11   10      0.09      0.00 
    0   11   10      0.09      0.00 
   -1   11   10      0.17      0.00 
   -2   11   10      0.16      0.00 
   -3   11   10      0.10      0.00 
   -4   11   10      0.05      0.00 
   -5   11   10     -0.02      0.00 
   -6   11   10     -0.16      0.00 
   -7   11   10     -0.26      0.00 
   -8   11   10     -0.13      0.00 
   -9   11   10      0.18      0.00 
  -10   11   10      0.40      0.00 
  -11   11   10      0.35      0.00 
   13   10   10      0.81      0.00 
   12   10   10      0.56      0.00 
   11   10   10      0.06      0.00 
   10   10   10     -0.14      0.00 
    9   10   10      0.19      0.00 
    8   10   10      0.74      0.00 
    7   10   10      1.00      0.00 
    6   10   10      0.71      0.00 
    5   10   10     -0.05      0.00 
    4   10   10     -0.98      0.00 
    3   10   10     -1.70      0.00 
    2   10   10     -1.82      0.00 
    1   10   10     -1.19      0.00 
    0   10   10     -0.08      0.00 
   -1   10   10      0.91      0.00 
   -2   10   10      1.36      0.00 
   -3   10   10      1.27      0.00 
   -4   10   10      1.02      0.00 
   -5   10   10      0.90      0.00 
   -6   10   10      0.95      0.00 
   -7   10   10      1.01      0.00 
   -8   10   10      0.94      0.00 
   -9   10   10      0.70      0.00 
  -10   10   10      0.39      0.00 
  -11   10   10      0.10      0.00 
  -12   10   10     -0.09      0.00 
   13    9   10     -0.56      0.00 
   12    9   10     -0.23      0.00 
   11    9   10      0.15      0.00 
   10    9   10      0.47      0.00 
    9    9   10      0.75      0.00 
    8    9   10      0.99      0.00 
    7    9   10      0.97      0.00 
    6    9   10      0.57      0.00 
    5    9   10      0.08      0.00 
    4    9   10      0.03      0.00 
    3    9   10      0.48      0.00 
    2    9   10      0.85      0.00 
    1    9   10      0.55      0.00 
    0    9   10     -0.33      0.00 
   -1    9   10     -1.17      0.00 
   -2    9   10     -1.43      0.00 
   -3    9   10     -1.11      0.00 
   -4    9   10     -0.53      0.00 
   -5    9   10     -0.04      0.00 
   -6    9   10      0.22      0.00 
   -7    9   10      0.19      0.00 
   -8    9   10     -0.07      0.00 
   -9    9   10     -0.40      0.00 
  -10    9   10     -0.58      0.00 
  -11    9   10     -0.49      0.00 
  -12    9   10     -0.23      0.00 
   15    8   10     -0.24      0.00 
   14    8   10     -0.36      0.00 
   13    8   10     -0.37      0.00 
   12    8   10     -0.10      0.00 
   11    8   10      0.33      0.00 
   10    8   10      0.48      0.00 
    9    8   10     -0.06      0.00 
    8    8   10     -1.13      0.00 
    7    8   10     -2.08      0.00 
    6    8   10     -2.35      0.00 
    5    8   10     -1.93      0.00 
    4    8   10     -1.20      0.00 
    3    8   10     -0.46      0.00 
    2    8   10      0.20      0.00 
    1    8   10      0.72      0.00 
    0    8   10      0.99      0.00 
   -1    8   10      1.09      0.00 
   -2    8   10      1.14      0.00 
   -3    8   10      1.13      0.00 
   -4    8   10      0.83      0.00 
   -5    8   10      0.14      0.00 
   -6    8   10     -0.71      0.00 
   -7    8   10     -1.33      0.00 
   -8    8   10     -1.47      0.00 
   -9    8   10     -1.13      0.00 
  -10    8   10     -0.50      0.00 
  -11    8   10      0.10      0.00 
  -12    8   10      0.42      0.00 
  -13    8   10      0.41      0.00 
   16    7   10      0.10      0.00 
   15    7   10      0.51      0.00 
   14    7   10      0.80      0.00 
   13    7   10      0.62      0.00 
   12    7   10     -0.04      0.00 
   11    7   10     -0.83      0.00 
   10    7   10     -1.38      0.00 
    9    7   10     -1.39      0.00 
    8    7   10     -0.78      0.00 
    7    7   10      0.24      0.00 
    6    7   10      1.18      0.00 
    5    7   10      1.44      0.00 
    4    7   10      0.74      0.00 
    3    7   10     -0.53      0.00 
    2    7   10     -1.53      0.00 
    1    7   10     -1.57      0.00 
    0    7   10     -0.74      0.00 
   -1    7   10      0.20      0.00 
   -2    7   10      0.55      0.00 
   -3    7   10      0.26      0.00 
   -4    7   10     -0.16      0.00 
   -5    7   10     -0.28      0.00 
   -6    7   10     -0.03      0.00 
   -7    7   10      0.41      0.00 
   -8    7   10      0.83      0.00 
   -9    7   10      0.98      0.00 
  -10    7   10      0.76      0.00 
  -11    7   10      0.33      0.00 
  -12    7   10      0.02      0.00 
  -13    7   10     -0.02      0.00 
   16    6   10      0.44      0.00 
   15    6   10      0.46      0.00 
   14    6   10      0.31      0.00 
   13    6   10      0.14      0.00 
   12    6   10     -0.02      0.00 
   11    6   10     -0.11      0.00 
   10    6   10     -0.02      0.00 
    9    6   10      0.23      0.00 
    8    6   10      0.35      0.00 
    7    6   10      0.04      0.00 
    6    6   10     -0.54      0.00 
    5    6   10     -0.75      0.00 
    4    6   10     -0.06      0.00 
    3    6   10      1.37      0.00 
    2    6   10      2.71      0.00 
    1    6   10      3.06      0.00 
    0    6   10      2.11      0.00 
   -1    6   10      0.33      0.00 
   -2    6   10     -1.45      0.00 
   -3    6   10     -2.50      0.00 
   -4    6   10     -2.51      0.00 
   -5    6   10     -1.62      0.00 
   -6    6   10     -0.36      0.00 
   -7    6   10      0.61      0.00 
   -8    6   10      0.93      0.00 
   -9    6   10      0.67      0.00 
  -10    6   10      0.22      0.00 
  -11    6   10     -0.16      0.00 
  -12    6   10     -0.39      0.00 
  -13    6   10     -0.48      0.00 
   16    5   10     -0.15      0.00 
   15    5   10     -0.55      0.00 
   14    5   10     -0.86      0.00 
   13    5   10     -0.69      0.00 
   12    5   10      0.06      0.00 
   11    5   10      0.97      0.00 
   10    5   10      1.45      0.00 
    9    5   10      1.25      0.00 
    8    5   10      0.62      0.00 
    7    5   10      0.06      0.00 
    6    5   10     -0.03      0.00 
    5    5   10      0.48      0.00 
    4    5   10      1.29      0.00 
    3    5   10      1.75      0.00 
    2    5   10      1.40      0.00 
    1    5   10      0.38      0.00 
    0    5   10     -0.56      0.00 
   -1    5   10     -0.74      0.00 
   -2    5   10     -0.14      0.00 
   -3    5   10      0.58      0.00 
   -4    5   10      0.76      0.00 
   -5    5   10      0.20      0.00 
   -6    5   10     -0.79      0.00 
   -7    5   10     -1.68      0.00 
   -8    5   10     -2.03      0.00 
   -9    5   10     -1.67      0.00 
  -10    5   10     -0.78      0.00 
  -11    5   10      0.13      0.00 
  -12    5   10      0.55      0.00 
  -13    5   10      0.41      0.00 
  -14    5   10      0.03      0.00 
   16    4   10      0.14      0.00 
   15    4   10      0.43      0.00 
   14    4   10      0.65      0.00 
   13    4   10      0.52      0.00 
   12    4   10     -0.03      0.00 
   11    4   10     -0.73      0.00 
   10    4   10     -1.17      0.00 
    9    4   10     -0.95      0.00 
    8    4   10      0.03      0.00 
    7    4   10      1.52      0.00 
    6    4   10      2.77      0.00 
    5    4   10      2.74      0.00 
    4    4   10      0.86      0.00 
    3    4   10     -2.31      0.00 
    2    4   10     -5.19      0.00 
    1    4   10     -6.23      0.00 
    0    4   10     -5.02      0.00 
   -1    4   10     -2.44      0.00 
   -2    4   10      0.14      0.00 
   -3    4   10      1.88      0.00 
   -4    4   10      2.63      0.00 
   -5    4   10      2.65      0.00 
   -6    4   10      2.35      0.00 
   -7    4   10      2.05      0.00 
   -8    4   10      1.84      0.00 
   -9    4   10      1.52      0.00 
  -10    4   10      0.93      0.00 
  -11    4   10      0.30      0.00 
  -12    4   10      0.03      0.00 
  -13    4   10      0.23      0.00 
  -14    4   10      0.51      0.00 
   16    3   10     -0.15      0.00 
   15    3   10     -0.35      0.00 
   14    3   10     -0.50      0.00 
   13    3   10     -0.55      0.00 
   12    3   10     -0.54      0.00 
   11    3   10     -0.47      0.00 
   10    3   10     -0.29      0.00 
    9    3   10     -0.01      0.00 
    8    3   10      0.08      0.00 
    7    3   10     -0.42      0.00 
    6    3   10     -1.62      0.00 
    5    3   10     -2.85      0.00 
    4    3   10     -2.79      0.00 
    3    3   10     -0.57      0.00 
    2    3   10      3.10      0.00 
    1    3   10      6.07      0.00 
    0    3   10      6.36      0.00 
   -1    3   10      3.84      0.00 
   -2    3   10      0.26      0.00 
   -3    3   10     -2.32      0.00 
   -4    3   10     -2.95      0.00 
   -5    3   10     -2.02      0.00 
   -6    3   10     -0.61      0.00 
   -7    3   10      0.32      0.00 
   -8    3   10      0.47      0.00 
   -9    3   10      0.19      0.00 
  -10    3   10     -0.01      0.00 
  -11    3   10      0.01      0.00 
  -12    3   10      0.01      0.00 
  -13    3   10     -0.15      0.00 
  -14    3   10     -0.33      0.00 
   15    2   10     -0.62      0.00 
   14    2   10     -0.76      0.00 
   13    2   10     -0.34      0.00 
   12    2   10      0.51      0.00 
   11    2   10      1.33      0.00 
   10    2   10      1.67      0.00 
    9    2   10      1.27      0.00 
    8    2   10      0.17      0.00 
    7    2   10     -1.17      0.00 
    6    2   10     -1.92      0.00 
    5    2   10     -1.48      0.00 
    4    2   10     -0.33      0.00 
    3    2   10      0.27      0.00 
    2    2   10     -0.57      0.00 
    1    2   10     -2.30      0.00 
    0    2   10     -3.47      0.00 
   -1    2   10     -3.11      0.00 
   -2    2   10     -1.54      0.00 
   -3    2   10      0.13      0.00 
   -4    2   10      0.96      0.00 
   -5    2   10      0.77      0.00 
   -6    2   10      0.01      0.00 
   -7    2   10     -0.67      0.00 
   -8    2   10     -0.92      0.00 
   -9    2   10     -0.77      0.00 
  -10    2   10     -0.50      0.00 
  -11    2   10     -0.36      0.00 
  -12    2   10     -0.41      0.00 
  -13    2   10     -0.54      0.00 
  -14    2   10     -0.57      0.00 
  -15    2   10     -0.38      0.00 
   15    1   10      0.73      0.00 
   14    1   10      1.14      0.00 
   13    1   10      0.93      0.00 
   12    1   10      0.01      0.00 
   11    1   10     -1.19      0.00 
   10    1   10     -2.07      0.00 
    9    1   10     -2.23      0.00 
    8    1   10     -1.53      0.00 
    7    1   10     -0.11      0.00 
    6    1   10      1.51      0.00 
    5    1   10      2.47      0.00 
    4    1   10      2.05      0.00 
    3    1   10      0.33      0.00 
    2    1   10     -1.56      0.00 
    1    1   10     -2.14      0.00 
    0    1   10     -0.80      0.00 
   -1    1   10      1.68      0.00 
   -2    1   10      3.67      0.00 
   -3    1   10      4.00      0.00 
   -4    1   10      2.77      0.00 
   -5    1   10      0.98      0.00 
   -6    1   10     -0.44      0.00 
   -7    1   10     -1.13      0.00 
   -8    1   10     -1.16      0.00 
   -9    1   10     -0.82      0.00 
  -10    1   10     -0.45      0.00 
  -11    1   10     -0.32      0.00 
  -12    1   10     -0.32      0.00 
  -13    1   10     -0.22      0.00 
  -14    1   10      0.06      0.00 
  -15    1   10      0.24      0.00 
   15    0   10      0.06      0.00 
   14    0   10      0.11      0.00 
   13    0   10      0.06      0.00 
   12    0   10      0.15      0.00 
   11    0   10      0.53      0.00 
   10    0   10      1.10      0.00 
    9    0   10      1.64      0.00 
    8    0   10      1.91      0.00 
    7    0   10      1.55      0.00 
    6    0   10      0.38      0.00 
    5    0   10     -1.23      0.00 
    4    0   10     -2.12      0.00 
    3    0   10     -1.14      0.00 
    2    0   10      1.55      0.00 
    1    0   10      4.26      0.00 
    0    0   10      4.96      0.00 
   -1    0   10      3.02      0.00 
   -2    0   10     -0.30      0.00 
   -3    0   10     -2.95      0.00 
   -4    0   10     -3.63      0.00 
   -5    0   10     -2.43      0.00 
   -6    0   10     -0.44      0.00 
   -7    0   10      1.10      0.00 
   -8    0   10      1.47      0.00 
   -9    0   10      0.86      0.00 
  -10    0   10      0.01      0.00 
  -11    0   10     -0.39      0.00 
  -12    0   10     -0.24      0.00 
  -13    0   10      0.08      0.00 
  -14    0   10      0.20      0.00 
  -15    0   10      0.10      0.00 
   14   -1   10     -0.56      0.00 
   13   -1   10     -0.46      0.00 
   12   -1   10      0.00      0.00 
   11   -1   10      0.49      0.00 
   10   -1   10      0.72      0.00 
    9   -1   10      0.55      0.00 
    8   -1   10      0.03      0.00 
    7   -1   10     -0.49      0.00 
    6   -1   10     -0.42      0.00 
    5   -1   10      0.68      0.00 
    4   -1   10      2.40      0.00 
    3   -1   10      3.42      0.00 
    2   -1   10      2.48      0.00 
    1   -1   10     -0.45      0.00 
    0   -1   10     -3.94      0.00 
   -1   -1   10     -6.10      0.00 
   -2   -1   10     -5.84      0.00 
   -3   -1   10     -3.60      0.00 
   -4   -1   10     -0.88      0.00 
   -5   -1   10      0.82      0.00 
   -6   -1   10      0.98      0.00 
   -7   -1   10      0.23      0.00 
   -8   -1   10     -0.33      0.00 
   -9   -1   10     -0.12      0.00 
  -10   -1   10      0.66      0.00 
  -11   -1   10      1.36      0.00 
  -12   -1   10      1.50      0.00 
  -13   -1   10      1.12      0.00 
  -14   -1   10      0.58      0.00 
  -15   -1   10      0.24      0.00 
   14   -2   10      0.13      0.00 
   13   -2   10      0.20      0.00 
   12   -2   10     -0.11      0.00 
   11   -2   10     -0.80      0.00 
   10   -2   10     -1.56      0.00 
    9   -2   10     -2.07      0.00 
    8   -2   10     -2.12      0.00 
    7   -2   10     -1.62      0.00 
    6   -2   10     -0.80      0.00 
    5   -2   10     -0.29      0.00 
    4   -2   10     -0.76      0.00 
    3   -2   10     -2.13      0.00 
    2   -2   10     -3.17      0.00 
    1   -2   10     -2.38      0.00 
    0   -2   10      0.62      0.00 
   -1   -2   10      4.44      0.00 
   -2   -2   10      6.99      0.00 
   -3   -2   10      7.08      0.00 
   -4   -2   10      5.10      0.00 
   -5   -2   10      2.39      0.00 
   -6   -2   10      0.17      0.00 
   -7   -2   10     -0.99      0.00 
   -8   -2   10     -1.08      0.00 
   -9   -2   10     -0.59      0.00 
  -10   -2   10     -0.20      0.00 
  -11   -2   10     -0.33      0.00 
  -12   -2   10     -0.74      0.00 
  -13   -2   10     -0.90      0.00 
  -14   -2   10     -0.59      0.00 
  -15   -2   10     -0.15      0.00 
   13   -3   10     -0.43      0.00 
   12   -3   10     -0.56      0.00 
   11   -3   10     -0.24      0.00 
   10   -3   10      0.63      0.00 
    9   -3   10      1.74      0.00 
    8   -3   10      2.60      0.00 
    7   -3   10      2.71      0.00 
    6   -3   10      1.88      0.00 
    5   -3   10      0.36      0.00 
    4   -3   10     -1.10      0.00 
    3   -3   10     -1.63      0.00 
    2   -3   10     -0.98      0.00 
    1   -3   10      0.02      0.00 
    0   -3   10      0.02      0.00 
   -1   -3   10     -1.65      0.00 
   -2   -3   10     -4.26      0.00 
   -3   -3   10     -6.26      0.00 
   -4   -3   10     -6.51      0.00 
   -5   -3   10     -5.01      0.00 
   -6   -3   10     -2.65      0.00 
   -7   -3   10     -0.53      0.00 
   -8   -3   10      0.65      0.00 
   -9   -3   10      0.81      0.00 
  -10   -3   10      0.37      0.00 
  -11   -3   10     -0.09      0.00 
  -12   -3   10     -0.27      0.00 
  -13   -3   10     -0.22      0.00 
  -14   -3   10     -0.12      0.00 
  -15   -3   10     -0.05      0.00 
   13   -4   10      0.40      0.00 
   12   -4   10      0.80      0.00 
   11   -4   10      1.10      0.00 
   10   -4   10      0.85      0.00 
    9   -4   10     -0.10      0.00 
    8   -4   10     -1.38      0.00 
    7   -4   10     -2.31      0.00 
    6   -4   10     -2.39      0.00 
    5   -4   10     -1.43      0.00 
    4   -4   10      0.32      0.00 
    3   -4   10      2.10      0.00 
    2   -4   10      2.77      0.00 
    1   -4   10      1.70      0.00 
    0   -4   10     -0.41      0.00 
   -1   -4   10     -1.85      0.00 
   -2   -4   10     -1.30      0.00 
   -3   -4   10      0.97      0.00 
   -4   -4   10      3.34      0.00 
   -5   -4   10      4.39      0.00 
   -6   -4   10      3.86      0.00 
   -7   -4   10      2.47      0.00 
   -8   -4   10      1.10      0.00 
   -9   -4   10      0.17      0.00 
  -10   -4   10     -0.22      0.00 
  -11   -4   10     -0.14      0.00 
  -12   -4   10      0.22      0.00 
  -13   -4   10      0.52      0.00 
  -14   -4   10      0.48      0.00 
  -15   -4   10      0.14      0.00 
   12   -5   10     -0.21      0.00 
   11   -5   10     -0.90      0.00 
   10   -5   10     -1.36      0.00 
    9   -5   10     -1.16      0.00 
    8   -5   10     -0.31      0.00 
    7   -5   10      0.78      0.00 
    6   -5   10      1.63      0.00 
    5   -5   10      1.84      0.00 
    4   -5   10      1.26      0.00 
    3   -5   10      0.16      0.00 
    2   -5   10     -0.68      0.00 
    1   -5   10     -0.34      0.00 
    0   -5   10      1.48      0.00 
   -1   -5   10      3.98      0.00 
   -2   -5   10      5.73      0.00 
   -3   -5   10      5.65      0.00 
   -4   -5   10      3.75      0.00 
   -5   -5   10      1.12      0.00 
   -6   -5   10     -0.94      0.00 
   -7   -5   10     -1.72      0.00 
   -8   -5   10     -1.36      0.00 
   -9   -5   10     -0.53      0.00 
  -10   -5   10      0.11      0.00 
  -11   -5   10      0.25      0.00 
  -12   -5   10      0.01      0.00 
  -13   -5   10     -0.26      0.00 
  -14   -5   10     -0.28      0.00 
  -15   -5   10     -0.06      0.00 
   12   -6   10     -0.18      0.00 
   11   -6   10     -0.04      0.00 
   10   -6   10      0.27      0.00 
    9   -6   10      0.61      0.00 
    8   -6   10      0.77      0.00 
    7   -6   10      0.62      0.00 
    6   -6   10      0.15      0.00 
    5   -6   10     -0.55      0.00 
    4   -6   10     -1.23      0.00 
    3   -6   10     -1.54      0.00 
    2   -6   10     -1.31      0.00 
    1   -6   10     -0.84      0.00 
    0   -6   10     -0.77      0.00 
   -1   -6   10     -1.68      0.00 
   -2   -6   10     -3.39      0.00 
   -3   -6   10     -4.89      0.00 
   -4   -6   10     -5.09      0.00 
   -5   -6   10     -3.73      0.00 
   -6   -6   10     -1.59      0.00 
   -7   -6   10      0.16      0.00 
   -8   -6   10      0.90      0.00 
   -9   -6   10      0.78      0.00 
  -10   -6   10      0.31      0.00 
  -11   -6   10     -0.11      0.00 
  -12   -6   10     -0.36      0.00 
  -13   -6   10     -0.42      0.00 
  -14   -6   10     -0.31      0.00 
  -15   -6   10     -0.11      0.00 
   11   -7   10      0.74      0.00 
   10   -7   10      1.12      0.00 
    9   -7   10      0.88      0.00 
    8   -7   10      0.04      0.00 
    7   -7   10     -0.99      0.00 
    6   -7   10     -1.59      0.00 
    5   -7   10     -1.31      0.00 
    4   -7   10     -0.19      0.00 
    3   -7   10      1.12      0.00 
    2   -7   10      1.71      0.00 
    1   -7   10      1.08      0.00 
    0   -7   10     -0.40      0.00 
   -1   -7   10     -1.74      0.00 
   -2   -7   10     -2.06      0.00 
   -3   -7   10     -1.22      0.00 
   -4   -7   10      0.13      0.00 
   -5   -7   10      1.07      0.00 
   -6   -7   10      1.07      0.00 
   -7   -7   10      0.28      0.00 
   -8   -7   10     -0.64      0.00 
   -9   -7   10     -1.15      0.00 
  -10   -7   10     -1.07      0.00 
  -11   -7   10     -0.55      0.00 
  -12   -7   10      0.11      0.00 
  -13   -7   10      0.63      0.00 
  -14   -7   10      0.76      0.00 
  -15   -7   10      0.46      0.00 
   11   -8   10     -0.15      0.00 
   10   -8   10     -0.57      0.00 
    9   -8   10     -0.84      0.00 
    8   -8   10     -0.57      0.00 
    7   -8   10      0.28      0.00 
    6   -8   10      1.24      0.00 
    5   -8   10      1.69      0.00 
    4   -8   10      1.39      0.00 
    3   -8   10      0.59      0.00 
    2   -8   10     -0.12      0.00 
    1   -8   10     -0.20      0.00 
    0   -8   10      0.65      0.00 
   -1   -8   10      2.19      0.00 
   -2   -8   10      3.64      0.00 
   -3   -8   10      4.07      0.00 
   -4   -8   10      3.11      0.00 
   -5   -8   10      1.34      0.00 
   -6   -8   10     -0.18      0.00 
   -7   -8   10     -0.73      0.00 
   -8   -8   10     -0.44      0.00 
   -9   -8   10      0.10      0.00 
  -10   -8   10      0.42      0.00 
  -11   -8   10      0.36      0.00 
  -12   -8   10      0.00      0.00 
  -13   -8   10     -0.45      0.00 
  -14   -8   10     -0.69      0.00 
  -15   -8   10     -0.54      0.00 
   10   -9   10     -0.27      0.00 
    9   -9   10      0.25      0.00 
    8   -9   10      0.85      0.00 
    7   -9   10      1.03      0.00 
    6   -9   10      0.68      0.00 
    5   -9   10      0.05      0.00 
    4   -9   10     -0.53      0.00 
    3   -9   10     -0.87      0.00 
    2   -9   10     -0.89      0.00 
    1   -9   10     -0.63      0.00 
    0   -9   10     -0.39      0.00 
   -1   -9   10     -0.54      0.00 
   -2   -9   10     -1.13      0.00 
   -3   -9   10     -1.69      0.00 
   -4   -9   10     -1.69      0.00 
   -5   -9   10     -1.04      0.00 
   -6   -9   10     -0.11      0.00 
   -7   -9   10      0.67      0.00 
   -8   -9   10      1.11      0.00 
   -9   -9   10      1.17      0.00 
  -10   -9   10      0.84      0.00 
  -11   -9   10      0.31      0.00 
  -12   -9   10     -0.07      0.00 
  -13   -9   10     -0.07      0.00 
  -14   -9   10      0.14      0.00 
    9  -10   10     -0.25      0.00 
    8  -10   10     -0.82      0.00 
    7  -10   10     -1.44      0.00 
    6  -10   10     -1.71      0.00 
    5  -10   10     -1.40      0.00 
    4  -10   10     -0.71      0.00 
    3  -10   10      0.00      0.00 
    2  -10   10      0.40      0.00 
    1  -10   10      0.41      0.00 
    0  -10   10      0.05      0.00 
   -1  -10   10     -0.50      0.00 
   -2  -10   10     -0.86      0.00 
   -3  -10   10     -0.74      0.00 
   -4  -10   10     -0.22      0.00 
   -5  -10   10      0.25      0.00 
   -6  -10   10      0.24      0.00 
   -7  -10   10     -0.21      0.00 
   -8  -10   10     -0.70      0.00 
   -9  -10   10     -0.85      0.00 
  -10  -10   10     -0.62      0.00 
  -11  -10   10     -0.29      0.00 
  -12  -10   10     -0.07      0.00 
  -13  -10   10      0.00      0.00 
  -14  -10   10      0.05      0.00 
    8  -11   10      0.15      0.00 
    7  -11   10      0.53      0.00 
    6  -11   10      0.80      0.00 
    5  -11   10      0.60      0.00 
    4  -11   10      0.00      0.00 
    3  -11   10     -0.62      0.00 
    2  -11   10     -0.97      0.00 
    1  -11   10     -1.01      0.00 
    0  -11   10     -0.77      0.00 
   -1  -11   10     -0.28      0.00 
   -2  -11   10      0.25      0.00 
   -3  -11   10      0.45      0.00 
   -4  -11   10      0.11      0.00 
   -5  -11   10     -0.47      0.00 
   -6  -11   10     -0.77      0.00 
   -7  -11   10     -0.59      0.00 
   -8  -11   10     -0.22      0.00 
   -9  -11   10     -0.02      0.00 
  -10  -11   10     -0.05      0.00 
  -11  -11   10     -0.03      0.00 
  -12  -11   10      0.18      0.00 
  -13  -11   10      0.42      0.00 
    7  -12   10     -0.15      0.00 
    6  -12   10     -0.02      0.00 
    5  -12   10      0.27      0.00 
    4  -12   10      0.61      0.00 
    3  -12   10      0.83      0.00 
    2  -12   10      0.87      0.00 
    1  -12   10      0.79      0.00 
    0  -12   10      0.71      0.00 
   -1  -12   10      0.67      0.00 
   -2  -12   10      0.57      0.00 
   -3  -12   10      0.26      0.00 
   -4  -12   10     -0.18      0.00 
   -5  -12   10     -0.46      0.00 
   -6  -12   10     -0.31      0.00 
   -7  -12   10      0.15      0.00 
   -8  -12   10      0.52      0.00 
   -9  -12   10      0.45      0.00 
  -10  -12   10      0.06      0.00 
  -11  -12   10     -0.28      0.00 
  -12  -12   10     -0.30      0.00 
  -13  -12   10     -0.11      0.00 
   -1  -13   10      0.12      0.00 
   -2  -13   10     -0.48      0.00 
   -3  -13   10     -0.59      0.00 
   -4  -13   10     -0.05      0.00 
   -5  -13   10      0.68      0.00 
   -6  -13   10      0.94      0.00 
   -7  -13   10      0.51      0.00 
   -8  -13   10     -0.21      0.00 
   -9  -13   10     -0.62      0.00 
  -10  -13   10     -0.49      0.00 
  -11  -13   10     -0.13      0.00 
  -12  -13   10      0.05      0.00 
   -1  -14   10      0.03      0.00 
   -2  -14   10      0.56      0.00 
   -3  -14   10      0.83      0.00 
   -4  -14   10      0.78      0.00 
   -5  -14   10      0.57      0.00 
   -6  -14   10      0.36      0.00 
   -7  -14   10      0.22      0.00 
   -8  -14   10      0.20      0.00 
   -9  -14   10      0.31      0.00 
  -10  -14   10      0.47      0.00 
  -11  -14   10      0.50      0.00 
   -2  -15   10     -0.04      0.00 
   -3  -15   10     -0.11      0.00 
   -4  -15   10     -0.27      0.00 
   -5  -15   10     -0.41      0.00 
   -6  -15   10     -0.34      0.00 
   -7  -15   10     -0.03      0.00 
   -8  -15   10      0.33      0.00 
   -9  -15   10      0.49      0.00 
  -10  -15   10      0.39      0.00 
   -3  -16   10     -0.89      0.00 
   -4  -16   10     -0.72      0.00 
   -5  -16   10     -0.45      0.00 
   -6  -16   10     -0.23      0.00 
   -7  -16   10     -0.10      0.00 
   -8  -16   10     -0.03      0.00 
   -3  -17   10      0.36      0.00 
   -4  -17   10      0.53      0.00 
   -5  -17   10      0.58      0.00 
   -6  -17   10      0.32      0.00 
    9   20    9      0.19      0.00 
    8   20    9      0.15      0.00 
    7   20    9      0.13      0.00 
    6   20    9      0.06      0.00 
    5   20    9     -0.03      0.00 
    4   20    9      0.00      0.00 
    3   20    9      0.16      0.00 
    2   20    9      0.27      0.00 
    1   20    9      0.19      0.00 
    0   20    9      0.06      0.00 
   10   19    9      0.15      0.00 
    9   19    9      0.26      0.00 
    8   19    9      0.07      0.00 
    7   19    9     -0.15      0.00 
    6   19    9     -0.15      0.00 
    5   19    9     -0.03      0.00 
    4   19    9      0.03      0.00 
    3   19    9      0.03      0.00 
    2   19    9      0.10      0.00 
    1   19    9      0.24      0.00 
    0   19    9      0.39      0.00 
   -1   19    9      0.53      0.00 
   11   18    9     -0.01      0.00 
   10   18    9     -0.43      0.00 
    9   18    9     -0.54      0.00 
    8   18    9     -0.41      0.00 
    7   18    9     -0.34      0.00 
    6   18    9     -0.29      0.00 
    5   18    9     -0.06      0.00 
    4   18    9      0.30      0.00 
    3   18    9      0.45      0.00 
    2   18    9      0.23      0.00 
    1   18    9     -0.13      0.00 
    0   18    9     -0.34      0.00 
   -1   18    9     -0.41      0.00 
   -2   18    9     -0.45      0.00 
   -3   18    9     -0.44      0.00 
   -4   18    9     -0.31      0.00 
   13   17    9     -0.57      0.00 
   12   17    9     -0.42      0.00 
   11   17    9     -0.17      0.00 
   10   17    9      0.01      0.00 
    9   17    9      0.15      0.00 
    8   17    9      0.33      0.00 
    7   17    9      0.51      0.00 
    6   17    9      0.51      0.00 
    5   17    9      0.31      0.00 
    4   17    9      0.07      0.00 
    3   17    9     -0.06      0.00 
    2   17    9     -0.12      0.00 
    1   17    9     -0.14      0.00 
    0   17    9     -0.15      0.00 
   -1   17    9     -0.15      0.00 
   -2   17    9     -0.20      0.00 
   -3   17    9     -0.26      0.00 
   -4   17    9     -0.23      0.00 
   -5   17    9     -0.08      0.00 
   14   16    9     -0.04      0.00 
   13   16    9     -0.33      0.00 
   12   16    9     -0.45      0.00 
   11   16    9     -0.35      0.00 
   10   16    9     -0.29      0.00 
    9   16    9     -0.43      0.00 
    8   16    9     -0.60      0.00 
    7   16    9     -0.48      0.00 
    6   16    9     -0.13      0.00 
    5   16    9      0.09      0.00 
    4   16    9     -0.03      0.00 
    3   16    9     -0.25      0.00 
    2   16    9     -0.28      0.00 
    1   16    9     -0.07      0.00 
    0   16    9      0.19      0.00 
   -1   16    9      0.35      0.00 
   -2   16    9      0.39      0.00 
   -3   16    9      0.27      0.00 
   -4   16    9      0.01      0.00 
   -5   16    9     -0.23      0.00 
   -6   16    9     -0.30      0.00 
   15   15    9      0.06      0.00 
   14   15    9      0.24      0.00 
   13   15    9      0.51      0.00 
   12   15    9      0.77      0.00 
   11   15    9      0.91      0.00 
   10   15    9      0.92      0.00 
    9   15    9      0.74      0.00 
    8   15    9      0.32      0.00 
    7   15    9     -0.25      0.00 
    6   15    9     -0.74      0.00 
    5   15    9     -0.93      0.00 
    4   15    9     -0.83      0.00 
    3   15    9     -0.60      0.00 
    2   15    9     -0.38      0.00 
    1   15    9     -0.23      0.00 
    0   15    9     -0.18      0.00 
   -1   15    9     -0.25      0.00 
   -2   15    9     -0.33      0.00 
   -3   15    9     -0.35      0.00 
   -4   15    9     -0.34      0.00 
   -5   15    9     -0.32      0.00 
   -6   15    9     -0.22      0.00 
   -7   15    9     -0.01      0.00 
   14   14    9     -0.21      0.00 
   13   14    9     -0.06      0.00 
   12   14    9     -0.01      0.00 
   11   14    9     -0.08      0.00 
   10   14    9     -0.12      0.00 
    9   14    9      0.04      0.00 
    8   14    9      0.39      0.00 
    7   14    9      0.73      0.00 
    6   14    9      0.85      0.00 
    5   14    9      0.74      0.00 
    4   14    9      0.52      0.00 
    3   14    9      0.23      0.00 
    2   14    9     -0.17      0.00 
    1   14    9     -0.60      0.00 
    0   14    9     -0.89      0.00 
   -1   14    9     -0.91      0.00 
   -2   14    9     -0.69      0.00 
   -3   14    9     -0.33      0.00 
   -4   14    9      0.06      0.00 
   -5   14    9      0.35      0.00 
   -6   14    9      0.43      0.00 
   -7   14    9      0.35      0.00 
   -8   14    9      0.30      0.00 
   14   13    9      0.63      0.00 
   13   13    9      0.42      0.00 
   12   13    9     -0.07      0.00 
   11   13    9     -0.66      0.00 
   10   13    9     -1.02      0.00 
    9   13    9     -0.98      0.00 
    8   13    9     -0.65      0.00 
    7   13    9     -0.28      0.00 
    6   13    9      0.04      0.00 
    5   13    9      0.37      0.00 
    4   13    9      0.69      0.00 
    3   13    9      0.96      0.00 
    2   13    9      1.13      0.00 
    1   13    9      1.26      0.00 
    0   13    9      1.39      0.00 
   -1   13    9      1.46      0.00 
   -2   13    9      1.33      0.00 
   -3   13    9      0.95      0.00 
   -4   13    9      0.50      0.00 
   -5   13    9      0.25      0.00 
   -6   13    9      0.22      0.00 
   -7   13    9      0.19      0.00 
   -8   13    9     -0.03      0.00 
   -9   13    9     -0.30      0.00 
   14   12    9     -0.18      0.00 
   13   12    9      0.02      0.00 
   12   12    9      0.57      0.00 
   11   12    9      1.14      0.00 
   10   12    9      1.31      0.00 
    9   12    9      0.95      0.00 
    8   12    9      0.31      0.00 
    7   12    9     -0.40      0.00 
    6   12    9     -1.05      0.00 
    5   12    9     -1.46      0.00 
    4   12    9     -1.39      0.00 
    3   12    9     -0.78      0.00 
    2   12    9      0.00      0.00 
    1   12    9      0.49      0.00 
    0   12    9      0.53      0.00 
   -1   12    9      0.35      0.00 
   -2   12    9      0.21      0.00 
   -3   12    9      0.21      0.00 
   -4   12    9      0.26      0.00 
   -5   12    9      0.28      0.00 
   -6   12    9      0.21      0.00 
   -7   12    9      0.03      0.00 
   -8   12    9     -0.25      0.00 
   -9   12    9     -0.53      0.00 
  -10   12    9     -0.62      0.00 
   14   11    9     -0.47      0.00 
   13   11    9     -0.73      0.00 
   12   11    9     -0.91      0.00 
   11   11    9     -0.89      0.00 
   10   11    9     -0.69      0.00 
    9   11    9     -0.43      0.00 
    8   11    9     -0.10      0.00 
    7   11    9      0.44      0.00 
    6   11    9      1.18      0.00 
    5   11    9      1.69      0.00 
    4   11    9      1.46      0.00 
    3   11    9      0.35      0.00 
    2   11    9     -1.14      0.00 
    1   11    9     -2.29      0.00 
    0   11    9     -2.70      0.00 
   -1   11    9     -2.48      0.00 
   -2   11    9     -1.93      0.00 
   -3   11    9     -1.30      0.00 
   -4   11    9     -0.80      0.00 
   -5   11    9     -0.59      0.00 
   -6   11    9     -0.63      0.00 
   -7   11    9     -0.70      0.00 
   -8   11    9     -0.54      0.00 
   -9   11    9     -0.16      0.00 
  -10   11    9      0.18      0.00 
  -11   11    9      0.27      0.00 
   13   10    9      0.44      0.00 
   12   10    9      0.13      0.00 
   11   10    9     -0.50      0.00 
   10   10    9     -1.11      0.00 
    9   10    9     -1.42      0.00 
    8   10    9     -1.38      0.00 
    7   10    9     -1.02      0.00 
    6   10    9     -0.44      0.00 
    5   10    9      0.19      0.00 
    4   10    9      0.62      0.00 
    3   10    9      0.81      0.00 
    2   10    9      0.99      0.00 
    1   10    9      1.35      0.00 
    0   10    9      1.68      0.00 
   -1   10    9      1.56      0.00 
   -2   10    9      0.82      0.00 
   -3   10    9     -0.18      0.00 
   -4   10    9     -0.91      0.00 
   -5   10    9     -1.10      0.00 
   -6   10    9     -0.81      0.00 
   -7   10    9     -0.29      0.00 
   -8   10    9      0.25      0.00 
   -9   10    9      0.61      0.00 
  -10   10    9      0.71      0.00 
  -11   10    9      0.56      0.00 
  -12   10    9      0.29      0.00 
   13    9    9      0.23      0.00 
   12    9    9      0.44      0.00 
   11    9    9      0.93      0.00 
   10    9    9      1.60      0.00 
    9    9    9      2.29      0.00 
    8    9    9      2.60      0.00 
    7    9    9      2.02      0.00 
    6    9    9      0.53      0.00 
    5    9    9     -1.13      0.00 
    4    9    9     -2.03      0.00 
    3    9    9     -1.85      0.00 
    2    9    9     -1.05      0.00 
    1    9    9     -0.24      0.00 
    0    9    9      0.33      0.00 
   -1    9    9      0.77      0.00 
   -2    9    9      1.19      0.00 
   -3    9    9      1.57      0.00 
   -4    9    9      1.86      0.00 
   -5    9    9      2.02      0.00 
   -6    9    9      1.98      0.00 
   -7    9    9      1.63      0.00 
   -8    9    9      0.98      0.00 
   -9    9    9      0.22      0.00 
  -10    9    9     -0.34      0.00 
  -11    9    9     -0.54      0.00 
  -12    9    9     -0.45      0.00 
   16    8    9     -0.79      0.00 
   15    8    9     -0.89      0.00 
   14    8    9     -0.69      0.00 
   13    8    9     -0.29      0.00 
   12    8    9      0.09      0.00 
   11    8    9      0.33      0.00 
   10    8    9      0.37      0.00 
    9    8    9      0.25      0.00 
    8    8    9      0.18      0.00 
    7    8    9      0.44      0.00 
    6    8    9      1.03      0.00 
    5    8    9      1.60      0.00 
    4    8    9      1.70      0.00 
    3    8    9      1.14      0.00 
    2    8    9      0.04      0.00 
    1    8    9     -1.22      0.00 
    0    8    9     -2.15      0.00 
   -1    8    9     -2.22      0.00 
   -2    8    9     -1.34      0.00 
   -3    8    9     -0.10      0.00 
   -4    8    9      0.70      0.00 
   -5    8    9      0.69      0.00 
   -6    8    9      0.18      0.00 
   -7    8    9     -0.28      0.00 
   -8    8    9     -0.42      0.00 
   -9    8    9     -0.28      0.00 
  -10    8    9     -0.02      0.00 
  -11    8    9      0.19      0.00 
  -12    8    9      0.23      0.00 
  -13    8    9      0.13      0.00 
   16    7    9     -0.46      0.00 
   15    7    9     -0.25      0.00 
   14    7    9     -0.04      0.00 
   13    7    9     -0.07      0.00 
   12    7    9     -0.34      0.00 
   11    7    9     -0.73      0.00 
   10    7    9     -1.25      0.00 
    9    7    9     -1.84      0.00 
    8    7    9     -2.25      0.00 
    7    7    9     -2.19      0.00 
    6    7    9     -1.70      0.00 
    5    7    9     -1.13      0.00 
    4    7    9     -0.77      0.00 
    3    7    9     -0.44      0.00 
    2    7    9      0.26      0.00 
    1    7    9      1.44      0.00 
    0    7    9      2.56      0.00 
   -1    7    9      2.84      0.00 
   -2    7    9      1.96      0.00 
   -3    7    9      0.37      0.00 
   -4    7    9     -1.16      0.00 
   -5    7    9     -2.12      0.00 
   -6    7    9     -2.39      0.00 
   -7    7    9     -2.12      0.00 
   -8    7    9     -1.51      0.00 
   -9    7    9     -0.86      0.00 
  -10    7    9     -0.42      0.00 
  -11    7    9     -0.20      0.00 
  -12    7    9     -0.03      0.00 
  -13    7    9      0.15      0.00 
   16    6    9      0.85      0.00 
   15    6    9      1.06      0.00 
   14    6    9      0.87      0.00 
   13    6    9      0.33      0.00 
   12    6    9     -0.26      0.00 
   11    6    9     -0.53      0.00 
   10    6    9     -0.29      0.00 
    9    6    9      0.22      0.00 
    8    6    9      0.42      0.00 
    7    6    9     -0.21      0.00 
    6    6    9     -1.63      0.00 
    5    6    9     -3.19      0.00 
    4    6    9     -3.95      0.00 
    3    6    9     -3.36      0.00 
    2    6    9     -1.70      0.00 
    1    6    9      0.10      0.00 
    0    6    9      1.15      0.00 
   -1    6    9      1.18      0.00 
   -2    6    9      0.61      0.00 
   -3    6    9      0.11      0.00 
   -4    6    9      0.16      0.00 
   -5    6    9      0.76      0.00 
   -6    6    9      1.50      0.00 
   -7    6    9      1.83      0.00 
   -8    6    9      1.48      0.00 
   -9    6    9      0.69      0.00 
  -10    6    9     -0.02      0.00 
  -11    6    9     -0.34      0.00 
  -12    6    9     -0.33      0.00 
  -13    6    9     -0.21      0.00 
  -14    6    9     -0.12      0.00 
   16    5    9     -0.20      0.00 
   15    5    9     -0.43      0.00 
   14    5    9     -0.48      0.00 
   13    5    9     -0.09      0.00 
   12    5    9      0.57      0.00 
   11    5    9      1.02      0.00 
   10    5    9      0.96      0.00 
    9    5    9      0.52      0.00 
    8    5    9      0.08      0.00 
    7    5    9      0.15      0.00 
    6    5    9      1.21      0.00 
    5    5    9      3.38      0.00 
    4    5    9      5.84      0.00 
    3    5    9      6.97      0.00 
    2    5    9      5.59      0.00 
    1    5    9      2.11      0.00 
    0    5    9     -1.64      0.00 
   -1    5    9     -3.91      0.00 
   -2    5    9     -4.22      0.00 
   -3    5    9     -3.35      0.00 
   -4    5    9     -2.26      0.00 
   -5    5    9     -1.50      0.00 
   -6    5    9     -1.08      0.00 
   -7    5    9     -0.80      0.00 
   -8    5    9     -0.45      0.00 
   -9    5    9      0.09      0.00 
  -10    5    9      0.67      0.00 
  -11    5    9      0.95      0.00 
  -12    5    9      0.75      0.00 
  -13    5    9      0.25      0.00 
  -14    5    9     -0.12      0.00 
   16    4    9      0.31      0.00 
   15    4    9      0.49      0.00 
   14    4    9      0.62      0.00 
   13    4    9      0.56      0.00 
   12    4    9      0.35      0.00 
   11    4    9      0.08      0.00 
   10    4    9     -0.12      0.00 
    9    4    9     -0.06      0.00 
    8    4    9      0.52      0.00 
    7    4    9      1.60      0.00 
    6    4    9      2.54      0.00 
    5    4    9      2.37      0.00 
    4    4    9      0.61      0.00 
    3    4    9     -2.01      0.00 
    2    4    9     -3.83      0.00 
    1    4    9     -3.49      0.00 
    0    4    9     -1.14      0.00 
   -1    4    9      1.71      0.00 
   -2    4    9      3.39      0.00 
   -3    4    9      3.28      0.00 
   -4    4    9      1.98      0.00 
   -5    4    9      0.55      0.00 
   -6    4    9     -0.29      0.00 
   -7    4    9     -0.40      0.00 
   -8    4    9     -0.11      0.00 
   -9    4    9      0.09      0.00 
  -10    4    9      0.00      0.00 
  -11    4    9     -0.17      0.00 
  -12    4    9     -0.13      0.00 
  -13    4    9      0.09      0.00 
  -14    4    9      0.18      0.00 
   16    3    9      0.28      0.00 
   15    3    9      0.17      0.00 
   14    3    9     -0.27      0.00 
   13    3    9     -0.90      0.00 
   12    3    9     -1.38      0.00 
   11    3    9     -1.37      0.00 
   10    3    9     -0.82      0.00 
    9    3    9     -0.01      0.00 
    8    3    9      0.58      0.00 
    7    3    9      0.45      0.00 
    6    3    9     -0.63      0.00 
    5    3    9     -2.26      0.00 
    4    3    9     -3.30      0.00 
    3    3    9     -2.65      0.00 
    2    3    9     -0.47      0.00 
    1    3    9      1.66      0.00 
    0    3    9      2.12      0.00 
   -1    3    9      0.83      0.00 
   -2    3    9     -0.78      0.00 
   -3    3    9     -1.24      0.00 
   -4    3    9     -0.32      0.00 
   -5    3    9      1.09      0.00 
   -6    3    9      1.96      0.00 
   -7    3    9      1.84      0.00 
   -8    3    9      1.04      0.00 
   -9    3    9      0.12      0.00 
  -10    3    9     -0.43      0.00 
  -11    3    9     -0.51      0.00 
  -12    3    9     -0.29      0.00 
  -13    3    9     -0.01      0.00 
  -14    3    9      0.19      0.00 
  -15    3    9      0.24      0.00 
   15    2    9     -1.16      0.00 
   14    2    9     -1.05      0.00 
   13    2    9     -0.23      0.00 
   12    2    9      0.87      0.00 
   11    2    9      1.53      0.00 
   10    2    9      1.41      0.00 
    9    2    9      0.58      0.00 
    8    2    9     -0.67      0.00 
    7    2    9     -1.89      0.00 
    6    2    9     -2.37      0.00 
    5    2    9     -1.51      0.00 
    4    2    9      0.31      0.00 
    3    2    9      1.67      0.00 
    2    2    9      1.22      0.00 
    1    2    9     -1.02      0.00 
    0    2    9     -3.66      0.00 
   -1    2    9     -5.11      0.00 
   -2    2    9     -4.71      0.00 
   -3    2    9     -2.99      0.00 
   -4    2    9     -1.06      0.00 
   -5    2    9      0.23      0.00 
   -6    2    9      0.68      0.00 
   -7    2    9      0.62      0.00 
   -8    2    9      0.49      0.00 
   -9    2    9      0.58      0.00 
  -10    2    9      0.86      0.00 
  -11    2    9      1.04      0.00 
  -12    2    9      0.79      0.00 
  -13    2    9      0.16      0.00 
  -14    2    9     -0.39      0.00 
  -15    2    9     -0.42      0.00 
   15    1    9      0.23      0.00 
   14    1    9      0.38      0.00 
   13    1    9      0.29      0.00 
   12    1    9     -0.23      0.00 
   11    1    9     -0.95      0.00 
   10    1    9     -1.47      0.00 
    9    1    9     -1.48      0.00 
    8    1    9     -0.90      0.00 
    7    1    9      0.17      0.00 
    6    1    9      1.28      0.00 
    5    1    9      1.60      0.00 
    4    1    9      0.49      0.00 
    3    1    9     -1.67      0.00 
    2    1    9     -3.24      0.00 
    1    1    9     -2.43      0.00 
    0    1    9      1.05      0.00 
   -1    1    9      5.37      0.00 
   -2    1    9      7.85      0.00 
   -3    1    9      7.03      0.00 
   -4    1    9      3.71      0.00 
   -5    1    9     -0.01      0.00 
   -6    1    9     -2.45      0.00 
   -7    1    9     -3.17      0.00 
   -8    1    9     -2.68      0.00 
   -9    1    9     -1.77      0.00 
  -10    1    9     -1.06      0.00 
  -11    1    9     -0.77      0.00 
  -12    1    9     -0.67      0.00 
  -13    1    9     -0.48      0.00 
  -14    1    9     -0.21      0.00 
  -15    1    9     -0.08      0.00 
   15    0    9      0.47      0.00 
   14    0    9      0.45      0.00 
   13    0    9      0.07      0.00 
   12    0    9     -0.31      0.00 
   11    0    9     -0.32      0.00 
   10    0    9      0.13      0.00 
    9    0    9      0.84      0.00 
    8    0    9      1.41      0.00 
    7    0    9      1.34      0.00 
    6    0    9      0.35      0.00 
    5    0    9     -1.13      0.00 
    4    0    9     -1.87      0.00 
    3    0    9     -0.83      0.00 
    2    0    9      1.67      0.00 
    1    0    9      3.89      0.00 
    0    0    9      4.07      0.00 
   -1    0    9      1.97      0.00 
   -2    0    9     -0.97      0.00 
   -3    0    9     -2.88      0.00 
   -4    0    9     -2.81      0.00 
   -5    0    9     -1.18      0.00 
   -6    0    9      0.79      0.00 
   -7    0    9      1.91      0.00 
   -8    0    9      1.71      0.00 
   -9    0    9      0.59      0.00 
  -10    0    9     -0.64      0.00 
  -11    0    9     -1.35      0.00 
  -12    0    9     -1.41      0.00 
  -13    0    9     -1.02      0.00 
  -14    0    9     -0.48      0.00 
  -15    0    9     -0.03      0.00 
   14   -1    9     -0.01      0.00 
   13   -1    9      0.33      0.00 
   12   -1    9      0.92      0.00 
   11   -1    9      1.42      0.00 
   10   -1    9      1.43      0.00 
    9   -1    9      0.79      0.00 
    8   -1    9     -0.23      0.00 
    7   -1    9     -1.05      0.00 
    6   -1    9     -0.91      0.00 
    5   -1    9      0.55      0.00 
    4   -1    9      2.82      0.00 
    3   -1    9      4.53      0.00 
    2   -1    9      4.17      0.00 
    1   -1    9      1.29      0.00 
    0   -1    9     -2.93      0.00 
   -1   -1    9     -6.28      0.00 
   -2   -1    9     -7.04      0.00 
   -3   -1    9     -5.21      0.00 
   -4   -1    9     -2.33      0.00 
   -5   -1    9     -0.15      0.00 
   -6   -1    9      0.66      0.00 
   -7   -1    9      0.57      0.00 
   -8   -1    9      0.45      0.00 
   -9   -1    9      0.76      0.00 
  -10   -1    9      1.47      0.00 
  -11   -1    9      2.17      0.00 
  -12   -1    9      2.42      0.00 
  -13   -1    9      2.02      0.00 
  -14   -1    9      1.18      0.00 
  -15   -1    9      0.42      0.00 
   14   -2    9     -0.02      0.00 
   13   -2    9      0.11      0.00 
   12   -2    9     -0.11      0.00 
   11   -2    9     -0.78      0.00 
   10   -2    9     -1.52      0.00 
    9   -2    9     -1.84      0.00 
    8   -2    9     -1.51      0.00 
    7   -2    9     -0.68      0.00 
    6   -2    9      0.22      0.00 
    5   -2    9      0.52      0.00 
    4   -2    9     -0.40      0.00 
    3   -2    9     -2.35      0.00 
    2   -2    9     -3.87      0.00 
    1   -2    9     -2.97      0.00 
    0   -2    9      1.01      0.00 
   -1   -2    9      6.37      0.00 
   -2   -2    9     10.11      0.00 
   -3   -2    9     10.38      0.00 
   -4   -2    9      7.62      0.00 
   -5   -2    9      3.76      0.00 
   -6   -2    9      0.55      0.00 
   -7   -2    9     -1.24      0.00 
   -8   -2    9     -1.64      0.00 
   -9   -2    9     -1.18      0.00 
  -10   -2    9     -0.61      0.00 
  -11   -2    9     -0.44      0.00 
  -12   -2    9     -0.62      0.00 
  -13   -2    9     -0.71      0.00 
  -14   -2    9     -0.50      0.00 
  -15   -2    9     -0.18      0.00 
  -16   -2    9     -0.01      0.00 
   14   -3    9     -0.46      0.00 
   13   -3    9     -0.98      0.00 
   12   -3    9     -1.30      0.00 
   11   -3    9     -0.94      0.00 
   10   -3    9      0.19      0.00 
    9   -3    9      1.63      0.00 
    8   -3    9      2.67      0.00 
    7   -3    9      2.75      0.00 
    6   -3    9      1.82      0.00 
    5   -3    9      0.33      0.00 
    4   -3    9     -0.94      0.00 
    3   -3    9     -1.27      0.00 
    2   -3    9     -0.64      0.00 
    1   -3    9     -0.06      0.00 
    0   -3    9     -0.96      0.00 
   -1   -3    9     -3.88      0.00 
   -2   -3    9     -7.67      0.00 
   -3   -3    9    -10.14      0.00 
   -4   -3    9     -9.82      0.00 
   -5   -3    9     -7.00      0.00 
   -6   -3    9     -3.33      0.00 
   -7   -3    9     -0.52      0.00 
   -8   -3    9      0.71      0.00 
   -9   -3    9      0.66      0.00 
  -10   -3    9      0.06      0.00 
  -11   -3    9     -0.52      0.00 
  -12   -3    9     -0.84      0.00 
  -13   -3    9     -0.83      0.00 
  -14   -3    9     -0.55      0.00 
  -15   -3    9     -0.14      0.00 
  -16   -3    9      0.16      0.00 
   13   -4    9      0.78      0.00 
   12   -4    9      1.43      0.00 
   11   -4    9      1.73      0.00 
   10   -4    9      1.22      0.00 
    9   -4    9     -0.12      0.00 
    8   -4    9     -1.75      0.00 
    7   -4    9     -2.94      0.00 
    6   -4    9     -3.19      0.00 
    5   -4    9     -2.39      0.00 
    4   -4    9     -0.83      0.00 
    3   -4    9      0.78      0.00 
    2   -4    9      1.43      0.00 
    1   -4    9      0.54      0.00 
    0   -4    9     -1.31      0.00 
   -1   -4    9     -2.59      0.00 
   -2   -4    9     -2.04      0.00 
   -3   -4    9      0.17      0.00 
   -4   -4    9      2.54      0.00 
   -5   -4    9      3.60      0.00 
   -6   -4    9      3.05      0.00 
   -7   -4    9      1.70      0.00 
   -8   -4    9      0.56      0.00 
   -9   -4    9      0.07      0.00 
  -10   -4    9      0.12      0.00 
  -11   -4    9      0.40      0.00 
  -12   -4    9      0.67      0.00 
  -13   -4    9      0.77      0.00 
  -14   -4    9      0.61      0.00 
  -15   -4    9      0.28      0.00 
  -16   -4    9      0.00      0.00 
   13   -5    9      0.07      0.00 
   12   -5    9     -0.20      0.00 
   11   -5    9     -0.59      0.00 
   10   -5    9     -0.79      0.00 
    9   -5    9     -0.59      0.00 
    8   -5    9      0.08      0.00 
    7   -5    9      1.07      0.00 
    6   -5    9      2.03      0.00 
    5   -5    9      2.44      0.00 
    4   -5    9      1.95      0.00 
    3   -5    9      0.77      0.00 
    2   -5    9     -0.19      0.00 
    1   -5    9      0.12      0.00 
    0   -5    9      2.10      0.00 
   -1   -5    9      5.09      0.00 
   -2   -5    9      7.60      0.00 
   -3   -5    9      8.24      0.00 
   -4   -5    9      6.59      0.00 
   -5   -5    9      3.56      0.00 
   -6   -5    9      0.73      0.00 
   -7   -5    9     -0.74      0.00 
   -8   -5    9     -0.82      0.00 
   -9   -5    9     -0.27      0.00 
  -10   -5    9      0.13      0.00 
  -11   -5    9      0.18      0.00 
  -12   -5    9      0.10      0.00 
  -13   -5    9      0.05      0.00 
  -14   -5    9      0.04      0.00 
  -15   -5    9      0.00      0.00 
  -16   -5    9     -0.07      0.00 
   12   -6    9     -0.73      0.00 
   11   -6    9     -1.07      0.00 
   10   -6    9     -0.85      0.00 
    9   -6    9     -0.04      0.00 
    8   -6    9      0.86      0.00 
    7   -6    9      1.29      0.00 
    6   -6    9      0.98      0.00 
    5   -6    9      0.17      0.00 
    4   -6    9     -0.60      0.00 
    3   -6    9     -0.78      0.00 
    2   -6    9     -0.21      0.00 
    1   -6    9      0.68      0.00 
    0   -6    9      0.96      0.00 
   -1   -6    9     -0.06      0.00 
   -2   -6    9     -2.18      0.00 
   -3   -6    9     -4.23      0.00 
   -4   -6    9     -4.89      0.00 
   -5   -6    9     -3.76      0.00 
   -6   -6    9     -1.61      0.00 
   -7   -6    9      0.30      0.00 
   -8   -6    9      1.19      0.00 
   -9   -6    9      1.12      0.00 
  -10   -6    9      0.56      0.00 
  -11   -6    9     -0.07      0.00 
  -12   -6    9     -0.55      0.00 
  -13   -6    9     -0.75      0.00 
  -14   -6    9     -0.60      0.00 
  -15   -6    9     -0.22      0.00 
   12   -7    9      0.46      0.00 
   11   -7    9      0.90      0.00 
   10   -7    9      0.92      0.00 
    9   -7    9      0.22      0.00 
    8   -7    9     -1.03      0.00 
    7   -7    9     -2.28      0.00 
    6   -7    9     -2.91      0.00 
    5   -7    9     -2.56      0.00 
    4   -7    9     -1.38      0.00 
    3   -7    9     -0.14      0.00 
    2   -7    9      0.22      0.00 
    1   -7    9     -0.73      0.00 
    0   -7    9     -2.44      0.00 
   -1   -7    9     -3.75      0.00 
   -2   -7    9     -3.77      0.00 
   -3   -7    9     -2.52      0.00 
   -4   -7    9     -0.82      0.00 
   -5   -7    9      0.32      0.00 
   -6   -7    9      0.39      0.00 
   -7   -7    9     -0.36      0.00 
   -8   -7    9     -1.22      0.00 
   -9   -7    9     -1.56      0.00 
  -10   -7    9     -1.18      0.00 
  -11   -7    9     -0.35      0.00 
  -12   -7    9      0.46      0.00 
  -13   -7    9      0.86      0.00 
  -14   -7    9      0.72      0.00 
  -15   -7    9      0.24      0.00 
   11   -8    9      0.06      0.00 
   10   -8    9     -0.10      0.00 
    9   -8    9     -0.29      0.00 
    8   -8    9     -0.13      0.00 
    7   -8    9      0.48      0.00 
    6   -8    9      1.21      0.00 
    5   -8    9      1.54      0.00 
    4   -8    9      1.22      0.00 
    3   -8    9      0.51      0.00 
    2   -8    9     -0.07      0.00 
    1   -8    9     -0.08      0.00 
    0   -8    9      0.61      0.00 
   -1   -8    9      1.75      0.00 
   -2   -8    9      2.71      0.00 
   -3   -8    9      2.83      0.00 
   -4   -8    9      1.97      0.00 
   -5   -8    9      0.64      0.00 
   -6   -8    9     -0.37      0.00 
   -7   -8    9     -0.65      0.00 
   -8   -8    9     -0.36      0.00 
   -9   -8    9      0.06      0.00 
  -10   -8    9      0.21      0.00 
  -11   -8    9      0.00      0.00 
  -12   -8    9     -0.42      0.00 
  -13   -8    9     -0.74      0.00 
  -14   -8    9     -0.66      0.00 
  -15   -8    9     -0.25      0.00 
   10   -9    9      0.28      0.00 
    9   -9    9      0.84      0.00 
    8   -9    9      1.44      0.00 
    7   -9    9      1.71      0.00 
    6   -9    9      1.51      0.00 
    5   -9    9      0.95      0.00 
    4   -9    9      0.34      0.00 
    3   -9    9     -0.04      0.00 
    2   -9    9      0.04      0.00 
    1   -9    9      0.56      0.00 
    0   -9    9      1.13      0.00 
   -1   -9    9      1.21      0.00 
   -2   -9    9      0.61      0.00 
   -3   -9    9     -0.30      0.00 
   -4   -9    9     -0.86      0.00 
   -5   -9    9     -0.69      0.00 
   -6   -9    9      0.05      0.00 
   -7   -9    9      0.89      0.00 
   -8   -9    9      1.36      0.00 
   -9   -9    9      1.28      0.00 
  -10   -9    9      0.79      0.00 
  -11   -9    9      0.26      0.00 
  -12   -9    9      0.00      0.00 
  -13   -9    9      0.03      0.00 
  -14   -9    9      0.12      0.00 
  -15   -9    9      0.08      0.00 
   10  -10    9     -0.16      0.00 
    9  -10    9     -0.36      0.00 
    8  -10    9     -0.76      0.00 
    7  -10    9     -1.27      0.00 
    6  -10    9     -1.47      0.00 
    5  -10    9     -1.02      0.00 
    4  -10    9     -0.12      0.00 
    3  -10    9      0.69      0.00 
    2  -10    9      0.92      0.00 
    1  -10    9      0.53      0.00 
    0  -10    9     -0.20      0.00 
   -1  -10    9     -0.79      0.00 
   -2  -10    9     -0.78      0.00 
   -3  -10    9     -0.04      0.00 
   -4  -10    9      0.99      0.00 
   -5  -10    9      1.57      0.00 
   -6  -10    9      1.25      0.00 
   -7  -10    9      0.34      0.00 
   -8  -10    9     -0.45      0.00 
   -9  -10    9     -0.66      0.00 
  -10  -10    9     -0.44      0.00 
  -11  -10    9     -0.21      0.00 
  -12  -10    9     -0.16      0.00 
  -13  -10    9     -0.16      0.00 
  -14  -10    9     -0.08      0.00 
    9  -11    9     -0.14      0.00 
    8  -11    9      0.11      0.00 
    7  -11    9      0.48      0.00 
    6  -11    9      0.57      0.00 
    5  -11    9      0.18      0.00 
    4  -11    9     -0.47      0.00 
    3  -11    9     -1.05      0.00 
    2  -11    9     -1.40      0.00 
    1  -11    9     -1.50      0.00 
    0  -11    9     -1.33      0.00 
   -1  -11    9     -0.88      0.00 
   -2  -11    9     -0.38      0.00 
   -3  -11    9     -0.17      0.00 
   -4  -11    9     -0.39      0.00 
   -5  -11    9     -0.80      0.00 
   -6  -11    9     -1.04      0.00 
   -7  -11    9     -0.94      0.00 
   -8  -11    9     -0.58      0.00 
   -9  -11    9     -0.16      0.00 
  -10  -11    9      0.18      0.00 
  -11  -11    9      0.34      0.00 
  -12  -11    9      0.33      0.00 
  -13  -11    9      0.22      0.00 
  -14  -11    9      0.15      0.00 
    8  -12    9     -0.15      0.00 
    7  -12    9     -0.26      0.00 
    6  -12    9     -0.30      0.00 
    5  -12    9     -0.34      0.00 
    4  -12    9     -0.48      0.00 
    3  -12    9     -0.60      0.00 
    2  -12    9     -0.46      0.00 
    1  -12    9      0.01      0.00 
    0  -12    9      0.55      0.00 
   -1  -12    9      0.77      0.00 
   -2  -12    9      0.48      0.00 
   -3  -12    9     -0.22      0.00 
   -4  -12    9     -1.00      0.00 
   -5  -12    9     -1.43      0.00 
   -6  -12    9     -1.23      0.00 
   -7  -12    9     -0.56      0.00 
   -8  -12    9      0.05      0.00 
   -9  -12    9      0.13      0.00 
  -10  -12    9     -0.21      0.00 
  -11  -12    9     -0.48      0.00 
  -12  -12    9     -0.30      0.00 
  -13  -12    9      0.15      0.00 
    0  -13    9      0.70      0.00 
   -1  -13    9      0.00      0.00 
   -2  -13    9     -0.55      0.00 
   -3  -13    9     -0.57      0.00 
   -4  -13    9     -0.04      0.00 
   -5  -13    9      0.63      0.00 
   -6  -13    9      0.99      0.00 
   -7  -13    9      0.88      0.00 
   -8  -13    9      0.46      0.00 
   -9  -13    9      0.04      0.00 
  -10  -13    9     -0.17      0.00 
  -11  -13    9     -0.14      0.00 
  -12  -13    9     -0.02      0.00 
    0  -14    9     -0.58      0.00 
   -1  -14    9     -0.35      0.00 
   -2  -14    9      0.22      0.00 
   -3  -14    9      0.73      0.00 
   -4  -14    9      0.95      0.00 
   -5  -14    9      0.89      0.00 
   -6  -14    9      0.61      0.00 
   -7  -14    9      0.24      0.00 
   -8  -14    9      0.00      0.00 
   -9  -14    9      0.02      0.00 
  -10  -14    9      0.23      0.00 
  -11  -14    9      0.36      0.00 
  -12  -14    9      0.24      0.00 
   -1  -15    9      0.51      0.00 
   -2  -15    9      0.48      0.00 
   -3  -15    9      0.28      0.00 
   -4  -15    9     -0.04      0.00 
   -5  -15    9     -0.28      0.00 
   -6  -15    9     -0.28      0.00 
   -7  -15    9     -0.17      0.00 
   -8  -15    9     -0.12      0.00 
   -9  -15    9     -0.20      0.00 
  -10  -15    9     -0.27      0.00 
  -11  -15    9     -0.23      0.00 
   -2  -16    9     -0.10      0.00 
   -3  -16    9     -0.23      0.00 
   -4  -16    9     -0.24      0.00 
   -5  -16    9     -0.13      0.00 
   -6  -16    9      0.03      0.00 
   -7  -16    9      0.24      0.00 
   -8  -16    9      0.45      0.00 
   -9  -16    9      0.54      0.00 
   -2  -17    9     -0.52      0.00 
   -3  -17    9     -0.44      0.00 
   -4  -17    9     -0.10      0.00 
   -5  -17    9      0.24      0.00 
   -6  -17    9      0.25      0.00 
   -7  -17    9     -0.07      0.00 
    5   21    8     -0.29      0.00 
    9   20    8     -0.04      0.00 
    8   20    8      0.06      0.00 
    7   20    8      0.20      0.00 
    6   20    8      0.21      0.00 
    5   20    8      0.07      0.00 
    4   20    8     -0.08      0.00 
    3   20    8     -0.19      0.00 
    2   20    8     -0.30      0.00 
    1   20    8     -0.45      0.00 
    0   20    8     -0.55      0.00 
   10   19    8      0.79      0.00 
    9   19    8      0.58      0.00 
    8   19    8      0.07      0.00 
    7   19    8     -0.23      0.00 
    6   19    8     -0.17      0.00 
    5   19    8     -0.01      0.00 
    4   19    8      0.03      0.00 
    3   19    8      0.11      0.00 
    2   19    8      0.33      0.00 
    1   19    8      0.52      0.00 
    0   19    8      0.53      0.00 
   -1   19    8      0.42      0.00 
   -2   19    8      0.38      0.00 
   12   18    8      0.05      0.00 
   11   18    8     -0.37      0.00 
   10   18    8     -0.55      0.00 
    9   18    8     -0.35      0.00 
    8   18    8     -0.09      0.00 
    7   18    8     -0.05      0.00 
    6   18    8     -0.13      0.00 
    5   18    8     -0.06      0.00 
    4   18    8      0.18      0.00 
    3   18    8      0.36      0.00 
    2   18    8      0.35      0.00 
    1   18    8      0.25      0.00 
    0   18    8      0.18      0.00 
   -1   18    8      0.14      0.00 
   -2   18    8      0.10      0.00 
   -3   18    8      0.06      0.00 
   -4   18    8      0.04      0.00 
   13   17    8      0.43      0.00 
   12   17    8      0.48      0.00 
   11   17    8      0.23      0.00 
   10   17    8     -0.13      0.00 
    9   17    8     -0.32      0.00 
    8   17    8     -0.25      0.00 
    7   17    8     -0.15      0.00 
    6   17    8     -0.12      0.00 
    5   17    8     -0.05      0.00 
    4   17    8      0.18      0.00 
    3   17    8      0.34      0.00 
    2   17    8      0.20      0.00 
    1   17    8     -0.15      0.00 
    0   17    8     -0.34      0.00 
   -1   17    8     -0.21      0.00 
   -2   17    8      0.01      0.00 
   -3   17    8      0.09      0.00 
   -4   17    8      0.05      0.00 
   -5   17    8      0.02      0.00 
   14   16    8     -0.65      0.00 
   13   16    8     -0.94      0.00 
   12   16    8     -0.88      0.00 
   11   16    8     -0.49      0.00 
   10   16    8     -0.12      0.00 
    9   16    8      0.02      0.00 
    8   16    8      0.09      0.00 
    7   16    8      0.28      0.00 
    6   16    8      0.48      0.00 
    5   16    8      0.44      0.00 
    4   16    8      0.14      0.00 
    3   16    8     -0.16      0.00 
    2   16    8     -0.25      0.00 
    1   16    8     -0.19      0.00 
    0   16    8     -0.08      0.00 
   -1   16    8      0.04      0.00 
   -2   16    8      0.19      0.00 
   -3   16    8      0.27      0.00 
   -4   16    8      0.22      0.00 
   -5   16    8      0.10      0.00 
   -6   16    8      0.01      0.00 
   15   15    8     -0.05      0.00 
   14   15    8     -0.13      0.00 
   13   15    8     -0.21      0.00 
   12   15    8     -0.22      0.00 
   11   15    8     -0.15      0.00 
   10   15    8     -0.08      0.00 
    9   15    8     -0.10      0.00 
    8   15    8     -0.22      0.00 
    7   15    8     -0.25      0.00 
    6   15    8     -0.05      0.00 
    5   15    8      0.22      0.00 
    4   15    8      0.28      0.00 
    3   15    8      0.16      0.00 
    2   15    8      0.15      0.00 
    1   15    8      0.37      0.00 
    0   15    8      0.53      0.00 
   -1   15    8      0.35      0.00 
   -2   15    8     -0.09      0.00 
   -3   15    8     -0.42      0.00 
   -4   15    8     -0.43      0.00 
   -5   15    8     -0.22      0.00 
   -6   15    8      0.02      0.00 
   -7   15    8      0.13      0.00 
   15   14    8      0.07      0.00 
   14   14    8      0.46      0.00 
   13   14    8      0.89      0.00 
   12   14    8      1.12      0.00 
   11   14    8      1.03      0.00 
   10   14    8      0.65      0.00 
    9   14    8      0.18      0.00 
    8   14    8     -0.24      0.00 
    7   14    8     -0.61      0.00 
    6   14    8     -0.93      0.00 
    5   14    8     -1.09      0.00 
    4   14    8     -1.02      0.00 
    3   14    8     -0.85      0.00 
    2   14    8     -0.80      0.00 
    1   14    8     -0.91      0.00 
    0   14    8     -0.96      0.00 
   -1   14    8     -0.81      0.00 
   -2   14    8     -0.54      0.00 
   -3   14    8     -0.34      0.00 
   -4   14    8     -0.32      0.00 
   -5   14    8     -0.41      0.00 
   -6   14    8     -0.47      0.00 
   -7   14    8     -0.34      0.00 
   -8   14    8     -0.04      0.00 
   14   13    8     -0.23      0.00 
   13   13    8     -0.45      0.00 
   12   13    8     -0.74      0.00 
   11   13    8     -0.86      0.00 
   10   13    8     -0.56      0.00 
    9   13    8      0.12      0.00 
    8   13    8      0.83      0.00 
    7   13    8      1.21      0.00 
    6   13    8      1.13      0.00 
    5   13    8      0.68      0.00 
    4   13    8      0.10      0.00 
    3   13    8     -0.41      0.00 
    2   13    8     -0.69      0.00 
    1   13    8     -0.71      0.00 
    0   13    8     -0.53      0.00 
   -1   13    8     -0.25      0.00 
   -2   13    8     -0.02      0.00 
   -3   13    8      0.06      0.00 
   -4   13    8      0.02      0.00 
   -5   13    8      0.00      0.00 
   -6   13    8      0.09      0.00 
   -7   13    8      0.23      0.00 
   -8   13    8      0.33      0.00 
   -9   13    8      0.38      0.00 
   14   12    8      0.05      0.00 
   13   12    8      0.10      0.00 
   12   12    8      0.26      0.00 
   11   12    8      0.29      0.00 
   10   12    8      0.03      0.00 
    9   12    8     -0.37      0.00 
    8   12    8     -0.64      0.00 
    7   12    8     -0.72      0.00 
    6   12    8     -0.61      0.00 
    5   12    8     -0.19      0.00 
    4   12    8      0.72      0.00 
    3   12    8      1.93      0.00 
    2   12    8      2.82      0.00 
    1   12    8      2.90      0.00 
    0   12    8      2.25      0.00 
   -1   12    8      1.37      0.00 
   -2   12    8      0.69      0.00 
   -3   12    8      0.37      0.00 
   -4   12    8      0.36      0.00 
   -5   12    8      0.54      0.00 
   -6   12    8      0.74      0.00 
   -7   12    8      0.70      0.00 
   -8   12    8      0.35      0.00 
   -9   12    8     -0.11      0.00 
  -10   12    8     -0.35      0.00 
   14   11    8      0.49      0.00 
   13   11    8      0.54      0.00 
   12   11    8      0.66      0.00 
   11   11    8      0.82      0.00 
   10   11    8      0.84      0.00 
    9   11    8      0.54      0.00 
    8   11    8      0.00      0.00 
    7   11    8     -0.52      0.00 
    6   11    8     -0.82      0.00 
    5   11    8     -0.96      0.00 
    4   11    8     -1.11      0.00 
    3   11    8     -1.33      0.00 
    2   11    8     -1.44      0.00 
    1   11    8     -1.24      0.00 
    0   11    8     -0.68      0.00 
   -1   11    8      0.07      0.00 
   -2   11    8      0.76      0.00 
   -3   11    8      1.17      0.00 
   -4   11    8      1.19      0.00 
   -5   11    8      0.83      0.00 
   -6   11    8      0.23      0.00 
   -7   11    8     -0.35      0.00 
   -8   11    8     -0.68      0.00 
   -9   11    8     -0.70      0.00 
  -10   11    8     -0.54      0.00 
  -11   11    8     -0.36      0.00 
   13   10    8     -0.43      0.00 
   12   10    8     -0.95      0.00 
   11   10    8     -1.44      0.00 
   10   10    8     -1.46      0.00 
    9   10    8     -0.93      0.00 
    8   10    8     -0.02      0.00 
    7   10    8      1.06      0.00 
    6   10    8      2.03      0.00 
    5   10    8      2.41      0.00 
    4   10    8      1.77      0.00 
    3   10    8      0.26      0.00 
    2   10    8     -1.36      0.00 
    1   10    8     -2.32      0.00 
    0   10    8     -2.50      0.00 
   -1   10    8     -2.36      0.00 
   -2   10    8     -2.31      0.00 
   -3   10    8     -2.36      0.00 
   -4   10    8     -2.29      0.00 
   -5   10    8     -1.96      0.00 
   -6   10    8     -1.42      0.00 
   -7   10    8     -0.77      0.00 
   -8   10    8     -0.17      0.00 
   -9   10    8      0.27      0.00 
  -10   10    8      0.44      0.00 
  -11   10    8      0.34      0.00 
  -12   10    8      0.11      0.00 
   13    9    8     -0.40      0.00 
   12    9    8     -0.20      0.00 
   11    9    8     -0.04      0.00 
   10    9    8     -0.12      0.00 
    9    9    8     -0.35      0.00 
    8    9    8     -0.60      0.00 
    7    9    8     -0.89      0.00 
    6    9    8     -1.06      0.00 
    5    9    8     -0.70      0.00 
    4    9    8      0.48      0.00 
    3    9    8      2.06      0.00 
    2    9    8      3.21      0.00 
    1    9    8      3.33      0.00 
    0    9    8      2.45      0.00 
   -1    9    8      1.04      0.00 
   -2    9    8     -0.29      0.00 
   -3    9    8     -1.07      0.00 
   -4    9    8     -1.12      0.00 
   -5    9    8     -0.66      0.00 
   -6    9    8     -0.17      0.00 
   -7    9    8      0.02      0.00 
   -8    9    8     -0.07      0.00 
   -9    9    8     -0.21      0.00 
  -10    9    8     -0.24      0.00 
  -11    9    8     -0.15      0.00 
  -12    9    8     -0.03      0.00 
   17    8    8      0.18      0.00 
   16    8    8      0.13      0.00 
   15    8    8      0.02      0.00 
   14    8    8      0.08      0.00 
   13    8    8      0.43      0.00 
   12    8    8      1.04      0.00 
   11    8    8      1.71      0.00 
   10    8    8      2.21      0.00 
    9    8    8      2.29      0.00 
    8    8    8      1.82      0.00 
    7    8    8      0.84      0.00 
    6    8    8     -0.44      0.00 
    5    8    8     -1.75      0.00 
    4    8    8     -2.75      0.00 
    3    8    8     -3.20      0.00 
    2    8    8     -3.03      0.00 
    1    8    8     -2.31      0.00 
    0    8    8     -1.04      0.00 
   -1    8    8      0.75      0.00 
   -2    8    8      2.72      0.00 
   -3    8    8      4.15      0.00 
   -4    8    8      4.49      0.00 
   -5    8    8      3.79      0.00 
   -6    8    8      2.66      0.00 
   -7    8    8      1.64      0.00 
   -8    8    8      0.97      0.00 
   -9    8    8      0.61      0.00 
  -10    8    8      0.45      0.00 
  -11    8    8      0.36      0.00 
  -12    8    8      0.21      0.00 
  -13    8    8      0.04      0.00 
   17    7    8     -0.83      0.00 
   16    7    8     -0.98      0.00 
   15    7    8     -0.59      0.00 
   14    7    8     -0.08      0.00 
   13    7    8      0.02      0.00 
   12    7    8     -0.43      0.00 
   11    7    8     -1.08      0.00 
   10    7    8     -1.45      0.00 
    9    7    8     -1.15      0.00 
    8    7    8      0.00      0.00 
    7    7    8      1.82      0.00 
    6    7    8      3.59      0.00 
    5    7    8      4.23      0.00 
    4    7    8      3.10      0.00 
    3    7    8      0.61      0.00 
    2    7    8     -1.94      0.00 
    1    7    8     -3.34      0.00 
    0    7    8     -3.34      0.00 
   -1    7    8     -2.52      0.00 
   -2    7    8     -1.62      0.00 
   -3    7    8     -1.05      0.00 
   -4    7    8     -0.84      0.00 
   -5    7    8     -0.85      0.00 
   -6    7    8     -0.80      0.00 
   -7    7    8     -0.42      0.00 
   -8    7    8      0.15      0.00 
   -9    7    8      0.50      0.00 
  -10    7    8      0.40      0.00 
  -11    7    8      0.11      0.00 
  -12    7    8      0.01      0.00 
  -13    7    8      0.12      0.00 
  -14    7    8      0.21      0.00 
   17    6    8      0.20      0.00 
   16    6    8      0.38      0.00 
   15    6    8      0.45      0.00 
   14    6    8      0.28      0.00 
   13    6    8     -0.08      0.00 
   12    6    8     -0.40      0.00 
   11    6    8     -0.51      0.00 
   10    6    8     -0.53      0.00 
    9    6    8     -0.85      0.00 
    8    6    8     -1.82      0.00 
    7    6    8     -3.40      0.00 
    6    6    8     -5.05      0.00 
    5    6    8     -5.73      0.00 
    4    6    8     -4.41      0.00 
    3    6    8     -0.90      0.00 
    2    6    8      3.54      0.00 
    1    6    8      6.80      0.00 
    0    6    8      7.32      0.00 
   -1    6    8      5.18      0.00 
   -2    6    8      1.86      0.00 
   -3    6    8     -0.94      0.00 
   -4    6    8     -2.31      0.00 
   -5    6    8     -2.38      0.00 
   -6    6    8     -1.88      0.00 
   -7    6    8     -1.50      0.00 
   -8    6    8     -1.48      0.00 
   -9    6    8     -1.59      0.00 
  -10    6    8     -1.51      0.00 
  -11    6    8     -1.18      0.00 
  -12    6    8     -0.78      0.00 
  -13    6    8     -0.45      0.00 
  -14    6    8     -0.23      0.00 
   16    5    8      0.02      0.00 
   15    5    8     -0.22      0.00 
   14    5    8     -0.36      0.00 
   13    5    8     -0.09      0.00 
   12    5    8      0.49      0.00 
   11    5    8      0.99      0.00 
   10    5    8      1.09      0.00 
    9    5    8      0.71      0.00 
    8    5    8     -0.01      0.00 
    7    5    8     -0.76      0.00 
    6    5    8     -1.03      0.00 
    5    5    8     -0.46      0.00 
    4    5    8      0.61      0.00 
    3    5    8      1.22      0.00 
    2    5    8      0.66      0.00 
    1    5    8     -0.67      0.00 
    0    5    8     -1.56      0.00 
   -1    5    8     -1.16      0.00 
   -2    5    8      0.19      0.00 
   -3    5    8      1.38      0.00 
   -4    5    8      1.65      0.00 
   -5    5    8      1.08      0.00 
   -6    5    8      0.24      0.00 
   -7    5    8     -0.42      0.00 
   -8    5    8     -0.69      0.00 
   -9    5    8     -0.54      0.00 
  -10    5    8     -0.08      0.00 
  -11    5    8      0.37      0.00 
  -12    5    8      0.44      0.00 
  -13    5    8      0.17      0.00 
  -14    5    8     -0.09      0.00 
   16    4    8      0.10      0.00 
   15    4    8      0.52      0.00 
   14    4    8      0.84      0.00 
   13    4    8      0.78      0.00 
   12    4    8      0.28      0.00 
   11    4    8     -0.44      0.00 
   10    4    8     -0.93      0.00 
    9    4    8     -0.67      0.00 
    8    4    8      0.68      0.00 
    7    4    8      2.95      0.00 
    6    4    8      5.39      0.00 
    5    4    8      6.74      0.00 
    4    4    8      5.85      0.00 
    3    4    8      2.59      0.00 
    2    4    8     -1.60      0.00 
    1    4    8     -4.54      0.00 
    0    4    8     -4.98      0.00 
   -1    4    8     -3.53      0.00 
   -2    4    8     -1.80      0.00 
   -3    4    8     -0.88      0.00 
   -4    4    8     -0.61      0.00 
   -5    4    8     -0.31      0.00 
   -6    4    8      0.42      0.00 
   -7    4    8      1.41      0.00 
   -8    4    8      2.19      0.00 
   -9    4    8      2.40      0.00 
  -10    4    8      2.00      0.00 
  -11    4    8      1.33      0.00 
  -12    4    8      0.80      0.00 
  -13    4    8      0.54      0.00 
  -14    4    8      0.40      0.00 
  -15    4    8      0.22      0.00 
   16    3    8      0.54      0.00 
   15    3    8      0.43      0.00 
   14    3    8     -0.02      0.00 
   13    3    8     -0.63      0.00 
   12    3    8     -0.97      0.00 
   11    3    8     -0.74      0.00 
   10    3    8     -0.08      0.00 
    9    3    8      0.56      0.00 
    8    3    8      0.76      0.00 
    7    3    8      0.19      0.00 
    6    3    8     -1.28      0.00 
    5    3    8     -2.98      0.00 
    4    3    8     -3.31      0.00 
    3    3    8     -0.95      0.00 
    2    3    8      3.46      0.00 
    1    3    8      7.23      0.00 
    0    3    8      7.80      0.00 
   -1    3    8      4.94      0.00 
   -2    3    8      0.72      0.00 
   -3    3    8     -2.41      0.00 
   -4    3    8     -3.36      0.00 
   -5    3    8     -2.64      0.00 
   -6    3    8     -1.44      0.00 
   -7    3    8     -0.69      0.00 
   -8    3    8     -0.65      0.00 
   -9    3    8     -1.01      0.00 
  -10    3    8     -1.29      0.00 
  -11    3    8     -1.16      0.00 
  -12    3    8     -0.67      0.00 
  -13    3    8     -0.10      0.00 
  -14    3    8      0.19      0.00 
  -15    3    8      0.12      0.00 
   16    2    8     -0.13      0.00 
   15    2    8     -0.52      0.00 
   14    2    8     -0.65      0.00 
   13    2    8     -0.13      0.00 
   12    2    8      0.85      0.00 
   11    2    8      1.72      0.00 
   10    2    8      1.96      0.00 
    9    2    8      1.34      0.00 
    8    2    8      0.02      0.00 
    7    2    8     -1.40      0.00 
    6    2    8     -2.05      0.00 
    5    2    8     -1.65      0.00 
    4    2    8     -1.05      0.00 
    3    2    8     -1.69      0.00 
    2    2    8     -4.11      0.00 
    1    2    8     -7.27      0.00 
    0    2    8     -9.17      0.00 
   -1    2    8     -8.36      0.00 
   -2    2    8     -4.87      0.00 
   -3    2    8     -0.27      0.00 
   -4    2    8      3.36      0.00 
   -5    2    8      4.70      0.00 
   -6    2    8      3.92      0.00 
   -7    2    8      2.26      0.00 
   -8    2    8      0.93      0.00 
   -9    2    8      0.37      0.00 
  -10    2    8      0.33      0.00 
  -11    2    8      0.35      0.00 
  -12    2    8      0.14      0.00 
  -13    2    8     -0.23      0.00 
  -14    2    8     -0.44      0.00 
  -15    2    8     -0.28      0.00 
   15    1    8     -0.28      0.00 
   14    1    8      0.03      0.00 
   13    1    8      0.17      0.00 
   12    1    8     -0.25      0.00 
   11    1    8     -1.19      0.00 
   10    1    8     -2.13      0.00 
    9    1    8     -2.45      0.00 
    8    1    8     -1.75      0.00 
    7    1    8     -0.19      0.00 
    6    1    8      1.53      0.00 
    5    1    8      2.46      0.00 
    4    1    8      1.91      0.00 
    3    1    8      0.09      0.00 
    2    1    8     -1.64      0.00 
    1    1    8     -1.60      0.00 
    0    1    8      0.71      0.00 
   -1    1    8      3.85      0.00 
   -2    1    8      5.53      0.00 
   -3    1    8      4.59      0.00 
   -4    1    8      1.93      0.00 
   -5    1    8     -0.58      0.00 
   -6    1    8     -1.77      0.00 
   -7    1    8     -1.67      0.00 
   -8    1    8     -0.93      0.00 
   -9    1    8     -0.05      0.00 
  -10    1    8      0.65      0.00 
  -11    1    8      0.99      0.00 
  -12    1    8      0.91      0.00 
  -13    1    8      0.50      0.00 
  -14    1    8      0.03      0.00 
  -15    1    8     -0.24      0.00 
   15    0    8     -0.05      0.00 
   14    0    8     -0.19      0.00 
   13    0    8     -0.50      0.00 
   12    0    8     -0.72      0.00 
   11    0    8     -0.52      0.00 
   10    0    8      0.21      0.00 
    9    0    8      1.17      0.00 
    8    0    8      1.76      0.00 
    7    0    8      1.29      0.00 
    6    0    8     -0.52      0.00 
    5    0    8     -2.93      0.00 
    4    0    8     -4.26      0.00 
    3    0    8     -2.92      0.00 
    2    0    8      1.06      0.00 
    1    0    8      5.63      0.00 
    0    0    8      8.18      0.00 
   -1    0    8      7.42      0.00 
   -2    0    8      4.13      0.00 
   -3    0    8      0.39      0.00 
   -4    0    8     -1.98      0.00 
   -5    0    8     -2.39      0.00 
   -6    0    8     -1.54      0.00 
   -7    0    8     -0.66      0.00 
   -8    0    8     -0.59      0.00 
   -9    0    8     -1.30      0.00 
  -10    0    8     -2.16      0.00 
  -11    0    8     -2.54      0.00 
  -12    0    8     -2.17      0.00 
  -13    0    8     -1.26      0.00 
  -14    0    8     -0.31      0.00 
  -15    0    8      0.23      0.00 
  -16    0    8      0.25      0.00 
   15   -1    8      0.16      0.00 
   14   -1    8      0.07      0.00 
   13   -1    8      0.22      0.00 
   12   -1    8      0.70      0.00 
   11   -1    8      1.20      0.00 
   10   -1    8      1.25      0.00 
    9   -1    8      0.64      0.00 
    8   -1    8     -0.32      0.00 
    7   -1    8     -0.94      0.00 
    6   -1    8     -0.43      0.00 
    5   -1    8      1.47      0.00 
    4   -1    8      4.02      0.00 
    3   -1    8      5.45      0.00 
    2   -1    8      3.88      0.00 
    1   -1    8     -1.10      0.00 
    0   -1    8     -7.54      0.00 
   -1   -1    8    -12.06      0.00 
   -2   -1    8    -12.21      0.00 
   -3   -1    8     -8.34      0.00 
   -4   -1    8     -3.19      0.00 
   -5   -1    8      0.46      0.00 
   -6   -1    8      1.67      0.00 
   -7   -1    8      1.30      0.00 
   -8   -1    8      0.70      0.00 
   -9   -1    8      0.61      0.00 
  -10   -1    8      0.99      0.00 
  -11   -1    8      1.38      0.00 
  -12   -1    8      1.32      0.00 
  -13   -1    8      0.78      0.00 
  -14   -1    8      0.18      0.00 
  -15   -1    8     -0.08      0.00 
  -16   -1    8     -0.03      0.00 
   14   -2    8      0.67      0.00 
   13   -2    8      0.95      0.00 
   12   -2    8      0.63      0.00 
   11   -2    8     -0.30      0.00 
   10   -2    8     -1.43      0.00 
    9   -2    8     -2.22      0.00 
    8   -2    8     -2.28      0.00 
    7   -2    8     -1.58      0.00 
    6   -2    8     -0.53      0.00 
    5   -2    8      0.08      0.00 
    4   -2    8     -0.39      0.00 
    3   -2    8     -1.61      0.00 
    2   -2    8     -1.98      0.00 
    1   -2    8      0.33      0.00 
    0   -2    8      5.47      0.00 
   -1   -2    8     11.12      0.00 
   -2   -2    8     14.07      0.00 
   -3   -2    8     12.74      0.00 
   -4   -2    8      8.32      0.00 
   -5   -2    8      3.47      0.00 
   -6   -2    8      0.21      0.00 
   -7   -2    8     -0.94      0.00 
   -8   -2    8     -0.59      0.00 
   -9   -2    8      0.26      0.00 
  -10   -2    8      0.83      0.00 
  -11   -2    8      0.91      0.00 
  -12   -2    8      0.70      0.00 
  -13   -2    8      0.47      0.00 
  -14   -2    8      0.24      0.00 
  -15   -2    8     -0.06      0.00 
  -16   -2    8     -0.29      0.00 
   14   -3    8     -0.83      0.00 
   13   -3    8     -1.35      0.00 
   12   -3    8     -1.51      0.00 
   11   -3    8     -0.98      0.00 
   10   -3    8      0.35      0.00 
    9   -3    8      2.12      0.00 
    8   -3    8      3.54      0.00 
    7   -3    8      3.89      0.00 
    6   -3    8      2.94      0.00 
    5   -3    8      1.13      0.00 
    4   -3    8     -0.66      0.00 
    3   -3    8     -1.65      0.00 
    2   -3    8     -1.60      0.00 
    1   -3    8     -1.15      0.00 
    0   -3    8     -1.46      0.00 
   -1   -3    8     -3.26      0.00 
   -2   -3    8     -5.99      0.00 
   -3   -3    8     -7.99      0.00 
   -4   -3    8     -7.81      0.00 
   -5   -3    8     -5.46      0.00 
   -6   -3    8     -2.38      0.00 
   -7   -3    8     -0.20      0.00 
   -8   -3    8      0.43      0.00 
   -9   -3    8      0.04      0.00 
  -10   -3    8     -0.48      0.00 
  -11   -3    8     -0.72      0.00 
  -12   -3    8     -0.69      0.00 
  -13   -3    8     -0.51      0.00 
  -14   -3    8     -0.19      0.00 
  -15   -3    8      0.17      0.00 
  -16   -3    8      0.37      0.00 
   13   -4    8      0.38      0.00 
   12   -4    8      0.76      0.00 
   11   -4    8      0.97      0.00 
   10   -4    8      0.57      0.00 
    9   -4    8     -0.51      0.00 
    8   -4    8     -1.91      0.00 
    7   -4    8     -3.01      0.00 
    6   -4    8     -3.20      0.00 
    5   -4    8     -2.15      0.00 
    4   -4    8     -0.13      0.00 
    3   -4    8      1.77      0.00 
    2   -4    8      2.03      0.00 
    1   -4    8     -0.13      0.00 
    0   -4    8     -3.82      0.00 
   -1   -4    8     -6.86      0.00 
   -2   -4    8     -7.32      0.00 
   -3   -4    8     -5.01      0.00 
   -4   -4    8     -1.47      0.00 
   -5   -4    8      1.26      0.00 
   -6   -4    8      2.15      0.00 
   -7   -4    8      1.54      0.00 
   -8   -4    8      0.47      0.00 
   -9   -4    8     -0.20      0.00 
  -10   -4    8     -0.28      0.00 
  -11   -4    8     -0.07      0.00 
  -12   -4    8      0.06      0.00 
  -13   -4    8     -0.05      0.00 
  -14   -4    8     -0.25      0.00 
  -15   -4    8     -0.34      0.00 
  -16   -4    8     -0.24      0.00 
   13   -5    8      0.70      0.00 
   12   -5    8      0.76      0.00 
   11   -5    8      0.40      0.00 
   10   -5    8     -0.13      0.00 
    9   -5    8     -0.48      0.00 
    8   -5    8     -0.40      0.00 
    7   -5    8      0.11      0.00 
    6   -5    8      0.70      0.00 
    5   -5    8      0.77      0.00 
    4   -5    8     -0.05      0.00 
    3   -5    8     -1.32      0.00 
    2   -5    8     -1.87      0.00 
    1   -5    8     -0.60      0.00 
    0   -5    8      2.51      0.00 
   -1   -5    8      6.23      0.00 
   -2   -5    8      8.75      0.00 
   -3   -5    8      8.78      0.00 
   -4   -5    8      6.31      0.00 
   -5   -5    8      2.60      0.00 
   -6   -5    8     -0.55      0.00 
   -7   -5    8     -1.90      0.00 
   -8   -5    8     -1.50      0.00 
   -9   -5    8     -0.38      0.00 
  -10   -5    8      0.38      0.00 
  -11   -5    8      0.43      0.00 
  -12   -5    8      0.14      0.00 
  -13   -5    8     -0.03      0.00 
  -14   -5    8      0.05      0.00 
  -15   -5    8      0.19      0.00 
  -16   -5    8      0.21      0.00 
   12   -6    8     -0.95      0.00 
   11   -6    8     -0.92      0.00 
   10   -6    8     -0.29      0.00 
    9   -6    8      0.74      0.00 
    8   -6    8      1.70      0.00 
    7   -6    8      2.22      0.00 
    6   -6    8      2.09      0.00 
    5   -6    8      1.38      0.00 
    4   -6    8      0.43      0.00 
    3   -6    8     -0.10      0.00 
    2   -6    8      0.25      0.00 
    1   -6    8      1.19      0.00 
    0   -6    8      1.75      0.00 
   -1   -6    8      1.14      0.00 
   -2   -6    8     -0.43      0.00 
   -3   -6    8     -1.86      0.00 
   -4   -6    8     -2.11      0.00 
   -5   -6    8     -1.04      0.00 
   -6   -6    8      0.57      0.00 
   -7   -6    8      1.75      0.00 
   -8   -6    8      1.97      0.00 
   -9   -6    8      1.34      0.00 
  -10   -6    8      0.37      0.00 
  -11   -6    8     -0.39      0.00 
  -12   -6    8     -0.63      0.00 
  -13   -6    8     -0.40      0.00 
  -14   -6    8      0.03      0.00 
  -15   -6    8      0.35      0.00 
  -16   -6    8      0.45      0.00 
   12   -7    8      0.17      0.00 
   11   -7    8      0.27      0.00 
   10   -7    8      0.21      0.00 
    9   -7    8     -0.17      0.00 
    8   -7    8     -0.87      0.00 
    7   -7    8     -1.68      0.00 
    6   -7    8     -2.10      0.00 
    5   -7    8     -1.62      0.00 
    4   -7    8     -0.21      0.00 
    3   -7    8      1.32      0.00 
    2   -7    8      1.80      0.00 
    1   -7    8      0.68      0.00 
    0   -7    8     -1.40      0.00 
   -1   -7    8     -3.13      0.00 
   -2   -7    8     -3.51      0.00 
   -3   -7    8     -2.55      0.00 
   -4   -7    8     -1.01      0.00 
   -5   -7    8      0.15      0.00 
   -6   -7    8      0.38      0.00 
   -7   -7    8     -0.18      0.00 
   -8   -7    8     -0.92      0.00 
   -9   -7    8     -1.16      0.00 
  -10   -7    8     -0.66      0.00 
  -11   -7    8      0.27      0.00 
  -12   -7    8      0.99      0.00 
  -13   -7    8      1.07      0.00 
  -14   -7    8      0.52      0.00 
  -15   -7    8     -0.23      0.00 
  -16   -7    8     -0.71      0.00 
   11   -8    8     -0.13      0.00 
   10   -8    8     -0.52      0.00 
    9   -8    8     -0.94      0.00 
    8   -8    8     -1.03      0.00 
    7   -8    8     -0.64      0.00 
    6   -8    8     -0.11      0.00 
    5   -8    8      0.07      0.00 
    4   -8    8     -0.29      0.00 
    3   -8    8     -0.97      0.00 
    2   -8    8     -1.54      0.00 
    1   -8    8     -1.59      0.00 
    0   -8    8     -0.85      0.00 
   -1   -8    8      0.57      0.00 
   -2   -8    8      1.95      0.00 
   -3   -8    8      2.37      0.00 
   -4   -8    8      1.45      0.00 
   -5   -8    8     -0.20      0.00 
   -6   -8    8     -1.53      0.00 
   -7   -8    8     -1.88      0.00 
   -8   -8    8     -1.38      0.00 
   -9   -8    8     -0.60      0.00 
  -10   -8    8     -0.03      0.00 
  -11   -8    8      0.08      0.00 
  -12   -8    8     -0.23      0.00 
  -13   -8    8     -0.63      0.00 
  -14   -8    8     -0.70      0.00 
  -15   -8    8     -0.34      0.00 
   11   -9    8      0.08      0.00 
   10   -9    8      0.34      0.00 
    9   -9    8      0.76      0.00 
    8   -9    8      1.19      0.00 
    7   -9    8      1.40      0.00 
    6   -9    8      1.22      0.00 
    5   -9    8      0.61      0.00 
    4   -9    8     -0.17      0.00 
    3   -9    8     -0.69      0.00 
    2   -9    8     -0.56      0.00 
    1   -9    8      0.11      0.00 
    0   -9    8      0.66      0.00 
   -1   -9    8      0.39      0.00 
   -2   -9    8     -0.71      0.00 
   -3   -9    8     -1.84      0.00 
   -4   -9    8     -2.11      0.00 
   -5   -9    8     -1.27      0.00 
   -6   -9    8      0.12      0.00 
   -7   -9    8      1.27      0.00 
   -8   -9    8      1.69      0.00 
   -9   -9    8      1.36      0.00 
  -10   -9    8      0.56      0.00 
  -11   -9    8     -0.22      0.00 
  -12   -9    8     -0.57      0.00 
  -13   -9    8     -0.39      0.00 
  -14   -9    8      0.03      0.00 
  -15   -9    8      0.30      0.00 
   10  -10    8      0.28      0.00 
    9  -10    8      0.02      0.00 
    8  -10    8     -0.57      0.00 
    7  -10    8     -1.13      0.00 
    6  -10    8     -1.15      0.00 
    5  -10    8     -0.42      0.00 
    4  -10    8      0.72      0.00 
    3  -10    8      1.68      0.00 
    2  -10    8      2.05      0.00 
    1  -10    8      1.76      0.00 
    0  -10    8      1.12      0.00 
   -1  -10    8      0.53      0.00 
   -2  -10    8      0.39      0.00 
   -3  -10    8      0.79      0.00 
   -4  -10    8      1.40      0.00 
   -5  -10    8      1.70      0.00 
   -6  -10    8      1.38      0.00 
   -7  -10    8      0.65      0.00 
   -8  -10    8     -0.06      0.00 
   -9  -10    8     -0.41      0.00 
  -10  -10    8     -0.42      0.00 
  -11  -10    8     -0.28      0.00 
  -12  -10    8     -0.18      0.00 
  -13  -10    8     -0.16      0.00 
  -14  -10    8     -0.21      0.00 
  -15  -10    8     -0.25      0.00 
    9  -11    8      0.05      0.00 
    8  -11    8      0.55      0.00 
    7  -11    8      1.01      0.00 
    6  -11    8      1.04      0.00 
    5  -11    8      0.66      0.00 
    4  -11    8      0.17      0.00 
    3  -11    8     -0.32      0.00 
    2  -11    8     -0.87      0.00 
    1  -11    8     -1.35      0.00 
    0  -11    8     -1.38      0.00 
   -1  -11    8     -0.74      0.00 
   -2  -11    8      0.25      0.00 
   -3  -11    8      0.99      0.00 
   -4  -11    8      1.08      0.00 
   -5  -11    8      0.62      0.00 
   -6  -11    8      0.01      0.00 
   -7  -11    8     -0.39      0.00 
   -8  -11    8     -0.36      0.00 
   -9  -11    8      0.04      0.00 
  -10  -11    8      0.51      0.00 
  -11  -11    8      0.72      0.00 
  -12  -11    8      0.54      0.00 
  -13  -11    8      0.22      0.00 
  -14  -11    8      0.06      0.00 
    7  -12    8      0.38      0.00 
    6  -12    8      0.36      0.00 
    5  -12    8      0.07      0.00 
    4  -12    8     -0.42      0.00 
    3  -12    8     -0.80      0.00 
    2  -12    8     -0.75      0.00 
    1  -12    8     -0.25      0.00 
    0  -12    8      0.33      0.00 
   -1  -12    8      0.55      0.00 
   -2  -12    8      0.22      0.00 
   -3  -12    8     -0.51      0.00 
   -4  -12    8     -1.26      0.00 
   -5  -12    8     -1.66      0.00 
   -6  -12    8     -1.51      0.00 
   -7  -12    8     -0.96      0.00 
   -8  -12    8     -0.40      0.00 
   -9  -12    8     -0.18      0.00 
  -10  -12    8     -0.31      0.00 
  -11  -12    8     -0.48      0.00 
  -12  -12    8     -0.38      0.00 
  -13  -12    8     -0.03      0.00 
  -14  -12    8      0.33      0.00 
    1  -13    8      0.59      0.00 
    0  -13    8      0.40      0.00 
   -1  -13    8     -0.31      0.00 
   -2  -13    8     -1.01      0.00 
   -3  -13    8     -1.16      0.00 
   -4  -13    8     -0.70      0.00 
   -5  -13    8     -0.06      0.00 
   -6  -13    8      0.31      0.00 
   -7  -13    8      0.31      0.00 
   -8  -13    8      0.06      0.00 
   -9  -13    8     -0.26      0.00 
  -10  -13    8     -0.49      0.00 
  -11  -13    8     -0.47      0.00 
  -12  -13    8     -0.24      0.00 
  -13  -13    8      0.04      0.00 
    1  -14    8     -0.13      0.00 
    0  -14    8     -0.32      0.00 
   -1  -14    8     -0.12      0.00 
   -2  -14    8      0.25      0.00 
   -3  -14    8      0.47      0.00 
   -4  -14    8      0.48      0.00 
   -5  -14    8      0.39      0.00 
   -6  -14    8      0.36      0.00 
   -7  -14    8      0.43      0.00 
   -8  -14    8      0.58      0.00 
   -9  -14    8      0.75      0.00 
  -10  -14    8      0.83      0.00 
  -11  -14    8      0.76      0.00 
  -12  -14    8      0.53      0.00 
    0  -15    8      0.09      0.00 
   -1  -15    8      0.16      0.00 
   -2  -15    8      0.35      0.00 
   -3  -15    8      0.41      0.00 
   -4  -15    8      0.22      0.00 
   -5  -15    8     -0.03      0.00 
   -6  -15    8     -0.17      0.00 
   -7  -15    8     -0.25      0.00 
   -8  -15    8     -0.36      0.00 
   -9  -15    8     -0.46      0.00 
  -10  -15    8     -0.43      0.00 
  -11  -15    8     -0.27      0.00 
    0  -16    8     -0.12      0.00 
   -1  -16    8     -0.16      0.00 
   -2  -16    8     -0.19      0.00 
   -3  -16    8     -0.17      0.00 
   -4  -16    8     -0.05      0.00 
   -5  -16    8      0.16      0.00 
   -6  -16    8      0.42      0.00 
   -7  -16    8      0.60      0.00 
   -8  -16    8      0.56      0.00 
   -9  -16    8      0.27      0.00 
  -10  -16    8     -0.07      0.00 
   -1  -17    8      0.37      0.00 
   -2  -17    8      0.18      0.00 
   -3  -17    8      0.16      0.00 
   -4  -17    8      0.44      0.00 
   -5  -17    8      0.68      0.00 
   -6  -17    8      0.49      0.00 
   -7  -17    8     -0.01      0.00 
   -8  -17    8     -0.36      0.00 
   -4  -18    8     -0.58      0.00 
   -5  -18    8     -0.76      0.00 
    5   21    7     -0.17      0.00 
    4   21    7     -0.01      0.00 
    8   20    7      0.28      0.00 
    7   20    7      0.16      0.00 
    6   20    7     -0.18      0.00 
    5   20    7     -0.44      0.00 
    4   20    7     -0.43      0.00 
    3   20    7     -0.27      0.00 
    2   20    7     -0.19      0.00 
    1   20    7     -0.22      0.00 
    0   20    7     -0.24      0.00 
   10   19    7      0.52      0.00 
    9   19    7      0.21      0.00 
    8   19    7     -0.16      0.00 
    7   19    7     -0.15      0.00 
    6   19    7      0.14      0.00 
    5   19    7      0.27      0.00 
    4   19    7      0.09      0.00 
    3   19    7     -0.09      0.00 
    2   19    7     -0.05      0.00 
    1   19    7      0.06      0.00 
    0   19    7      0.05      0.00 
   -1   19    7     -0.03      0.00 
   -2   19    7      0.01      0.00 
   12   18    7      0.01      0.00 
   11   18    7      0.09      0.00 
   10   18    7      0.20      0.00 
    9   18    7      0.26      0.00 
    8   18    7      0.17      0.00 
    7   18    7     -0.03      0.00 
    6   18    7     -0.15      0.00 
    5   18    7     -0.12      0.00 
    4   18    7     -0.03      0.00 
    3   18    7      0.08      0.00 
    2   18    7      0.24      0.00 
    1   18    7      0.40      0.00 
    0   18    7      0.37      0.00 
   -1   18    7      0.12      0.00 
   -2   18    7     -0.15      0.00 
   -3   18    7     -0.23      0.00 
   -4   18    7     -0.12      0.00 
   13   17    7      0.02      0.00 
   12   17    7     -0.02      0.00 
   11   17    7     -0.17      0.00 
   10   17    7     -0.23      0.00 
    9   17    7     -0.04      0.00 
    8   17    7      0.23      0.00 
    7   17    7      0.26      0.00 
    6   17    7      0.05      0.00 
    5   17    7     -0.08      0.00 
    4   17    7      0.08      0.00 
    3   17    7      0.33      0.00 
    2   17    7      0.35      0.00 
    1   17    7      0.14      0.00 
    0   17    7     -0.02      0.00 
   -1   17    7      0.03      0.00 
   -2   17    7      0.13      0.00 
   -3   17    7      0.10      0.00 
   -4   17    7     -0.05      0.00 
   -5   17    7     -0.16      0.00 
   14   16    7      0.52      0.00 
   13   16    7      0.42      0.00 
   12   16    7      0.28      0.00 
   11   16    7      0.07      0.00 
   10   16    7     -0.25      0.00 
    9   16    7     -0.59      0.00 
    8   16    7     -0.71      0.00 
    7   16    7     -0.55      0.00 
    6   16    7     -0.26      0.00 
    5   16    7      0.01      0.00 
    4   16    7      0.22      0.00 
    3   16    7      0.28      0.00 
    2   16    7      0.09      0.00 
    1   16    7     -0.25      0.00 
    0   16    7     -0.40      0.00 
   -1   16    7     -0.13      0.00 
   -2   16    7      0.29      0.00 
   -3   16    7      0.40      0.00 
   -4   16    7      0.10      0.00 
   -5   16    7     -0.31      0.00 
   -6   16    7     -0.49      0.00 
   -7   16    7     -0.39      0.00 
   15   15    7     -0.43      0.00 
   14   15    7     -0.52      0.00 
   13   15    7     -0.48      0.00 
   12   15    7     -0.25      0.00 
   11   15    7      0.12      0.00 
   10   15    7      0.46      0.00 
    9   15    7      0.58      0.00 
    8   15    7      0.49      0.00 
    7   15    7      0.37      0.00 
    6   15    7      0.36      0.00 
    5   15    7      0.31      0.00 
    4   15    7      0.11      0.00 
    3   15    7     -0.08      0.00 
    2   15    7      0.02      0.00 
    1   15    7      0.32      0.00 
    0   15    7      0.45      0.00 
   -1   15    7      0.23      0.00 
   -2   15    7     -0.03      0.00 
   -3   15    7      0.01      0.00 
   -4   15    7      0.33      0.00 
   -5   15    7      0.65      0.00 
   -6   15    7      0.73      0.00 
   -7   15    7      0.58      0.00 
   15   14    7     -0.25      0.00 
   14   14    7     -0.27      0.00 
   13   14    7     -0.23      0.00 
   12   14    7     -0.21      0.00 
   11   14    7     -0.32      0.00 
   10   14    7     -0.53      0.00 
    9   14    7     -0.68      0.00 
    8   14    7     -0.60      0.00 
    7   14    7     -0.28      0.00 
    6   14    7      0.14      0.00 
    5   14    7      0.46      0.00 
    4   14    7      0.53      0.00 
    3   14    7      0.31      0.00 
    2   14    7     -0.01      0.00 
    1   14    7     -0.18      0.00 
    0   14    7     -0.13      0.00 
   -1   14    7     -0.08      0.00 
   -2   14    7     -0.17      0.00 
   -3   14    7     -0.30      0.00 
   -4   14    7     -0.29      0.00 
   -5   14    7     -0.15      0.00 
   -6   14    7     -0.03      0.00 
   -7   14    7     -0.01      0.00 
   -8   14    7     -0.07      0.00 
   14   13    7      0.56      0.00 
   13   13    7      0.47      0.00 
   12   13    7      0.13      0.00 
   11   13    7     -0.16      0.00 
   10   13    7     -0.19      0.00 
    9   13    7     -0.07      0.00 
    8   13    7     -0.07      0.00 
    7   13    7     -0.30      0.00 
    6   13    7     -0.64      0.00 
    5   13    7     -0.93      0.00 
    4   13    7     -1.10      0.00 
    3   13    7     -1.12      0.00 
    2   13    7     -1.02      0.00 
    1   13    7     -0.79      0.00 
    0   13    7     -0.48      0.00 
   -1   13    7     -0.16      0.00 
   -2   13    7      0.02      0.00 
   -3   13    7     -0.09      0.00 
   -4   13    7     -0.43      0.00 
   -5   13    7     -0.75      0.00 
   -6   13    7     -0.77      0.00 
   -7   13    7     -0.50      0.00 
   -8   13    7     -0.16      0.00 
   -9   13    7      0.04      0.00 
   14   12    7     -0.57      0.00 
   13   12    7     -0.28      0.00 
   12   12    7      0.31      0.00 
   11   12    7      0.80      0.00 
   10   12    7      1.01      0.00 
    9   12    7      1.09      0.00 
    8   12    7      1.17      0.00 
    7   12    7      1.08      0.00 
    6   12    7      0.68      0.00 
    5   12    7      0.15      0.00 
    4   12    7     -0.07      0.00 
    3   12    7      0.16      0.00 
    2   12    7      0.44      0.00 
    1   12    7      0.34      0.00 
    0   12    7     -0.18      0.00 
   -1   12    7     -0.70      0.00 
   -2   12    7     -0.87      0.00 
   -3   12    7     -0.66      0.00 
   -4   12    7     -0.28      0.00 
   -5   12    7      0.08      0.00 
   -6   12    7      0.34      0.00 
   -7   12    7      0.44      0.00 
   -8   12    7      0.36      0.00 
   -9   12    7      0.24      0.00 
  -10   12    7      0.19      0.00 
   14   11    7      0.30      0.00 
   13   11    7      0.09      0.00 
   12   11    7     -0.12      0.00 
   11   11    7     -0.39      0.00 
   10   11    7     -0.78      0.00 
    9   11    7     -1.16      0.00 
    8   11    7     -1.29      0.00 
    7   11    7     -1.03      0.00 
    6   11    7     -0.43      0.00 
    5   11    7      0.35      0.00 
    4   11    7      1.10      0.00 
    3   11    7      1.63      0.00 
    2   11    7      1.79      0.00 
    1   11    7      1.61      0.00 
    0   11    7      1.36      0.00 
   -1   11    7      1.28      0.00 
   -2   11    7      1.39      0.00 
   -3   11    7      1.50      0.00 
   -4   11    7      1.41      0.00 
   -5   11    7      1.11      0.00 
   -6   11    7      0.69      0.00 
   -7   11    7      0.30      0.00 
   -8   11    7      0.05      0.00 
   -9   11    7     -0.06      0.00 
  -10   11    7     -0.05      0.00 
  -11   11    7     -0.01      0.00 
   13   10    7      0.77      0.00 
   12   10    7      0.35      0.00 
   11   10    7     -0.09      0.00 
   10   10    7     -0.27      0.00 
    9   10    7     -0.39      0.00 
    8   10    7     -0.71      0.00 
    7   10    7     -1.13      0.00 
    6   10    7     -1.45      0.00 
    5   10    7     -1.69      0.00 
    4   10    7     -2.02      0.00 
    3   10    7     -2.24      0.00 
    2   10    7     -1.93      0.00 
    1   10    7     -0.90      0.00 
    0   10    7      0.41      0.00 
   -1   10    7      1.29      0.00 
   -2   10    7      1.36      0.00 
   -3   10    7      0.82      0.00 
   -4   10    7      0.16      0.00 
   -5   10    7     -0.20      0.00 
   -6   10    7     -0.21      0.00 
   -7   10    7     -0.02      0.00 
   -8   10    7      0.15      0.00 
   -9   10    7      0.20      0.00 
  -10   10    7      0.14      0.00 
  -11   10    7      0.04      0.00 
  -12   10    7     -0.02      0.00 
   13    9    7     -1.01      0.00 
   12    9    7     -1.09      0.00 
   11    9    7     -0.81      0.00 
   10    9    7     -0.15      0.00 
    9    9    7      0.87      0.00 
    8    9    7      1.94      0.00 
    7    9    7      2.59      0.00 
    6    9    7      2.65      0.00 
    5    9    7      2.34      0.00 
    4    9    7      1.83      0.00 
    3    9    7      1.01      0.00 
    2    9    7     -0.28      0.00 
    1    9    7     -1.87      0.00 
    0    9    7     -3.30      0.00 
   -1    9    7     -4.23      0.00 
   -2    9    7     -4.49      0.00 
   -3    9    7     -4.03      0.00 
   -4    9    7     -3.00      0.00 
   -5    9    7     -1.80      0.00 
   -6    9    7     -0.92      0.00 
   -7    9    7     -0.60      0.00 
   -8    9    7     -0.65      0.00 
   -9    9    7     -0.73      0.00 
  -10    9    7     -0.66      0.00 
  -11    9    7     -0.46      0.00 
  -12    9    7     -0.24      0.00 
   17    8    7      0.55      0.00 
   16    8    7      0.27      0.00 
   15    8    7     -0.23      0.00 
   14    8    7     -0.37      0.00 
   13    8    7      0.13      0.00 
   12    8    7      0.91      0.00 
   11    8    7      1.28      0.00 
   10    8    7      0.85      0.00 
    9    8    7     -0.12      0.00 
    8    8    7     -1.03      0.00 
    7    8    7     -1.32      0.00 
    6    8    7     -0.73      0.00 
    5    8    7      0.67      0.00 
    4    8    7      2.46      0.00 
    3    8    7      3.92      0.00 
    2    8    7      4.36      0.00 
    1    8    7      3.57      0.00 
    0    8    7      2.13      0.00 
   -1    8    7      0.89      0.00 
   -2    8    7      0.35      0.00 
   -3    8    7      0.31      0.00 
   -4    8    7      0.30      0.00 
   -5    8    7      0.06      0.00 
   -6    8    7     -0.35      0.00 
   -7    8    7     -0.70      0.00 
   -8    8    7     -0.71      0.00 
   -9    8    7     -0.33      0.00 
  -10    8    7      0.17      0.00 
  -11    8    7      0.41      0.00 
  -12    8    7      0.27      0.00 
  -13    8    7      0.00      0.00 
   17    7    7     -0.47      0.00 
   16    7    7     -0.42      0.00 
   15    7    7     -0.09      0.00 
   14    7    7      0.21      0.00 
   13    7    7      0.25      0.00 
   12    7    7      0.09      0.00 
   11    7    7      0.02      0.00 
   10    7    7      0.22      0.00 
    9    7    7      0.65      0.00 
    8    7    7      1.17      0.00 
    7    7    7      1.47      0.00 
    6    7    7      1.07      0.00 
    5    7    7     -0.49      0.00 
    4    7    7     -3.05      0.00 
    3    7    7     -5.46      0.00 
    2    7    7     -6.14      0.00 
    1    7    7     -4.34      0.00 
    0    7    7     -0.77      0.00 
   -1    7    7      2.85      0.00 
   -2    7    7      5.08      0.00 
   -3    7    7      5.51      0.00 
   -4    7    7      4.62      0.00 
   -5    7    7      3.28      0.00 
   -6    7    7      2.28      0.00 
   -7    7    7      1.89      0.00 
   -8    7    7      1.78      0.00 
   -9    7    7      1.47      0.00 
  -10    7    7      0.84      0.00 
  -11    7    7      0.27      0.00 
  -12    7    7      0.07      0.00 
  -13    7    7      0.14      0.00 
  -14    7    7      0.18      0.00 
   17    6    7     -0.21      0.00 
   16    6    7     -0.08      0.00 
   15    6    7      0.21      0.00 
   14    6    7      0.26      0.00 
   13    6    7     -0.20      0.00 
   12    6    7     -0.91      0.00 
   11    6    7     -1.27      0.00 
   10    6    7     -1.00      0.00 
    9    6    7     -0.34      0.00 
    8    6    7      0.15      0.00 
    7    6    7      0.05      0.00 
    6    6    7     -0.74      0.00 
    5    6    7     -1.87      0.00 
    4    6    7     -2.66      0.00 
    3    6    7     -2.58      0.00 
    2    6    7     -1.88      0.00 
    1    6    7     -1.47      0.00 
    0    6    7     -2.04      0.00 
   -1    6    7     -3.20      0.00 
   -2    6    7     -3.84      0.00 
   -3    6    7     -3.18      0.00 
   -4    6    7     -1.51      0.00 
   -5    6    7      0.22      0.00 
   -6    6    7      1.28      0.00 
   -7    6    7      1.55      0.00 
   -8    6    7      1.27      0.00 
   -9    6    7      0.71      0.00 
  -10    6    7      0.10      0.00 
  -11    6    7     -0.31      0.00 
  -12    6    7     -0.34      0.00 
  -13    6    7     -0.12      0.00 
  -14    6    7      0.08      0.00 
   17    5    7     -0.04      0.00 
   16    5    7     -0.34      0.00 
   15    5    7     -0.70      0.00 
   14    5    7     -0.67      0.00 
   13    5    7     -0.04      0.00 
   12    5    7      0.81      0.00 
   11    5    7      1.19      0.00 
   10    5    7      0.63      0.00 
    9    5    7     -0.89      0.00 
    8    5    7     -2.91      0.00 
    7    5    7     -4.57      0.00 
    6    5    7     -4.70      0.00 
    5    5    7     -2.48      0.00 
    4    5    7      1.72      0.00 
    3    5    7      6.07      0.00 
    2    5    7      8.36      0.00 
    1    5    7      7.62      0.00 
    0    5    7      4.75      0.00 
   -1    5    7      1.52      0.00 
   -2    5    7     -0.92      0.00 
   -3    5    7     -2.51      0.00 
   -4    5    7     -3.65      0.00 
   -5    5    7     -4.50      0.00 
   -6    5    7     -4.94      0.00 
   -7    5    7     -4.89      0.00 
   -8    5    7     -4.32      0.00 
   -9    5    7     -3.23      0.00 
  -10    5    7     -1.87      0.00 
  -11    5    7     -0.74      0.00 
  -12    5    7     -0.24      0.00 
  -13    5    7     -0.26      0.00 
  -14    5    7     -0.32      0.00 
   16    4    7      0.35      0.00 
   15    4    7      0.73      0.00 
   14    4    7      0.97      0.00 
   13    4    7      0.94      0.00 
   12    4    7      0.64      0.00 
   11    4    7      0.19      0.00 
   10    4    7     -0.10      0.00 
    9    4    7      0.22      0.00 
    8    4    7      1.38      0.00 
    7    4    7      3.03      0.00 
    6    4    7      4.19      0.00 
    5    4    7      3.60      0.00 
    4    4    7      0.66      0.00 
    3    4    7     -3.57      0.00 
    2    4    7     -6.54      0.00 
    1    4    7     -5.88      0.00 
    0    4    7     -1.49      0.00 
   -1    4    7      4.16      0.00 
   -2    4    7      7.88      0.00 
   -3    4    7      8.16      0.00 
   -4    4    7      5.87      0.00 
   -5    4    7      3.08      0.00 
   -6    4    7      1.32      0.00 
   -7    4    7      0.84      0.00 
   -8    4    7      0.95      0.00 
   -9    4    7      0.95      0.00 
  -10    4    7      0.67      0.00 
  -11    4    7      0.34      0.00 
  -12    4    7      0.13      0.00 
  -13    4    7      0.01      0.00 
  -14    4    7     -0.13      0.00 
  -15    4    7     -0.22      0.00 
   16    3    7      0.35      0.00 
   15    3    7      0.53      0.00 
   14    3    7      0.17      0.00 
   13    3    7     -0.73      0.00 
   12    3    7     -1.63      0.00 
   11    3    7     -1.89      0.00 
   10    3    7     -1.21      0.00 
    9    3    7      0.16      0.00 
    8    3    7      1.65      0.00 
    7    3    7      2.59      0.00 
    6    3    7      2.71      0.00 
    5    3    7      2.63      0.00 
    4    3    7      3.46      0.00 
    3    3    7      5.48      0.00 
    2    3    7      7.31      0.00 
    1    3    7      6.83      0.00 
    0    3    7      3.30      0.00 
   -1    3    7     -1.83      0.00 
   -2    3    7     -5.91      0.00 
   -3    3    7     -7.07      0.00 
   -4    3    7     -5.24      0.00 
   -5    3    7     -1.83      0.00 
   -6    3    7      1.27      0.00 
   -7    3    7      2.82      0.00 
   -8    3    7      2.78      0.00 
   -9    3    7      1.89      0.00 
  -10    3    7      0.99      0.00 
  -11    3    7      0.53      0.00 
  -12    3    7      0.56      0.00 
  -13    3    7      0.83      0.00 
  -14    3    7      0.96      0.00 
  -15    3    7      0.74      0.00 
   16    2    7     -0.06      0.00 
   15    2    7     -0.50      0.00 
   14    2    7     -0.63      0.00 
   13    2    7     -0.04      0.00 
   12    2    7      1.10      0.00 
   11    2    7      2.13      0.00 
   10    2    7      2.30      0.00 
    9    2    7      1.20      0.00 
    8    2    7     -0.91      0.00 
    7    2    7     -3.08      0.00 
    6    2    7     -4.09      0.00 
    5    2    7     -3.38      0.00 
    4    2    7     -1.61      0.00 
    3    2    7     -0.19      0.00 
    2    2    7     -0.31      0.00 
    1    2    7     -2.18      0.00 
    0    2    7     -4.85      0.00 
   -1    2    7     -6.69      0.00 
   -2    2    7     -6.53      0.00 
   -3    2    7     -4.59      0.00 
   -4    2    7     -2.30      0.00 
   -5    2    7     -0.98      0.00 
   -6    2    7     -0.79      0.00 
   -7    2    7     -1.00      0.00 
   -8    2    7     -0.94      0.00 
   -9    2    7     -0.55      0.00 
  -10    2    7     -0.13      0.00 
  -11    2    7      0.11      0.00 
  -12    2    7      0.10      0.00 
  -13    2    7     -0.06      0.00 
  -14    2    7     -0.19      0.00 
  -15    2    7     -0.17      0.00 
   16    1    7      0.16      0.00 
   15    1    7      0.18      0.00 
   14    1    7      0.21      0.00 
   13    1    7      0.15      0.00 
   12    1    7     -0.17      0.00 
   11    1    7     -0.76      0.00 
   10    1    7     -1.36      0.00 
    9    1    7     -1.51      0.00 
    8    1    7     -0.92      0.00 
    7    1    7      0.32      0.00 
    6    1    7      1.46      0.00 
    5    1    7      1.11      0.00 
    4    1    7     -1.88      0.00 
    3    1    7     -6.93      0.00 
    2    1    7    -11.22      0.00 
    1    1    7    -11.41      0.00 
    0    1    7     -6.46      0.00 
   -1    1    7      1.08      0.00 
   -2    1    7      7.02      0.00 
   -3    1    7      8.80      0.00 
   -4    1    7      6.86      0.00 
   -5    1    7      3.44      0.00 
   -6    1    7      0.55      0.00 
   -7    1    7     -0.95      0.00 
   -8    1    7     -1.15      0.00 
   -9    1    7     -0.65      0.00 
  -10    1    7     -0.10      0.00 
  -11    1    7      0.05      0.00 
  -12    1    7     -0.21      0.00 
  -13    1    7     -0.60      0.00 
  -14    1    7     -0.84      0.00 
  -15    1    7     -0.79      0.00 
  -16    1    7     -0.52      0.00 
   15    0    7     -0.17      0.00 
   14    0    7     -0.09      0.00 
   13    0    7     -0.25      0.00 
   12    0    7     -0.56      0.00 
   11    0    7     -0.66      0.00 
   10    0    7     -0.29      0.00 
    9    0    7      0.57      0.00 
    8    0    7      1.40      0.00 
    7    0    7      1.38      0.00 
    6    0    7      0.04      0.00 
    5    0    7     -1.81      0.00 
    4    0    7     -2.30      0.00 
    3    0    7      0.00      0.00 
    2    0    7      4.51      0.00 
    1    0    7      8.72      0.00 
    0    0    7     10.09      0.00 
   -1    0    7      7.88      0.00 
   -2    0    7      3.59      0.00 
   -3    0    7     -0.28      0.00 
   -4    0    7     -1.85      0.00 
   -5    0    7     -0.90      0.00 
   -6    0    7      1.16      0.00 
   -7    0    7      2.47      0.00 
   -8    0    7      2.11      0.00 
   -9    0    7      0.61      0.00 
  -10    0    7     -0.78      0.00 
  -11    0    7     -1.24      0.00 
  -12    0    7     -0.83      0.00 
  -13    0    7     -0.16      0.00 
  -14    0    7      0.24      0.00 
  -15    0    7      0.30      0.00 
  -16    0    7      0.23      0.00 
   15   -1    7     -0.30      0.00 
   14   -1    7     -0.43      0.00 
   13   -1    7     -0.09      0.00 
   12   -1    7      0.65      0.00 
   11   -1    7      1.41      0.00 
   10   -1    7      1.68      0.00 
    9   -1    7      1.18      0.00 
    8   -1    7      0.11      0.00 
    7   -1    7     -0.79      0.00 
    6   -1    7     -0.56      0.00 
    5   -1    7      1.34      0.00 
    4   -1    7      4.36      0.00 
    3   -1    7      6.72      0.00 
    2   -1    7      6.26      0.00 
    1   -1    7      2.07      0.00 
    0   -1    7     -4.25      0.00 
   -1   -1    7     -9.31      0.00 
   -2   -1    7    -10.44      0.00 
   -3   -1    7     -7.84      0.00 
   -4   -1    7     -4.09      0.00 
   -5   -1    7     -1.70      0.00 
   -6   -1    7     -1.20      0.00 
   -7   -1    7     -1.50      0.00 
   -8   -1    7     -1.45      0.00 
   -9   -1    7     -0.75      0.00 
  -10   -1    7      0.23      0.00 
  -11   -1    7      0.96      0.00 
  -12   -1    7      1.18      0.00 
  -13   -1    7      0.99      0.00 
  -14   -1    7      0.77      0.00 
  -15   -1    7      0.68      0.00 
  -16   -1    7      0.56      0.00 
   15   -2    7      0.52      0.00 
   14   -2    7      0.84      0.00 
   13   -2    7      0.79      0.00 
   12   -2    7      0.17      0.00 
   11   -2    7     -0.93      0.00 
   10   -2    7     -2.12      0.00 
    9   -2    7     -2.91      0.00 
    8   -2    7     -2.88      0.00 
    7   -2    7     -1.98      0.00 
    6   -2    7     -0.74      0.00 
    5   -2    7     -0.10      0.00 
    4   -2    7     -0.86      0.00 
    3   -2    7     -2.64      0.00 
    2   -2    7     -3.62      0.00 
    1   -2    7     -1.65      0.00 
    0   -2    7      3.63      0.00 
   -1   -2    7      9.95      0.00 
   -2   -2    7     13.86      0.00 
   -3   -2    7     13.43      0.00 
   -4   -2    7      9.46      0.00 
   -5   -2    7      4.42      0.00 
   -6   -2    7      0.51      0.00 
   -7   -2    7     -1.35      0.00 
   -8   -2    7     -1.48      0.00 
   -9   -2    7     -0.84      0.00 
  -10   -2    7     -0.33      0.00 
  -11   -2    7     -0.35      0.00 
  -12   -2    7     -0.69      0.00 
  -13   -2    7     -0.97      0.00 
  -14   -2    7     -1.01      0.00 
  -15   -2    7     -0.86      0.00 
  -16   -2    7     -0.61      0.00 
   14   -3    7     -0.69      0.00 
   13   -3    7     -1.05      0.00 
   12   -3    7     -1.11      0.00 
   11   -3    7     -0.54      0.00 
   10   -3    7      0.69      0.00 
    9   -3    7      2.17      0.00 
    8   -3    7      3.22      0.00 
    7   -3    7      3.27      0.00 
    6   -3    7      2.17      0.00 
    5   -3    7      0.26      0.00 
    4   -3    7     -1.57      0.00 
    3   -3    7     -2.33      0.00 
    2   -3    7     -1.68      0.00 
    1   -3    7     -0.49      0.00 
    0   -3    7     -0.46      0.00 
   -1   -3    7     -2.66      0.00 
   -2   -3    7     -6.34      0.00 
   -3   -3    7     -9.28      0.00 
   -4   -3    7     -9.47      0.00 
   -5   -3    7     -6.68      0.00 
   -6   -3    7     -2.58      0.00 
   -7   -3    7      0.66      0.00 
   -8   -3    7      1.90      0.00 
   -9   -3    7      1.49      0.00 
  -10   -3    7      0.56      0.00 
  -11   -3    7     -0.02      0.00 
  -12   -3    7     -0.01      0.00 
  -13   -3    7      0.30      0.00 
  -14   -3    7      0.49      0.00 
  -15   -3    7      0.34      0.00 
  -16   -3    7      0.00      0.00 
   14   -4    7     -0.18      0.00 
   13   -4    7      0.07      0.00 
   12   -4    7      0.59      0.00 
   11   -4    7      0.89      0.00 
   10   -4    7      0.57      0.00 
    9   -4    7     -0.28      0.00 
    8   -4    7     -1.24      0.00 
    7   -4    7     -1.90      0.00 
    6   -4    7     -1.81      0.00 
    5   -4    7     -0.60      0.00 
    4   -4    7      1.44      0.00 
    3   -4    7      2.99      0.00 
    2   -4    7      2.41      0.00 
    1   -4    7     -0.73      0.00 
    0   -4    7     -4.79      0.00 
   -1   -4    7     -7.25      0.00 
   -2   -4    7     -6.62      0.00 
   -3   -4    7     -3.53      0.00 
   -4   -4    7      0.05      0.00 
   -5   -4    7      2.32      0.00 
   -6   -4    7      2.62      0.00 
   -7   -4    7      1.51      0.00 
   -8   -4    7      0.16      0.00 
   -9   -4    7     -0.44      0.00 
  -10   -4    7     -0.06      0.00 
  -11   -4    7      0.74      0.00 
  -12   -4    7      1.14      0.00 
  -13   -4    7      0.83      0.00 
  -14   -4    7      0.18      0.00 
  -15   -4    7     -0.20      0.00 
  -16   -4    7     -0.13      0.00 
   13   -5    7      0.81      0.00 
   12   -5    7      0.62      0.00 
   11   -5    7      0.09      0.00 
   10   -5    7     -0.45      0.00 
    9   -5    7     -0.73      0.00 
    8   -5    7     -0.65      0.00 
    7   -5    7     -0.22      0.00 
    6   -5    7      0.38      0.00 
    5   -5    7      0.74      0.00 
    4   -5    7      0.46      0.00 
    3   -5    7     -0.34      0.00 
    2   -5    7     -0.82      0.00 
    1   -5    7     -0.01      0.00 
    0   -5    7      2.32      0.00 
   -1   -5    7      5.26      0.00 
   -2   -5    7      7.27      0.00 
   -3   -5    7      7.24      0.00 
   -4   -5    7      5.17      0.00 
   -5   -5    7      2.14      0.00 
   -6   -5    7     -0.41      0.00 
   -7   -5    7     -1.51      0.00 
   -8   -5    7     -1.18      0.00 
   -9   -5    7     -0.28      0.00 
  -11   -5    7      0.15      0.00 
  -12   -5    7     -0.35      0.00 
  -13   -5    7     -0.73      0.00 
  -14   -5    7     -0.73      0.00 
  -15   -5    7     -0.46      0.00 
  -16   -5    7     -0.18      0.00 
   13   -6    7     -0.36      0.00 
   12   -6    7     -0.63      0.00 
   11   -6    7     -0.64      0.00 
   10   -6    7     -0.21      0.00 
    9   -6    7      0.52      0.00 
    8   -6    7      1.20      0.00 
    7   -6    7      1.49      0.00 
    6   -6    7      1.09      0.00 
    5   -6    7     -0.11      0.00 
    4   -6    7     -1.69      0.00 
    3   -6    7     -2.53      0.00 
    2   -6    7     -1.68      0.00 
    1   -6    7      0.51      0.00 
    0   -6    7      2.36      0.00 
   -1   -6    7      2.30      0.00 
   -2   -6    7      0.37      0.00 
   -3   -6    7     -1.87      0.00 
   -4   -6    7     -2.81      0.00 
   -5   -6    7     -2.05      0.00 
   -6   -6    7     -0.41      0.00 
   -7   -6    7      1.04      0.00 
   -8   -6    7      1.63      0.00 
   -9   -6    7      1.25      0.00 
  -10   -6    7      0.25      0.00 
  -11   -6    7     -0.80      0.00 
  -12   -6    7     -1.26      0.00 
  -13   -6    7     -0.86      0.00 
  -14   -6    7      0.09      0.00 
  -15   -6    7      0.93      0.00 
  -16   -6    7      1.21      0.00 
   12   -7    7      0.23      0.00 
   11   -7    7      0.57      0.00 
   10   -7    7      0.68      0.00 
    9   -7    7      0.34      0.00 
    8   -7    7     -0.39      0.00 
    7   -7    7     -1.17      0.00 
    6   -7    7     -1.42      0.00 
    5   -7    7     -0.75      0.00 
    4   -7    7      0.62      0.00 
    3   -7    7      1.78      0.00 
    2   -7    7      1.65      0.00 
    1   -7    7     -0.06      0.00 
    0   -7    7     -2.48      0.00 
   -1   -7    7     -4.15      0.00 
   -2   -7    7     -4.02      0.00 
   -3   -7    7     -2.22      0.00 
   -4   -7    7      0.10      0.00 
   -5   -7    7      1.58      0.00 
   -6   -7    7      1.60      0.00 
   -7   -7    7      0.52      0.00 
   -8   -7    7     -0.73      0.00 
   -9   -7    7     -1.32      0.00 
  -10   -7    7     -0.98      0.00 
  -11   -7    7      0.03      0.00 
  -12   -7    7      1.05      0.00 
  -13   -7    7      1.40      0.00 
  -14   -7    7      0.90      0.00 
  -15   -7    7     -0.04      0.00 
  -16   -7    7     -0.70      0.00 
   12   -8    7     -0.12      0.00 
   11   -8    7     -0.28      0.00 
   10   -8    7     -0.56      0.00 
    9   -8    7     -0.69      0.00 
    8   -8    7     -0.46      0.00 
    7   -8    7      0.09      0.00 
    6   -8    7      0.64      0.00 
    5   -8    7      0.93      0.00 
    4   -8    7      0.94      0.00 
    3   -8    7      0.75      0.00 
    2   -8    7      0.47      0.00 
    1   -8    7      0.35      0.00 
    0   -8    7      0.81      0.00 
   -1   -8    7      1.91      0.00 
   -2   -8    7      2.94      0.00 
   -3   -8    7      2.89      0.00 
   -4   -8    7      1.49      0.00 
   -5   -8    7     -0.45      0.00 
   -6   -8    7     -1.77      0.00 
   -7   -8    7     -1.99      0.00 
   -8   -8    7     -1.41      0.00 
   -9   -8    7     -0.55      0.00 
  -10   -8    7      0.20      0.00 
  -11   -8    7      0.51      0.00 
  -12   -8    7      0.19      0.00 
  -13   -8    7     -0.49      0.00 
  -14   -8    7     -0.95      0.00 
  -15   -8    7     -0.86      0.00 
  -16   -8    7     -0.44      0.00 
   11   -9    7     -0.30      0.00 
   10   -9    7     -0.01      0.00 
    9   -9    7      0.52      0.00 
    8   -9    7      1.00      0.00 
    7   -9    7      1.11      0.00 
    6   -9    7      0.66      0.00 
    5   -9    7     -0.31      0.00 
    4   -9    7     -1.44      0.00 
    3   -9    7     -2.13      0.00 
    2   -9    7     -1.93      0.00 
    1   -9    7     -0.98      0.00 
    0   -9    7     -0.02      0.00 
   -1   -9    7      0.17      0.00 
   -2   -9    7     -0.49      0.00 
   -3   -9    7     -1.39      0.00 
   -4   -9    7     -1.77      0.00 
   -5   -9    7     -1.35      0.00 
   -6   -9    7     -0.40      0.00 
   -7   -9    7      0.60      0.00 
   -8   -9    7      1.20      0.00 
   -9   -9    7      1.20      0.00 
  -10   -9    7      0.73      0.00 
  -11   -9    7      0.17      0.00 
  -12   -9    7     -0.08      0.00 
  -13   -9    7      0.06      0.00 
  -14   -9    7      0.36      0.00 
  -15   -9    7      0.54      0.00 
   10  -10    7      0.05      0.00 
    9  -10    7     -0.46      0.00 
    8  -10    7     -1.13      0.00 
    7  -10    7     -1.49      0.00 
    6  -10    7     -1.21      0.00 
    5  -10    7     -0.36      0.00 
    4  -10    7      0.63      0.00 
    3  -10    7      1.34      0.00 
    2  -10    7      1.54      0.00 
    1  -10    7      1.16      0.00 
    0  -10    7      0.26      0.00 
   -1  -10    7     -0.77      0.00 
   -2  -10    7     -1.32      0.00 
   -3  -10    7     -0.96      0.00 
   -4  -10    7      0.09      0.00 
   -5  -10    7      1.05      0.00 
   -6  -10    7      1.28      0.00 
   -7  -10    7      0.79      0.00 
   -8  -10    7      0.07      0.00 
   -9  -10    7     -0.45      0.00 
  -10  -10    7     -0.68      0.00 
  -11  -10    7     -0.74      0.00 
  -12  -10    7     -0.67      0.00 
  -13  -10    7     -0.47      0.00 
  -14  -10    7     -0.24      0.00 
  -15  -10    7     -0.09      0.00 
    9  -11    7      0.02      0.00 
    8  -11    7     -0.06      0.00 
    7  -11    7     -0.05      0.00 
    6  -11    7      0.02      0.00 
    5  -11    7      0.17      0.00 
    4  -11    7      0.36      0.00 
    3  -11    7      0.33      0.00 
    2  -11    7     -0.09      0.00 
    1  -11    7     -0.62      0.00 
    0  -11    7     -0.67      0.00 
   -1  -11    7     -0.03      0.00 
   -2  -11    7      0.85      0.00 
   -3  -11    7      1.28      0.00 
   -4  -11    7      1.07      0.00 
   -5  -11    7      0.55      0.00 
   -6  -11    7      0.17      0.00 
   -7  -11    7      0.03      0.00 
   -8  -11    7      0.10      0.00 
   -9  -11    7      0.30      0.00 
  -10  -11    7      0.55      0.00 
  -11  -11    7      0.61      0.00 
  -12  -11    7      0.30      0.00 
  -13  -11    7     -0.22      0.00 
  -14  -11    7     -0.53      0.00 
  -15  -11    7     -0.45      0.00 
    6  -12    7      1.17      0.00 
    5  -12    7      0.54      0.00 
    4  -12    7     -0.26      0.00 
    3  -12    7     -0.74      0.00 
    2  -12    7     -0.67      0.00 
    1  -12    7     -0.14      0.00 
    0  -12    7      0.52      0.00 
   -1  -12    7      0.93      0.00 
   -2  -12    7      0.87      0.00 
   -3  -12    7      0.39      0.00 
   -4  -12    7     -0.25      0.00 
   -5  -12    7     -0.69      0.00 
   -6  -12    7     -0.76      0.00 
   -7  -12    7     -0.50      0.00 
   -8  -12    7     -0.13      0.00 
   -9  -12    7      0.11      0.00 
  -10  -12    7      0.13      0.00 
  -11  -12    7      0.05      0.00 
  -12  -12    7      0.07      0.00 
  -13  -12    7      0.26      0.00 
  -14  -12    7      0.49      0.00 
    2  -13    7      0.32      0.00 
    1  -13    7      0.56      0.00 
    0  -13    7      0.32      0.00 
   -1  -13    7     -0.33      0.00 
   -2  -13    7     -0.87      0.00 
   -3  -13    7     -0.85      0.00 
   -4  -13    7     -0.38      0.00 
   -5  -13    7      0.05      0.00 
   -6  -13    7      0.07      0.00 
   -7  -13    7     -0.26      0.00 
   -8  -13    7     -0.66      0.00 
   -9  -13    7     -0.93      0.00 
  -10  -13    7     -1.01      0.00 
  -11  -13    7     -0.87      0.00 
  -12  -13    7     -0.52      0.00 
  -13  -13    7     -0.07      0.00 
    2  -14    7     -0.08      0.00 
    1  -14    7     -0.43      0.00 
    0  -14    7     -0.55      0.00 
   -1  -14    7     -0.45      0.00 
   -2  -14    7     -0.26      0.00 
   -3  -14    7     -0.08      0.00 
   -4  -14    7      0.04      0.00 
   -5  -14    7      0.12      0.00 
   -6  -14    7      0.18      0.00 
   -7  -14    7      0.33      0.00 
   -8  -14    7      0.55      0.00 
   -9  -14    7      0.73      0.00 
  -10  -14    7      0.70      0.00 
  -11  -14    7      0.45      0.00 
  -12  -14    7      0.11      0.00 
  -13  -14    7     -0.16      0.00 
    1  -15    7      0.48      0.00 
    0  -15    7      0.57      0.00 
   -1  -15    7      0.59      0.00 
   -2  -15    7      0.48      0.00 
   -3  -15    7      0.16      0.00 
   -4  -15    7     -0.29      0.00 
   -5  -15    7     -0.57      0.00 
   -6  -15    7     -0.52      0.00 
   -7  -15    7     -0.25      0.00 
   -8  -15    7     -0.01      0.00 
   -9  -15    7      0.14      0.00 
  -10  -15    7      0.26      0.00 
  -11  -15    7      0.40      0.00 
  -12  -15    7      0.49      0.00 
    1  -16    7     -0.40      0.00 
    0  -16    7     -0.45      0.00 
   -1  -16    7     -0.33      0.00 
   -2  -16    7     -0.17      0.00 
   -3  -16    7     -0.11      0.00 
   -4  -16    7     -0.14      0.00 
   -5  -16    7     -0.07      0.00 
   -6  -16    7      0.17      0.00 
   -7  -16    7      0.41      0.00 
   -8  -16    7      0.38      0.00 
   -9  -16    7      0.07      0.00 
  -10  -16    7     -0.25      0.00 
    0  -17    7      0.00      0.00 
   -1  -17    7     -0.18      0.00 
   -2  -17    7     -0.16      0.00 
   -3  -17    7      0.23      0.00 
   -4  -17    7      0.83      0.00 
   -5  -17    7      1.15      0.00 
   -6  -17    7      0.89      0.00 
   -7  -17    7      0.27      0.00 
   -8  -17    7     -0.24      0.00 
   -9  -17    7     -0.41      0.00 
   -2  -18    7      0.14      0.00 
   -3  -18    7     -0.09      0.00 
   -4  -18    7     -0.30      0.00 
   -5  -18    7     -0.34      0.00 
   -6  -18    7     -0.27      0.00 
    5   21    6      0.19      0.00 
    4   21    6     -0.06      0.00 
    8   20    6      0.07      0.00 
    7   20    6     -0.09      0.00 
    6   20    6     -0.39      0.00 
    5   20    6     -0.48      0.00 
    4   20    6     -0.29      0.00 
    3   20    6     -0.12      0.00 
    2   20    6     -0.15      0.00 
    1   20    6     -0.27      0.00 
    0   20    6     -0.28      0.00 
   10   19    6      0.57      0.00 
    9   19    6      0.33      0.00 
    8   19    6     -0.02      0.00 
    7   19    6     -0.15      0.00 
    6   19    6     -0.09      0.00 
    5   19    6     -0.03      0.00 
    4   19    6     -0.02      0.00 
    3   19    6      0.04      0.00 
    2   19    6      0.11      0.00 
    1   19    6      0.08      0.00 
    0   19    6     -0.03      0.00 
   -1   19    6     -0.06      0.00 
   -2   19    6      0.08      0.00 
   12   18    6      0.17      0.00 
   11   18    6     -0.03      0.00 
   10   18    6     -0.09      0.00 
    9   18    6     -0.07      0.00 
    8   18    6     -0.08      0.00 
    7   18    6     -0.04      0.00 
    6   18    6      0.06      0.00 
    5   18    6      0.07      0.00 
    4   18    6     -0.14      0.00 
    3   18    6     -0.35      0.00 
    2   18    6     -0.24      0.00 
    1   18    6      0.07      0.00 
    0   18    6      0.19      0.00 
   -1   18    6     -0.02      0.00 
   -2   18    6     -0.24      0.00 
   -3   18    6     -0.13      0.00 
   -4   18    6      0.20      0.00 
   13   17    6     -0.33      0.00 
   12   17    6      0.02      0.00 
   11   17    6      0.28      0.00 
   10   17    6      0.42      0.00 
    9   17    6      0.47      0.00 
    8   17    6      0.41      0.00 
    7   17    6      0.15      0.00 
    6   17    6     -0.19      0.00 
    5   17    6     -0.38      0.00 
    4   17    6     -0.30      0.00 
    3   17    6     -0.06      0.00 
    2   17    6      0.14      0.00 
    1   17    6      0.25      0.00 
    0   17    6      0.28      0.00 
   -1   17    6      0.27      0.00 
   -2   17    6      0.26      0.00 
   -3   17    6      0.27      0.00 
   -4   17    6      0.30      0.00 
   -5   17    6      0.33      0.00 
   14   16    6     -0.28      0.00 
   13   16    6     -0.57      0.00 
   12   16    6     -0.70      0.00 
   11   16    6     -0.68      0.00 
   10   16    6     -0.60      0.00 
    9   16    6     -0.46      0.00 
    8   16    6     -0.24      0.00 
    7   16    6     -0.03      0.00 
    6   16    6      0.05      0.00 
    5   16    6      0.09      0.00 
    4   16    6      0.25      0.00 
    3   16    6      0.44      0.00 
    2   16    6      0.40      0.00 
    1   16    6      0.11      0.00 
    0   16    6     -0.09      0.00 
   -1   16    6      0.05      0.00 
   -2   16    6      0.25      0.00 
   -3   16    6      0.11      0.00 
   -4   16    6     -0.40      0.00 
   -5   16    6     -0.88      0.00 
   -6   16    6     -0.99      0.00 
   -7   16    6     -0.75      0.00 
   15   15    6      0.46      0.00 
   14   15    6      0.67      0.00 
   13   15    6      0.77      0.00 
   12   15    6      0.79      0.00 
   11   15    6      0.71      0.00 
   10   15    6      0.50      0.00 
    9   15    6      0.12      0.00 
    8   15    6     -0.25      0.00 
    7   15    6     -0.37      0.00 
    6   15    6     -0.17      0.00 
    5   15    6      0.16      0.00 
    4   15    6      0.38      0.00 
    3   15    6      0.44      0.00 
    2   15    6      0.42      0.00 
    1   15    6      0.31      0.00 
    0   15    6      0.08      0.00 
   -1   15    6     -0.13      0.00 
   -2   15    6     -0.17      0.00 
   -3   15    6     -0.09      0.00 
   -4   15    6     -0.03      0.00 
   -5   15    6     -0.06      0.00 
   -6   15    6     -0.08      0.00 
   -7   15    6     -0.05      0.00 
   15   14    6     -0.36      0.00 
   14   14    6     -0.12      0.00 
   13   14    6      0.30      0.00 
   12   14    6      0.66      0.00 
   11   14    6      0.76      0.00 
   10   14    6      0.63      0.00 
    9   14    6      0.46      0.00 
    8   14    6      0.39      0.00 
    7   14    6      0.40      0.00 
    6   14    6      0.35      0.00 
    5   14    6      0.21      0.00 
    4   14    6     -0.01      0.00 
    3   14    6     -0.27      0.00 
    2   14    6     -0.45      0.00 
    1   14    6     -0.45      0.00 
    0   14    6     -0.31      0.00 
   -1   14    6     -0.19      0.00 
   -2   14    6     -0.14      0.00 
   -3   14    6     -0.01      0.00 
   -4   14    6      0.23      0.00 
   -5   14    6      0.43      0.00 
   -6   14    6      0.45      0.00 
   -7   14    6      0.39      0.00 
   -8   14    6      0.39      0.00 
   14   13    6     -0.54      0.00 
   13   13    6     -1.17      0.00 
   12   13    6     -1.78      0.00 
   11   13    6     -1.96      0.00 
   10   13    6     -1.61      0.00 
    9   13    6     -1.00      0.00 
    8   13    6     -0.42      0.00 
    7   13    6      0.06      0.00 
    6   13    6      0.44      0.00 
    5   13    6      0.60      0.00 
    4   13    6      0.37      0.00 
    3   13    6     -0.08      0.00 
    2   13    6     -0.38      0.00 
    1   13    6     -0.23      0.00 
    0   13    6      0.20      0.00 
   -1   13    6      0.53      0.00 
   -2   13    6      0.48      0.00 
   -3   13    6      0.18      0.00 
   -4   13    6     -0.07      0.00 
   -5   13    6     -0.05      0.00 
   -6   13    6      0.12      0.00 
   -7   13    6      0.20      0.00 
   -8   13    6      0.07      0.00 
   -9   13    6     -0.18      0.00 
   14   12    6      0.27      0.00 
   13   12    6      0.65      0.00 
   12   12    6      1.00      0.00 
   11   12    6      1.05      0.00 
   10   12    6      0.73      0.00 
    9   12    6      0.19      0.00 
    8   12    6     -0.40      0.00 
    7   12    6     -1.01      0.00 
    6   12    6     -1.52      0.00 
    5   12    6     -1.65      0.00 
    4   12    6     -1.17      0.00 
    3   12    6     -0.25      0.00 
    2   12    6      0.52      0.00 
    1   12    6      0.65      0.00 
    0   12    6      0.16      0.00 
   -1   12    6     -0.48      0.00 
   -2   12    6     -0.81      0.00 
   -3   12    6     -0.79      0.00 
   -4   12    6     -0.61      0.00 
   -5   12    6     -0.43      0.00 
   -6   12    6     -0.27      0.00 
   -7   12    6     -0.17      0.00 
   -8   12    6     -0.18      0.00 
   -9   12    6     -0.25      0.00 
  -10   12    6     -0.25      0.00 
   14   11    6     -0.08      0.00 
   13   11    6      0.21      0.00 
   12   11    6      0.80      0.00 
   11   11    6      1.25      0.00 
   10   11    6      1.36      0.00 
    9   11    6      1.37      0.00 
    8   11    6      1.52      0.00 
    7   11    6      1.69      0.00 
    6   11    6      1.52      0.00 
    5   11    6      0.90      0.00 
    4   11    6      0.07      0.00 
    3   11    6     -0.68      0.00 
    2   11    6     -1.23      0.00 
    1   11    6     -1.55      0.00 
    0   11    6     -1.52      0.00 
   -1   11    6     -1.05      0.00 
   -2   11    6     -0.28      0.00 
   -3   11    6      0.40      0.00 
   -4   11    6      0.65      0.00 
   -5   11    6      0.43      0.00 
   -6   11    6      0.00      0.00 
   -7   11    6     -0.29      0.00 
   -8   11    6     -0.28      0.00 
   -9   11    6     -0.09      0.00 
  -10   11    6      0.08      0.00 
  -11   11    6      0.10      0.00 
   13   10    6      0.15      0.00 
   12   10    6     -0.82      0.00 
   11   10    6     -1.75      0.00 
   10   10    6     -2.25      0.00 
    9   10    6     -2.33      0.00 
    8   10    6     -1.98      0.00 
    7   10    6     -1.10      0.00 
    6   10    6      0.19      0.00 
    5   10    6      1.41      0.00 
    4   10    6      2.16      0.00 
    3   10    6      2.48      0.00 
    2   10    6      2.68      0.00 
    1   10    6      2.90      0.00 
    0   10    6      2.96      0.00 
   -1   10    6      2.65      0.00 
   -2   10    6      1.95      0.00 
   -3   10    6      1.07      0.00 
   -4   10    6      0.32      0.00 
   -5   10    6     -0.01      0.00 
   -6   10    6      0.14      0.00 
   -7   10    6      0.54      0.00 
   -8   10    6      0.85      0.00 
   -9   10    6      0.83      0.00 
  -10   10    6      0.57      0.00 
  -11   10    6      0.26      0.00 
  -12   10    6      0.08      0.00 
   15    9    6      0.01      0.00 
   14    9    6     -0.16      0.00 
   13    9    6     -0.42      0.00 
   12    9    6     -0.59      0.00 
   11    9    6     -0.54      0.00 
   10    9    6     -0.28      0.00 
    9    9    6     -0.19      0.00 
    8    9    6     -0.80      0.00 
    7    9    6     -2.17      0.00 
    6    9    6     -3.64      0.00 
    5    9    6     -4.26      0.00 
    4    9    6     -3.64      0.00 
    3    9    6     -2.16      0.00 
    2    9    6     -0.53      0.00 
    1    9    6      0.73      0.00 
    0    9    6      1.33      0.00 
   -1    9    6      1.22      0.00 
   -2    9    6      0.63      0.00 
   -3    9    6      0.09      0.00 
   -4    9    6      0.01      0.00 
   -5    9    6      0.32      0.00 
   -6    9    6      0.58      0.00 
   -7    9    6      0.42      0.00 
   -8    9    6     -0.06      0.00 
   -9    9    6     -0.47      0.00 
  -10    9    6     -0.52      0.00 
  -11    9    6     -0.24      0.00 
  -12    9    6      0.10      0.00 
   17    8    6      0.42      0.00 
   16    8    6      0.16      0.00 
   15    8    6     -0.27      0.00 
   14    8    6     -0.40      0.00 
   13    8    6      0.03      0.00 
   12    8    6      0.79      0.00 
   11    8    6      1.41      0.00 
   10    8    6      1.77      0.00 
    9    8    6      2.03      0.00 
    8    8    6      2.37      0.00 
    7    8    6      2.68      0.00 
    6    8    6      2.74      0.00 
    5    8    6      2.43      0.00 
    4    8    6      1.60      0.00 
    3    8    6      0.00      0.00 
    2    8    6     -2.46      0.00 
    1    8    6     -5.17      0.00 
    0    8    6     -6.98      0.00 
   -1    8    6     -7.05      0.00 
   -2    8    6     -5.56      0.00 
   -3    8    6     -3.50      0.00 
   -4    8    6     -1.86      0.00 
   -5    8    6     -1.08      0.00 
   -6    8    6     -1.02      0.00 
   -7    8    6     -1.21      0.00 
   -8    8    6     -1.16      0.00 
   -9    8    6     -0.68      0.00 
  -10    8    6     -0.07      0.00 
  -11    8    6      0.24      0.00 
  -12    8    6      0.12      0.00 
  -13    8    6     -0.11      0.00 
   17    7    6      0.04      0.00 
   16    7    6     -0.01      0.00 
   15    7    6     -0.03      0.00 
   14    7    6      0.01      0.00 
   13    7    6      0.08      0.00 
   12    7    6      0.04      0.00 
   11    7    6     -0.26      0.00 
   10    7    6     -0.68      0.00 
    9    7    6     -0.70      0.00 
    8    7    6      0.28      0.00 
    7    7    6      2.36      0.00 
    6    7    6      4.81      0.00 
    5    7    6      6.42      0.00 
    4    7    6      6.34      0.00 
    3    7    6      4.86      0.00 
    2    7    6      3.17      0.00 
    1    7    6      2.26      0.00 
    0    7    6      2.11      0.00 
   -1    7    6      1.93      0.00 
   -2    7    6      1.13      0.00 
   -3    7    6     -0.15      0.00 
   -4    7    6     -1.33      0.00 
   -5    7    6     -1.90      0.00 
   -6    7    6     -1.76      0.00 
   -7    7    6     -1.12      0.00 
   -8    7    6     -0.37      0.00 
   -9    7    6      0.09      0.00 
  -10    7    6      0.18      0.00 
  -11    7    6      0.08      0.00 
  -12    7    6      0.01      0.00 
  -13    7    6      0.01      0.00 
  -14    7    6     -0.02      0.00 
   17    6    6     -0.09      0.00 
   16    6    6      0.24      0.00 
   15    6    6      0.56      0.00 
   14    6    6      0.44      0.00 
   13    6    6     -0.12      0.00 
   12    6    6     -0.57      0.00 
   11    6    6     -0.36      0.00 
   10    6    6      0.38      0.00 
    9    6    6      0.92      0.00 
    8    6    6      0.39      0.00 
    7    6    6     -1.60      0.00 
    6    6    6     -4.75      0.00 
    5    6    6     -7.85      0.00 
    4    6    6     -9.16      0.00 
    3    6    6     -7.38      0.00 
    2    6    6     -2.85      0.00 
    1    6    6      2.42      0.00 
    0    6    6      6.18      0.00 
   -1    6    6      7.57      0.00 
   -2    6    6      7.34      0.00 
   -3    6    6      6.74      0.00 
   -4    6    6      6.30      0.00 
   -5    6    6      5.85      0.00 
   -6    6    6      5.11      0.00 
   -7    6    6      4.10      0.00 
   -8    6    6      2.89      0.00 
   -9    6    6      1.59      0.00 
  -10    6    6      0.39      0.00 
  -11    6    6     -0.35      0.00 
  -12    6    6     -0.50      0.00 
  -13    6    6     -0.31      0.00 
  -14    6    6     -0.13      0.00 
   17    5    6     -0.34      0.00 
   16    5    6     -0.85      0.00 
   15    5    6     -1.15      0.00 
   14    5    6     -0.95      0.00 
   13    5    6     -0.38      0.00 
   12    5    6      0.16      0.00 
   11    5    6      0.37      0.00 
   10    5    6      0.11      0.00 
    9    5    6     -0.66      0.00 
    8    5    6     -1.81      0.00 
    7    5    6     -2.73      0.00 
    6    5    6     -2.61      0.00 
    5    5    6     -1.26      0.00 
    4    5    6      0.36      0.00 
    3    5    6      0.59      0.00 
    2    5    6     -1.59      0.00 
    1    5    6     -5.46      0.00 
    0    5    6     -8.90      0.00 
   -1    5    6     -9.90      0.00 
   -2    5    6     -8.09      0.00 
   -3    5    6     -4.77      0.00 
   -4    5    6     -1.86      0.00 
   -5    5    6     -0.45      0.00 
   -6    5    6     -0.39      0.00 
   -7    5    6     -0.80      0.00 
   -8    5    6     -0.88      0.00 
   -9    5    6     -0.46      0.00 
  -10    5    6      0.12      0.00 
  -11    5    6      0.42      0.00 
  -12    5    6      0.38      0.00 
  -13    5    6      0.23      0.00 
  -14    5    6      0.18      0.00 
  -15    5    6      0.20      0.00 
   17    4    6     -0.18      0.00 
   16    4    6     -0.07      0.00 
   15    4    6      0.18      0.00 
   14    4    6      0.54      0.00 
   13    4    6      0.84      0.00 
   12    4    6      0.74      0.00 
   11    4    6      0.00      0.00 
   10    4    6     -1.13      0.00 
    9    4    6     -1.94      0.00 
    8    4    6     -1.75      0.00 
    7    4    6     -0.53      0.00 
    6    4    6      1.10      0.00 
    5    4    6      2.15      0.00 
    4    4    6      1.98      0.00 
    3    4    6      0.91      0.00 
    2    4    6      0.16      0.00 
    1    4    6      0.77      0.00 
    0    4    6      2.49      0.00 
   -1    4    6      3.76      0.00 
   -2    4    6      3.02      0.00 
   -3    4    6      0.12      0.00 
   -4    4    6     -3.49      0.00 
   -5    4    6     -5.92      0.00 
   -6    4    6     -6.22      0.00 
   -7    4    6     -4.84      0.00 
   -8    4    6     -2.98      0.00 
   -9    4    6     -1.57      0.00 
  -10    4    6     -0.79      0.00 
  -11    4    6     -0.46      0.00 
  -12    4    6     -0.41      0.00 
  -13    4    6     -0.52      0.00 
  -14    4    6     -0.58      0.00 
  -15    4    6     -0.45      0.00 
   16    3    6      0.62      0.00 
   15    3    6      0.90      0.00 
   14    3    6      0.58      0.00 
   13    3    6     -0.26      0.00 
   12    3    6     -0.98      0.00 
   11    3    6     -0.96      0.00 
   10    3    6     -0.07      0.00 
    9    3    6      1.44      0.00 
    8    3    6      2.88      0.00 
    7    3    6      3.25      0.00 
    6    3    6      1.99      0.00 
    5    3    6     -0.05      0.00 
    4    3    6     -0.74      0.00 
    3    3    6      1.45      0.00 
    2    3    6      5.85      0.00 
    1    3    6      9.95      0.00 
    0    3    6     11.56      0.00 
   -1    3    6     10.28      0.00 
   -2    3    6      7.35      0.00 
   -3    3    6      4.44      0.00 
   -4    3    6      2.66      0.00 
   -5    3    6      2.11      0.00 
   -6    3    6      2.08      0.00 
   -7    3    6      1.73      0.00 
   -8    3    6      0.75      0.00 
   -9    3    6     -0.49      0.00 
  -10    3    6     -1.31      0.00 
  -11    3    6     -1.31      0.00 
  -12    3    6     -0.62      0.00 
  -13    3    6      0.19      0.00 
  -14    3    6      0.56      0.00 
  -15    3    6      0.42      0.00 
   16    2    6      0.05      0.00 
   15    2    6     -0.14      0.00 
   14    2    6     -0.12      0.00 
   13    2    6      0.28      0.00 
   12    2    6      0.95      0.00 
   11    2    6      1.62      0.00 
   10    2    6      1.93      0.00 
    9    2    6      1.56      0.00 
    8    2    6      0.64      0.00 
    7    2    6      0.09      0.00 
    6    2    6      1.17      0.00 
    5    2    6      4.17      0.00 
    4    2    6      7.51      0.00 
    3    2    6      8.40      0.00 
    2    2    6      4.83      0.00 
    1    2    6     -2.54      0.00 
    0    2    6    -10.37      0.00 
   -1    2    6    -14.59      0.00 
   -2    2    6    -13.20      0.00 
   -3    2    6     -7.56      0.00 
   -4    2    6     -1.06      0.00 
   -5    2    6      3.39      0.00 
   -6    2    6      5.00      0.00 
   -7    2    6      4.72      0.00 
   -8    2    6      3.86      0.00 
   -9    2    6      3.16      0.00 
  -10    2    6      2.70      0.00 
  -11    2    6      2.25      0.00 
  -12    2    6      1.67      0.00 
  -13    2    6      1.10      0.00 
  -14    2    6      0.77      0.00 
  -15    2    6      0.66      0.00 
  -16    2    6      0.54      0.00 
   16    1    6      0.12      0.00 
   15    1    6     -0.02      0.00 
   14    1    6     -0.10      0.00 
   13    1    6     -0.17      0.00 
   12    1    6     -0.40      0.00 
   11    1    6     -0.90      0.00 
   10    1    6     -1.58      0.00 
    9    1    6     -2.15      0.00 
    8    1    6     -2.21      0.00 
    7    1    6     -1.56      0.00 
    6    1    6     -0.69      0.00 
    5    1    6     -0.80      0.00 
    4    1    6     -2.88      0.00 
    3    1    6     -6.30      0.00 
    2    1    6     -8.57      0.00 
    1    1    6     -7.35      0.00 
    0    1    6     -2.90      0.00 
   -1    1    6      1.79      0.00 
   -2    1    6      3.50      0.00 
   -3    1    6      1.46      0.00 
   -4    1    6     -2.44      0.00 
   -5    1    6     -5.63      0.00 
   -6    1    6     -6.61      0.00 
   -7    1    6     -5.46      0.00 
   -8    1    6     -3.17      0.00 
   -9    1    6     -0.95      0.00 
  -10    1    6      0.38      0.00 
  -11    1    6      0.65      0.00 
  -12    1    6      0.26      0.00 
  -13    1    6     -0.28      0.00 
  -14    1    6     -0.65      0.00 
  -15    1    6     -0.79      0.00 
  -16    1    6     -0.70      0.00 
   15    0    6      0.04      0.00 
   14    0    6     -0.22      0.00 
   13    0    6     -0.71      0.00 
   12    0    6     -1.07      0.00 
   11    0    6     -0.96      0.00 
   10    0    6     -0.26      0.00 
    9    0    6      0.81      0.00 
    8    0    6      1.52      0.00 
    7    0    6      0.76      0.00 
    6    0    6     -2.15      0.00 
    5    0    6     -6.57      0.00 
    4    0    6    -10.40      0.00 
    3    0    6    -11.32      0.00 
    2    0    6     -8.33      0.00 
    1    0    6     -2.57      0.00 
    0    0    6      3.38      0.00 
   -1    0    6      7.06      0.00 
   -2    0    6      7.64      0.00 
   -3    0    6      6.16      0.00 
   -4    0    6      4.47      0.00 
   -5    0    6      3.57      0.00 
   -6    0    6      3.06      0.00 
   -7    0    6      1.97      0.00 
   -8    0    6      0.02      0.00 
   -9    0    6     -2.12      0.00 
  -10    0    6     -3.52      0.00 
  -11    0    6     -3.70      0.00 
  -12    0    6     -2.88      0.00 
  -13    0    6     -1.75      0.00 
  -14    0    6     -0.92      0.00 
  -15    0    6     -0.54      0.00 
  -16    0    6     -0.36      0.00 
   15   -1    6     -0.54      0.00 
   14   -1    6     -0.30      0.00 
   13   -1    6      0.46      0.00 
   12   -1    6      1.46      0.00 
   11   -1    6      2.13      0.00 
   10   -1    6      2.04      0.00 
    9   -1    6      1.24      0.00 
    8   -1    6      0.24      0.00 
    7   -1    6     -0.11      0.00 
    6   -1    6      1.11      0.00 
    5   -1    6      4.30      0.00 
    4   -1    6      8.59      0.00 
    3   -1    6     11.42      0.00 
    2   -1    6      9.63      0.00 
    1   -1    6      2.07      0.00 
    0   -1    6     -8.42      0.00 
   -1   -1    6    -16.30      0.00 
   -2   -1    6    -17.43      0.00 
   -3   -1    6    -12.28      0.00 
   -4   -1    6     -4.91      0.00 
   -5   -1    6      0.72      0.00 
   -6   -1    6      3.29      0.00 
   -7   -1    6      3.64      0.00 
   -8   -1    6      3.08      0.00 
   -9   -1    6      2.54      0.00 
  -10   -1    6      2.41      0.00 
  -11   -1    6      2.56      0.00 
  -12   -1    6      2.48      0.00 
  -13   -1    6      1.91      0.00 
  -14   -1    6      1.15      0.00 
  -15   -1    6      0.66      0.00 
  -16   -1    6      0.51      0.00 
   15   -2    6      0.65      0.00 
   14   -2    6      1.04      0.00 
   13   -2    6      1.01      0.00 
   12   -2    6      0.32      0.00 
   11   -2    6     -0.79      0.00 
   10   -2    6     -1.85      0.00 
    9   -2    6     -2.43      0.00 
    8   -2    6     -2.35      0.00 
    7   -2    6     -1.58      0.00 
    6   -2    6     -0.36      0.00 
    5   -2    6      0.73      0.00 
    4   -2    6      1.17      0.00 
    3   -2    6      1.49      0.00 
    2   -2    6      3.47      0.00 
    1   -2    6      8.69      0.00 
    0   -2    6     16.27      0.00 
   -1   -2    6     22.65      0.00 
   -2   -2    6     24.00      0.00 
   -3   -2    6     19.21      0.00 
   -4   -2    6     10.60      0.00 
   -5   -2    6      2.04      0.00 
   -6   -2    6     -3.51      0.00 
   -7   -2    6     -5.15      0.00 
   -8   -2    6     -3.83      0.00 
   -9   -2    6     -1.51      0.00 
  -10   -2    6      0.14      0.00 
  -11   -2    6      0.52      0.00 
  -12   -2    6      0.16      0.00 
  -13   -2    6     -0.12      0.00 
  -14   -2    6      0.02      0.00 
  -15   -2    6      0.35      0.00 
  -16   -2    6      0.50      0.00 
   14   -3    6     -0.71      0.00 
   13   -3    6     -1.40      0.00 
   12   -3    6     -1.69      0.00 
   11   -3    6     -1.12      0.00 
   10   -3    6      0.21      0.00 
    9   -3    6      1.75      0.00 
    8   -3    6      2.84      0.00 
    7   -3    6      2.94      0.00 
    6   -3    6      1.73      0.00 
    5   -3    6     -0.66      0.00 
    4   -3    6     -3.33      0.00 
    3   -3    6     -4.96      0.00 
    2   -3    6     -4.86      0.00 
    1   -3    6     -3.77      0.00 
    0   -3    6     -3.40      0.00 
   -1   -3    6     -4.76      0.00 
   -2   -3    6     -7.12      0.00 
   -3   -3    6     -8.53      0.00 
   -4   -3    6     -7.54      0.00 
   -5   -3    6     -4.49      0.00 
   -6   -3    6     -1.17      0.00 
   -7   -3    6      0.67      0.00 
   -8   -3    6      0.58      0.00 
   -9   -3    6     -0.65      0.00 
  -10   -3    6     -1.86      0.00 
  -11   -3    6     -2.31      0.00 
  -12   -3    6     -1.93      0.00 
  -13   -3    6     -1.10      0.00 
  -14   -3    6     -0.35      0.00 
  -15   -3    6     -0.04      0.00 
  -16   -3    6     -0.12      0.00 
  -17   -3    6     -0.26      0.00 
   14   -4    6     -0.56      0.00 
   13   -4    6     -0.29      0.00 
   12   -4    6      0.32      0.00 
   11   -4    6      0.68      0.00 
   10   -4    6      0.32      0.00 
    9   -4    6     -0.67      0.00 
    8   -4    6     -1.82      0.00 
    7   -4    6     -2.64      0.00 
    6   -4    6     -2.66      0.00 
    5   -4    6     -1.50      0.00 
    4   -4    6      0.48      0.00 
    3   -4    6      1.82      0.00 
    2   -4    6      0.62      0.00 
    1   -4    6     -3.67      0.00 
    0   -4    6     -9.25      0.00 
   -1   -4    6    -13.11      0.00 
   -2   -4    6    -13.25      0.00 
   -3   -4    6     -9.96      0.00 
   -4   -4    6     -5.20      0.00 
   -5   -4    6     -1.05      0.00 
   -6   -4    6      1.38      0.00 
   -7   -4    6      2.03      0.00 
   -8   -4    6      1.56      0.00 
   -9   -4    6      0.92      0.00 
  -10   -4    6      0.77      0.00 
  -11   -4    6      1.10      0.00 
  -12   -4    6      1.35      0.00 
  -13   -4    6      1.02      0.00 
  -14   -4    6      0.18      0.00 
  -15   -4    6     -0.64      0.00 
  -16   -4    6     -0.97      0.00 
  -17   -4    6     -0.77      0.00 
   13   -5    6      1.05      0.00 
   12   -5    6      1.16      0.00 
   11   -5    6      0.78      0.00 
   10   -5    6      0.18      0.00 
    9   -5    6     -0.20      0.00 
    8   -5    6     -0.10      0.00 
    7   -5    6      0.43      0.00 
    6   -5    6      1.15      0.00 
    5   -5    6      1.69      0.00 
    4   -5    6      1.59      0.00 
    3   -5    6      0.69      0.00 
    2   -5    6     -0.27      0.00 
    1   -5    6      0.16      0.00 
    0   -5    6      2.85      0.00 
   -1   -5    6      6.91      0.00 
   -2   -5    6     10.00      0.00 
   -3   -5    6     10.03      0.00 
   -4   -5    6      6.91      0.00 
   -5   -5    6      2.42      0.00 
   -6   -5    6     -1.13      0.00 
   -7   -5    6     -2.49      0.00 
   -8   -5    6     -1.87      0.00 
   -9   -5    6     -0.33      0.00 
  -10   -5    6      1.03      0.00 
  -11   -5    6      1.54      0.00 
  -12   -5    6      1.14      0.00 
  -13   -5    6      0.26      0.00 
  -14   -5    6     -0.50      0.00 
  -15   -5    6     -0.72      0.00 
  -16   -5    6     -0.47      0.00 
   13   -6    6     -0.25      0.00 
   12   -6    6     -0.70      0.00 
   11   -6    6     -0.76      0.00 
   10   -6    6     -0.18      0.00 
    9   -6    6      0.78      0.00 
    8   -6    6      1.62      0.00 
    7   -6    6      1.99      0.00 
    6   -6    6      1.67      0.00 
    5   -6    6      0.64      0.00 
    4   -6    6     -0.61      0.00 
    3   -6    6     -0.95      0.00 
    2   -6    6      0.43      0.00 
    1   -6    6      2.95      0.00 
    0   -6    6      4.71      0.00 
   -1   -6    6      4.19      0.00 
   -2   -6    6      1.79      0.00 
   -3   -6    6     -0.56      0.00 
   -4   -6    6     -1.18      0.00 
   -5   -6    6     -0.04      0.00 
   -6   -6    6      1.64      0.00 
   -7   -6    6      2.62      0.00 
   -8   -6    6      2.47      0.00 
   -9   -6    6      1.42      0.00 
  -10   -6    6     -0.04      0.00 
  -11   -6    6     -1.35      0.00 
  -12   -6    6     -1.87      0.00 
  -13   -6    6     -1.32      0.00 
  -14   -6    6     -0.08      0.00 
  -15   -6    6      1.04      0.00 
  -16   -6    6      1.45      0.00 
   13   -7    6      0.06      0.00 
   12   -7    6      0.20      0.00 
   11   -7    6      0.25      0.00 
   10   -7    6      0.02      0.00 
    9   -7    6     -0.58      0.00 
    8   -7    6     -1.46      0.00 
    7   -7    6     -2.24      0.00 
    6   -7    6     -2.47      0.00 
    5   -7    6     -1.94      0.00 
    4   -7    6     -0.93      0.00 
    3   -7    6     -0.14      0.00 
    2   -7    6     -0.22      0.00 
    1   -7    6     -1.35      0.00 
    0   -7    6     -3.05      0.00 
   -1   -7    6     -4.40      0.00 
   -2   -7    6     -4.47      0.00 
   -3   -7    6     -3.04      0.00 
   -4   -7    6     -0.86      0.00 
   -5   -7    6      0.82      0.00 
   -6   -7    6      1.22      0.00 
   -7   -7    6      0.58      0.00 
   -8   -7    6     -0.28      0.00 
   -9   -7    6     -0.70      0.00 
  -10   -7    6     -0.51      0.00 
  -11   -7    6      0.11      0.00 
  -12   -7    6      0.82      0.00 
  -13   -7    6      1.20      0.00 
  -14   -7    6      1.00      0.00 
  -15   -7    6      0.41      0.00 
  -16   -7    6     -0.10      0.00 
   12   -8    6      0.02      0.00 
   11   -8    6     -0.08      0.00 
   10   -8    6     -0.40      0.00 
    9   -8    6     -0.65      0.00 
    8   -8    6     -0.52      0.00 
    7   -8    6     -0.03      0.00 
    6   -8    6      0.55      0.00 
    5   -8    6      0.94      0.00 
    4   -8    6      1.02      0.00 
    3   -8    6      0.67      0.00 
    2   -8    6     -0.07      0.00 
    1   -8    6     -0.78      0.00 
    0   -8    6     -0.72      0.00 
   -1   -8    6      0.41      0.00 
   -2   -8    6      1.87      0.00 
   -3   -8    6      2.34      0.00 
   -4   -8    6      1.26      0.00 
   -5   -8    6     -0.65      0.00 
   -6   -8    6     -2.17      0.00 
   -7   -8    6     -2.66      0.00 
   -8   -8    6     -2.27      0.00 
   -9   -8    6     -1.43      0.00 
  -10   -8    6     -0.53      0.00 
  -11   -8    6      0.08      0.00 
  -12   -8    6      0.12      0.00 
  -13   -8    6     -0.29      0.00 
  -14   -8    6     -0.71      0.00 
  -15   -8    6     -0.76      0.00 
  -16   -8    6     -0.49      0.00 
   11   -9    6     -0.07      0.00 
   10   -9    6      0.46      0.00 
    9   -9    6      1.17      0.00 
    8   -9    6      1.72      0.00 
    7   -9    6      1.80      0.00 
    6   -9    6      1.27      0.00 
    5   -9    6      0.30      0.00 
    4   -9    6     -0.66      0.00 
    3   -9    6     -1.00      0.00 
    2   -9    6     -0.42      0.00 
    1   -9    6      0.73      0.00 
    0   -9    6      1.60      0.00 
   -1   -9    6      1.48      0.00 
   -2   -9    6      0.37      0.00 
   -3   -9    6     -0.99      0.00 
   -4   -9    6     -1.70      0.00 
   -5   -9    6     -1.36      0.00 
   -6   -9    6     -0.31      0.00 
   -7   -9    6      0.75      0.00 
   -8   -9    6      1.24      0.00 
   -9   -9    6      1.07      0.00 
  -10   -9    6      0.58      0.00 
  -11   -9    6      0.13      0.00 
  -12   -9    6     -0.12      0.00 
  -13   -9    6     -0.21      0.00 
  -14   -9    6     -0.19      0.00 
  -15   -9    6     -0.11      0.00 
  -16   -9    6     -0.06      0.00 
   11  -10    6     -0.29      0.00 
   10  -10    6     -0.17      0.00 
    9  -10    6     -0.19      0.00 
    8  -10    6     -0.48      0.00 
    7  -10    6     -0.82      0.00 
    6  -10    6     -0.88      0.00 
    5  -10    6     -0.54      0.00 
    4  -10    6      0.03      0.00 
    3  -10    6      0.58      0.00 
    2  -10    6      0.89      0.00 
    1  -10    6      0.76      0.00 
    0  -10    6      0.18      0.00 
   -1  -10    6     -0.48      0.00 
   -2  -10    6     -0.64      0.00 
   -3  -10    6     -0.05      0.00 
   -4  -10    6      0.82      0.00 
   -5  -10    6      1.27      0.00 
   -6  -10    6      1.00      0.00 
   -7  -10    6      0.39      0.00 
   -8  -10    6     -0.05      0.00 
   -9  -10    6     -0.19      0.00 
  -10  -10    6     -0.19      0.00 
  -11  -10    6     -0.16      0.00 
  -12  -10    6     -0.02      0.00 
  -13  -10    6      0.18      0.00 
  -14  -10    6      0.25      0.00 
  -15  -10    6      0.11      0.00 
   10  -11    6     -0.10      0.00 
    9  -11    6     -0.69      0.00 
    8  -11    6     -0.92      0.00 
    7  -11    6     -0.63      0.00 
    6  -11    6      0.00      0.00 
    5  -11    6      0.61      0.00 
    4  -11    6      0.85      0.00 
    3  -11    6      0.47      0.00 
    2  -11    6     -0.43      0.00 
    1  -11    6     -1.32      0.00 
    0  -11    6     -1.58      0.00 
   -1  -11    6     -1.10      0.00 
   -2  -11    6     -0.35      0.00 
   -3  -11    6      0.15      0.00 
   -4  -11    6      0.26      0.00 
   -5  -11    6      0.20      0.00 
   -6  -11    6      0.11      0.00 
   -7  -11    6      0.01      0.00 
   -8  -11    6     -0.04      0.00 
   -9  -11    6      0.10      0.00 
  -10  -11    6      0.33      0.00 
  -11  -11    6      0.37      0.00 
  -12  -11    6      0.06      0.00 
  -13  -11    6     -0.36      0.00 
  -14  -11    6     -0.46      0.00 
  -15  -11    6     -0.17      0.00 
    4  -12    6     -0.56      0.00 
    3  -12    6     -0.62      0.00 
    2  -12    6     -0.35      0.00 
    1  -12    6      0.17      0.00 
    0  -12    6      0.77      0.00 
   -1  -12    6      1.10      0.00 
   -2  -12    6      0.87      0.00 
   -3  -12    6      0.12      0.00 
   -4  -12    6     -0.67      0.00 
   -5  -12    6     -0.95      0.00 
   -6  -12    6     -0.59      0.00 
   -7  -12    6      0.05      0.00 
   -8  -12    6      0.46      0.00 
   -9  -12    6      0.45      0.00 
  -10  -12    6      0.19      0.00 
  -11  -12    6     -0.06      0.00 
  -12  -12    6     -0.20      0.00 
  -13  -12    6     -0.22      0.00 
  -14  -12    6     -0.11      0.00 
    3  -13    6     -0.46      0.00 
    2  -13    6      0.18      0.00 
    1  -13    6      0.64      0.00 
    0  -13    6      0.50      0.00 
   -1  -13    6     -0.06      0.00 
   -2  -13    6     -0.45      0.00 
   -3  -13    6     -0.27      0.00 
   -4  -13    6      0.28      0.00 
   -5  -13    6      0.65      0.00 
   -6  -13    6      0.51      0.00 
   -7  -13    6      0.00      0.00 
   -8  -13    6     -0.47      0.00 
   -9  -13    6     -0.66      0.00 
  -10  -13    6     -0.58      0.00 
  -11  -13    6     -0.33      0.00 
  -12  -13    6      0.01      0.00 
  -13  -13    6      0.32      0.00 
  -14  -13    6      0.40      0.00 
    3  -14    6      0.62      0.00 
    2  -14    6      0.00      0.00 
    1  -14    6     -0.43      0.00 
    0  -14    6     -0.45      0.00 
   -1  -14    6     -0.24      0.00 
   -2  -14    6     -0.05      0.00 
   -3  -14    6      0.04      0.00 
   -4  -14    6      0.01      0.00 
   -5  -14    6     -0.14      0.00 
   -6  -14    6     -0.33      0.00 
   -7  -14    6     -0.38      0.00 
   -8  -14    6     -0.21      0.00 
   -9  -14    6      0.00      0.00 
  -10  -14    6      0.00      0.00 
  -11  -14    6     -0.23      0.00 
  -12  -14    6     -0.45      0.00 
  -13  -14    6     -0.42      0.00 
    2  -15    6      0.28      0.00 
    1  -15    6      0.30      0.00 
    0  -15    6      0.19      0.00 
   -1  -15    6      0.13      0.00 
   -2  -15    6      0.15      0.00 
   -3  -15    6      0.11      0.00 
   -4  -15    6     -0.05      0.00 
   -5  -15    6     -0.21      0.00 
   -6  -15    6     -0.25      0.00 
   -7  -15    6     -0.15      0.00 
   -8  -15    6      0.00      0.00 
   -9  -15    6      0.15      0.00 
  -10  -15    6      0.24      0.00 
  -11  -15    6      0.26      0.00 
  -12  -15    6      0.18      0.00 
    2  -16    6     -0.09      0.00 
    1  -16    6      0.08      0.00 
    0  -16    6      0.16      0.00 
   -1  -16    6      0.08      0.00 
   -2  -16    6     -0.13      0.00 
   -3  -16    6     -0.39      0.00 
   -4  -16    6     -0.48      0.00 
   -5  -16    6     -0.19      0.00 
   -6  -16    6      0.42      0.00 
   -7  -16    6      0.95      0.00 
   -8  -16    6      1.04      0.00 
   -9  -16    6      0.72      0.00 
  -10  -16    6      0.38      0.00 
  -11  -16    6      0.32      0.00 
    1  -17    6     -0.12      0.00 
    0  -17    6     -0.08      0.00 
   -1  -17    6      0.01      0.00 
   -2  -17    6      0.19      0.00 
   -3  -17    6      0.45      0.00 
   -4  -17    6      0.60      0.00 
   -5  -17    6      0.44      0.00 
   -6  -17    6     -0.01      0.00 
   -7  -17    6     -0.47      0.00 
   -8  -17    6     -0.68      0.00 
   -9  -17    6     -0.63      0.00 
  -10  -17    6     -0.48      0.00 
    0  -18    6     -0.30      0.00 
   -1  -18    6     -0.26      0.00 
   -2  -18    6     -0.14      0.00 
   -3  -18    6     -0.04      0.00 
   -4  -18    6      0.01      0.00 
   -5  -18    6      0.03      0.00 
   -6  -18    6     -0.03      0.00 
   -7  -18    6     -0.15      0.00 
    5   21    5      0.38      0.00 
    8   20    5      0.27      0.00 
    7   20    5      0.30      0.00 
    6   20    5      0.05      0.00 
    5   20    5     -0.22      0.00 
    4   20    5     -0.35      0.00 
    3   20    5     -0.41      0.00 
    2   20    5     -0.41      0.00 
    0   20    5     -0.06      0.00 
   10   19    5      0.32      0.00 
    9   19    5     -0.03      0.00 
    8   19    5     -0.31      0.00 
    7   19    5     -0.33      0.00 
    6   19    5     -0.19      0.00 
    5   19    5     -0.02      0.00 
    4   19    5      0.14      0.00 
    3   19    5      0.23      0.00 
    2   19    5      0.13      0.00 
    1   19    5     -0.09      0.00 
    0   19    5     -0.22      0.00 
   -1   19    5     -0.14      0.00 
   -2   19    5     -0.01      0.00 
   12   18    5     -0.17      0.00 
   11   18    5     -0.17      0.00 
   10   18    5      0.07      0.00 
    9   18    5      0.24      0.00 
    8   18    5      0.18      0.00 
    7   18    5      0.06      0.00 
    6   18    5      0.05      0.00 
    5   18    5      0.06      0.00 
    4   18    5     -0.05      0.00 
    3   18    5     -0.15      0.00 
    2   18    5     -0.07      0.00 
    1   18    5      0.06      0.00 
    0   18    5     -0.05      0.00 
   -1   18    5     -0.40      0.00 
   -2   18    5     -0.65      0.00 
   -3   18    5     -0.55      0.00 
   -4   18    5     -0.23      0.00 
   13   17    5      0.65      0.00 
   12   17    5      0.62      0.00 
   11   17    5      0.38      0.00 
   10   17    5      0.20      0.00 
    9   17    5      0.19      0.00 
    8   17    5      0.24      0.00 
    7   17    5      0.19      0.00 
    6   17    5      0.04      0.00 
    5   17    5     -0.15      0.00 
    4   17    5     -0.35      0.00 
    3   17    5     -0.48      0.00 
    2   17    5     -0.41      0.00 
    1   17    5     -0.17      0.00 
    0   17    5      0.04      0.00 
   -1   17    5      0.09      0.00 
   -2   17    5      0.14      0.00 
   -3   17    5      0.37      0.00 
   -4   17    5      0.72      0.00 
   -5   17    5      0.91      0.00 
   14   16    5     -0.47      0.00 
   13   16    5     -0.61      0.00 
   12   16    5     -0.45      0.00 
   11   16    5     -0.16      0.00 
   10   16    5      0.00      0.00 
    9   16    5     -0.01      0.00 
    8   16    5     -0.10      0.00 
    7   16    5     -0.24      0.00 
    6   16    5     -0.43      0.00 
    5   16    5     -0.53      0.00 
    4   16    5     -0.39      0.00 
    3   16    5     -0.11      0.00 
    2   16    5      0.05      0.00 
    1   16    5      0.06      0.00 
    0   16    5      0.14      0.00 
   -1   16    5      0.41      0.00 
   -2   16    5      0.63      0.00 
   -3   16    5      0.54      0.00 
   -4   16    5      0.20      0.00 
   -5   16    5     -0.10      0.00 
   -6   16    5     -0.16      0.00 
   -7   16    5     -0.04      0.00 
   15   15    5     -0.28      0.00 
   14   15    5     -0.57      0.00 
   13   15    5     -0.83      0.00 
   12   15    5     -0.86      0.00 
   11   15    5     -0.64      0.00 
   10   15    5     -0.35      0.00 
    9   15    5     -0.19      0.00 
    8   15    5     -0.15      0.00 
    7   15    5     -0.06      0.00 
    6   15    5      0.08      0.00 
    5   15    5      0.19      0.00 
    4   15    5      0.31      0.00 
    3   15    5      0.54      0.00 
    2   15    5      0.81      0.00 
    1   15    5      0.84      0.00 
    0   15    5      0.53      0.00 
   -1   15    5      0.15      0.00 
   -2   15    5     -0.01      0.00 
   -3   15    5      0.00      0.00 
   -4   15    5     -0.06      0.00 
   -5   15    5     -0.26      0.00 
   -6   15    5     -0.48      0.00 
   -7   15    5     -0.62      0.00 
   15   14    5      0.36      0.00 
   14   14    5      0.84      0.00 
   13   14    5      1.36      0.00 
   12   14    5      1.60      0.00 
   11   14    5      1.32      0.00 
   10   14    5      0.60      0.00 
    9   14    5     -0.15      0.00 
    8   14    5     -0.56      0.00 
    7   14    5     -0.56      0.00 
    6   14    5     -0.24      0.00 
    5   14    5      0.21      0.00 
    4   14    5      0.51      0.00 
    3   14    5      0.43      0.00 
    2   14    5      0.02      0.00 
    1   14    5     -0.42      0.00 
    0   14    5     -0.60      0.00 
   -1   14    5     -0.52      0.00 
   -2   14    5     -0.40      0.00 
   -3   14    5     -0.37      0.00 
   -4   14    5     -0.48      0.00 
   -5   14    5     -0.61      0.00 
   -6   14    5     -0.60      0.00 
   -7   14    5     -0.35      0.00 
   -8   14    5      0.04      0.00 
   14   13    5     -0.13      0.00 
   13   13    5     -0.28      0.00 
   12   13    5     -0.44      0.00 
   11   13    5     -0.25      0.00 
   10   13    5      0.32      0.00 
    9   13    5      0.95      0.00 
    8   13    5      1.29      0.00 
    7   13    5      1.25      0.00 
    6   13    5      0.92      0.00 
    5   13    5      0.38      0.00 
    4   13    5     -0.29      0.00 
    3   13    5     -0.85      0.00 
    2   13    5     -1.01      0.00 
    1   13    5     -0.66      0.00 
    0   13    5     -0.06      0.00 
   -1   13    5      0.35      0.00 
   -2   13    5      0.38      0.00 
   -3   13    5      0.19      0.00 
   -4   13    5      0.09      0.00 
   -5   13    5      0.18      0.00 
   -6   13    5      0.38      0.00 
   -7   13    5      0.58      0.00 
   -8   13    5      0.72      0.00 
   -9   13    5      0.71      0.00 
   14   12    5     -0.86      0.00 
   13   12    5     -1.07      0.00 
   12   12    5     -1.11      0.00 
   11   12    5     -1.02      0.00 
   10   12    5     -0.85      0.00 
    9   12    5     -0.61      0.00 
    8   12    5     -0.34      0.00 
    7   12    5     -0.08      0.00 
    6   12    5      0.21      0.00 
    5   12    5      0.56      0.00 
    4   12    5      0.99      0.00 
    3   12    5      1.37      0.00 
    2   12    5      1.53      0.00 
    1   12    5      1.33      0.00 
    0   12    5      0.81      0.00 
   -1   12    5      0.18      0.00 
   -2   12    5     -0.28      0.00 
   -3   12    5     -0.38      0.00 
   -4   12    5     -0.12      0.00 
   -5   12    5      0.30      0.00 
   -6   12    5      0.55      0.00 
   -7   12    5      0.38      0.00 
   -8   12    5     -0.11      0.00 
   -9   12    5     -0.54      0.00 
  -10   12    5     -0.59      0.00 
   14   11    5      0.54      0.00 
   13   11    5      1.01      0.00 
   12   11    5      1.43      0.00 
   11   11    5      1.32      0.00 
   10   11    5      0.56      0.00 
    9   11    5     -0.44      0.00 
    8   11    5     -1.28      0.00 
    7   11    5     -1.88      0.00 
    6   11    5     -2.28      0.00 
    5   11    5     -2.44      0.00 
    4   11    5     -2.28      0.00 
    3   11    5     -1.88      0.00 
    2   11    5     -1.49      0.00 
    1   11    5     -1.24      0.00 
    0   11    5     -1.03      0.00 
   -1   11    5     -0.64      0.00 
   -2   11    5     -0.07      0.00 
   -3   11    5      0.43      0.00 
   -4   11    5      0.54      0.00 
   -5   11    5      0.20      0.00 
   -6   11    5     -0.32      0.00 
   -7   11    5     -0.65      0.00 
   -8   11    5     -0.64      0.00 
   -9   11    5     -0.42      0.00 
  -10   11    5     -0.23      0.00 
  -11   11    5     -0.12      0.00 
   13   10    5      0.71      0.00 
   12   10    5      0.65      0.00 
   11   10    5      0.66      0.00 
   10   10    5      0.82      0.00 
    9   10    5      1.14      0.00 
    8   10    5      1.68      0.00 
    7   10    5      2.28      0.00 
    6   10    5      2.37      0.00 
    5   10    5      1.44      0.00 
    4   10    5     -0.32      0.00 
    3   10    5     -1.96      0.00 
    2   10    5     -2.65      0.00 
    1   10    5     -2.32      0.00 
    0   10    5     -1.47      0.00 
   -1   10    5     -0.66      0.00 
   -2   10    5     -0.19      0.00 
   -3   10    5     -0.16      0.00 
   -4   10    5     -0.40      0.00 
   -5   10    5     -0.56      0.00 
   -6   10    5     -0.34      0.00 
   -7   10    5      0.19      0.00 
   -8   10    5      0.65      0.00 
   -9   10    5      0.72      0.00 
  -10   10    5      0.40      0.00 
  -11   10    5      0.00      0.00 
  -12   10    5     -0.22      0.00 
   16    9    5     -0.08      0.00 
   15    9    5     -0.09      0.00 
   14    9    5     -0.52      0.00 
   13    9    5     -1.36      0.00 
   12    9    5     -2.23      0.00 
   11    9    5     -2.66      0.00 
   10    9    5     -2.47      0.00 
    9    9    5     -1.87      0.00 
    8    9    5     -1.23      0.00 
    7    9    5     -0.57      0.00 
    6    9    5      0.46      0.00 
    5    9    5      2.16      0.00 
    4    9    5      4.27      0.00 
    3    9    5      6.10      0.00 
    2    9    5      7.01      0.00 
    1    9    5      6.68      0.00 
    0    9    5      5.20      0.00 
   -1    9    5      3.07      0.00 
   -2    9    5      1.06      0.00 
   -3    9    5     -0.15      0.00 
   -4    9    5     -0.38      0.00 
   -5    9    5      0.03      0.00 
   -6    9    5      0.50      0.00 
   -7    9    5      0.61      0.00 
   -8    9    5      0.31      0.00 
   -9    9    5     -0.12      0.00 
  -10    9    5     -0.33      0.00 
  -11    9    5     -0.21      0.00 
  -12    9    5      0.01      0.00 
   17    8    5     -0.10      0.00 
   16    8    5     -0.36      0.00 
   15    8    5     -0.47      0.00 
   14    8    5     -0.12      0.00 
   13    8    5      0.60      0.00 
   12    8    5      1.22      0.00 
   11    8    5      1.28      0.00 
   10    8    5      0.58      0.00 
    9    8    5     -0.85      0.00 
    8    8    5     -2.86      0.00 
    7    8    5     -4.97      0.00 
    6    8    5     -6.28      0.00 
    5    8    5     -5.91      0.00 
    4    8    5     -3.84      0.00 
    3    8    5     -1.20      0.00 
    2    8    5      0.64      0.00 
    1    8    5      1.27      0.00 
    0    8    5      1.34      0.00 
   -1    8    5      1.59      0.00 
   -2    8    5      2.07      0.00 
   -3    8    5      2.34      0.00 
   -4    8    5      2.09      0.00 
   -5    8    5      1.40      0.00 
   -6    8    5      0.48      0.00 
   -7    8    5     -0.38      0.00 
   -8    8    5     -0.78      0.00 
   -9    8    5     -0.52      0.00 
  -10    8    5      0.10      0.00 
  -11    8    5      0.52      0.00 
  -12    8    5      0.50      0.00 
  -13    8    5      0.27      0.00 
   17    7    5      0.07      0.00 
   16    7    5     -0.01      0.00 
   15    7    5     -0.04      0.00 
   14    7    5     -0.02      0.00 
   13    7    5      0.05      0.00 
   12    7    5      0.16      0.00 
   11    7    5      0.38      0.00 
   10    7    5      1.01      0.00 
    9    7    5      2.44      0.00 
    8    7    5      4.71      0.00 
    7    7    5      7.05      0.00 
    6    7    5      7.98      0.00 
    5    7    5      6.10      0.00 
    4    7    5      1.21      0.00 
    3    7    5     -5.16      0.00 
    2    7    5    -10.47      0.00 
    1    7    5    -12.75      0.00 
    0    7    5    -11.82      0.00 
   -1    7    5     -9.12      0.00 
   -2    7    5     -6.38      0.00 
   -3    7    5     -4.55      0.00 
   -4    7    5     -3.57      0.00 
   -5    7    5     -2.89      0.00 
   -6    7    5     -2.11      0.00 
   -7    7    5     -1.20      0.00 
   -8    7    5     -0.38      0.00 
   -9    7    5      0.13      0.00 
  -10    7    5      0.30      0.00 
  -11    7    5      0.27      0.00 
  -12    7    5      0.21      0.00 
  -13    7    5      0.18      0.00 
  -14    7    5      0.14      0.00 
   17    6    5      0.46      0.00 
   16    6    5      0.82      0.00 
   15    6    5      0.83      0.00 
   14    6    5      0.34      0.00 
   13    6    5     -0.40      0.00 
   12    6    5     -0.90      0.00 
   11    6    5     -0.89      0.00 
   10    6    5     -0.40      0.00 
    9    6    5      0.32      0.00 
    8    6    5      1.08      0.00 
    7    6    5      1.68      0.00 
    6    6    5      2.08      0.00 
    5    6    5      2.57      0.00 
    4    6    5      3.72      0.00 
    3    6    5      5.72      0.00 
    2    6    5      7.72      0.00 
    1    6    5      8.21      0.00 
    0    6    5      6.25      0.00 
   -1    6    5      2.52      0.00 
   -2    6    5     -1.00      0.00 
   -3    6    5     -2.64      0.00 
   -4    6    5     -2.16      0.00 
   -5    6    5     -0.65      0.00 
   -6    6    5      0.65      0.00 
   -7    6    5      1.17      0.00 
   -8    6    5      0.98      0.00 
   -9    6    5      0.42      0.00 
  -10    6    5     -0.18      0.00 
  -11    6    5     -0.53      0.00 
  -12    6    5     -0.54      0.00 
  -13    6    5     -0.36      0.00 
  -14    6    5     -0.22      0.00 
   17    5    5     -0.25      0.00 
   16    5    5     -0.57      0.00 
   15    5    5     -0.72      0.00 
   14    5    5     -0.47      0.00 
   13    5    5      0.13      0.00 
   12    5    5      0.86      0.00 
   11    5    5      1.38      0.00 
   10    5    5      1.21      0.00 
    9    5    5     -0.23      0.00 
    8    5    5     -2.99      0.00 
    7    5    5     -6.19      0.00 
    6    5    5     -8.27      0.00 
    5    5    5     -8.00      0.00 
    4    5    5     -5.30      0.00 
    3    5    5     -1.30      0.00 
    2    5    5      2.45      0.00 
    1    5    5      5.01      0.00 
    0    5    5      6.47      0.00 
   -1    5    5      7.49      0.00 
   -2    5    5      8.43      0.00 
   -3    5    5      8.91      0.00 
   -4    5    5      8.27      0.00 
   -5    5    5      6.30      0.00 
   -6    5    5      3.61      0.00 
   -7    5    5      1.27      0.00 
   -8    5    5     -0.02      0.00 
   -9    5    5     -0.29      0.00 
  -10    5    5     -0.06      0.00 
  -11    5    5      0.14      0.00 
  -12    5    5      0.16      0.00 
  -13    5    5      0.09      0.00 
  -14    5    5      0.05      0.00 
  -15    5    5      0.07      0.00 
   17    4    5     -0.28      0.00 
   16    4    5     -0.45      0.00 
   15    4    5     -0.32      0.00 
   14    4    5      0.09      0.00 
   13    4    5      0.42      0.00 
   12    4    5      0.26      0.00 
   11    4    5     -0.39      0.00 
   10    4    5     -1.08      0.00 
    9    4    5     -1.20      0.00 
    8    4    5     -0.40      0.00 
    7    4    5      1.13      0.00 
    6    4    5      2.27      0.00 
    5    4    5      1.18      0.00 
    4    4    5     -3.33      0.00 
    3    4    5    -10.11      0.00 
    2    4    5    -15.70      0.00 
    1    4    5    -16.76      0.00 
    0    4    5    -12.78      0.00 
   -1    4    5     -6.38      0.00 
   -2    4    5     -1.00      0.00 
   -3    4    5      1.47      0.00 
   -4    4    5      1.36      0.00 
   -5    4    5      0.28      0.00 
   -6    4    5     -0.33      0.00 
   -7    4    5      0.03      0.00 
   -8    4    5      0.94      0.00 
   -9    4    5      1.61      0.00 
  -10    4    5      1.59      0.00 
  -11    4    5      0.95      0.00 
  -12    4    5      0.12      0.00 
  -13    4    5     -0.46      0.00 
  -14    4    5     -0.60      0.00 
  -15    4    5     -0.43      0.00 
   16    3    5      0.09      0.00 
   15    3    5      0.29      0.00 
   14    3    5     -0.09      0.00 
   13    3    5     -0.92      0.00 
   12    3    5     -1.68      0.00 
   11    3    5     -2.03      0.00 
   10    3    5     -1.84      0.00 
    9    3    5     -1.07      0.00 
    8    3    5     -0.09      0.00 
    7    3    5      0.26      0.00 
    6    3    5     -0.31      0.00 
    5    3    5     -0.40      0.00 
    4    3    5      2.19      0.00 
    3    3    5      7.86      0.00 
    2    3    5     13.78      0.00 
    1    3    5     15.87      0.00 
    0    3    5     12.11      0.00 
   -1    3    5      4.13      0.00 
   -2    3    5     -4.40      0.00 
   -3    3    5    -10.22      0.00 
   -4    3    5    -12.01      0.00 
   -5    3    5    -10.43      0.00 
   -6    3    5     -7.35      0.00 
   -7    3    5     -4.66      0.00 
   -8    3    5     -3.29      0.00 
   -9    3    5     -2.99      0.00 
  -10    3    5     -2.85      0.00 
  -11    3    5     -2.18      0.00 
  -12    3    5     -1.08      0.00 
  -13    3    5     -0.13      0.00 
  -14    3    5      0.21      0.00 
  -15    3    5      0.08      0.00 
   16    2    5      0.02      0.00 
   15    2    5     -0.03      0.00 
   14    2    5      0.22      0.00 
   13    2    5      0.86      0.00 
   12    2    5      1.75      0.00 
   11    2    5      2.53      0.00 
   10    2    5      2.74      0.00 
    9    2    5      2.11      0.00 
    8    2    5      0.83      0.00 
    7    2    5     -0.27      0.00 
    6    2    5     -0.18      0.00 
    5    2    5      1.58      0.00 
    4    2    5      4.40      0.00 
    3    2    5      6.66      0.00 
    2    2    5      6.73      0.00 
    1    2    5      4.27      0.00 
    0    2    5      1.05      0.00 
   -1    2    5     -0.28      0.00 
   -2    2    5      1.49      0.00 
   -3    2    5      4.94      0.00 
   -4    2    5      7.36      0.00 
   -5    2    5      7.22      0.00 
   -6    2    5      5.13      0.00 
   -7    2    5      2.65      0.00 
   -8    2    5      0.88      0.00 
   -9    2    5      0.03      0.00 
  -10    2    5     -0.15      0.00 
  -11    2    5      0.04      0.00 
  -12    2    5      0.33      0.00 
  -13    2    5      0.56      0.00 
  -14    2    5      0.70      0.00 
  -15    2    5      0.76      0.00 
  -16    2    5      0.68      0.00 
   16    1    5      0.44      0.00 
   15    1    5      0.54      0.00 
   14    1    5      0.61      0.00 
   13    1    5      0.50      0.00 
   12    1    5      0.06      0.00 
   11    1    5     -0.56      0.00 
   10    1    5     -0.95      0.00 
    9    1    5     -0.71      0.00 
    8    1    5      0.49      0.00 
    7    1    5      2.83      0.00 
    6    1    5      5.82      0.00 
    5    1    5      7.72      0.00 
    4    1    5      6.30      0.00 
    3    1    5      0.96      0.00 
    2    1    5     -5.83      0.00 
    1    1    5    -10.04      0.00 
    0    1    5     -9.49      0.00 
   -1    1    5     -5.52      0.00 
   -2    1    5     -1.35      0.00 
   -3    1    5      0.87      0.00 
   -4    1    5      1.27      0.00 
   -5    1    5      1.16      0.00 
   -6    1    5      1.51      0.00 
   -7    1    5      2.45      0.00 
   -8    1    5      3.62      0.00 
   -9    1    5      4.47      0.00 
  -10    1    5      4.50      0.00 
  -11    1    5      3.54      0.00 
  -12    1    5      2.00      0.00 
  -13    1    5      0.63      0.00 
  -14    1    5     -0.03      0.00 
  -15    1    5     -0.06      0.00 
  -16    1    5      0.07      0.00 
   16    0    5      0.20      0.00 
   15    0    5      0.10      0.00 
   14    0    5     -0.44      0.00 
   13    0    5     -1.22      0.00 
   12    0    5     -1.69      0.00 
   11    0    5     -1.46      0.00 
   10    0    5     -0.58      0.00 
    9    0    5      0.42      0.00 
    8    0    5      0.65      0.00 
    7    0    5     -0.88      0.00 
    6    0    5     -4.50      0.00 
    5    0    5     -9.03      0.00 
    4    0    5    -11.85      0.00 
    3    0    5    -10.41      0.00 
    2    0    5     -4.27      0.00 
    1    0    5      3.93      0.00 
    0    0    5      9.81      0.00 
   -1    0    5     10.12      0.00 
   -2    0    5      5.18      0.00 
   -3    0    5     -1.44      0.00 
   -4    0    5     -5.80      0.00 
   -5    0    5     -6.49      0.00 
   -6    0    5     -4.89      0.00 
   -7    0    5     -3.26      0.00 
   -8    0    5     -2.74      0.00 
   -9    0    5     -3.10      0.00 
  -10    0    5     -3.49      0.00 
  -11    0    5     -3.22      0.00 
  -12    0    5     -2.23      0.00 
  -13    0    5     -1.06      0.00 
  -14    0    5     -0.42      0.00 
  -15    0    5     -0.45      0.00 
  -16    0    5     -0.66      0.00 
   15   -1    5     -0.78      0.00 
   14   -1    5     -0.73      0.00 
   13   -1    5      0.01      0.00 
   12   -1    5      1.11      0.00 
   11   -1    5      1.85      0.00 
   10   -1    5      1.70      0.00 
    9   -1    5      0.74      0.00 
    8   -1    5     -0.54      0.00 
    7   -1    5     -1.49      0.00 
    6   -1    5     -1.60      0.00 
    5   -1    5     -0.73      0.00 
    4   -1    5      0.29      0.00 
    3   -1    5     -0.60      0.00 
    2   -1    5     -5.49      0.00 
    1   -1    5    -14.06      0.00 
    0   -1    5    -22.30      0.00 
   -1   -1    5    -24.88      0.00 
   -2   -1    5    -19.56      0.00 
   -3   -1    5     -9.36      0.00 
   -4   -1    5      0.06      0.00 
   -5   -1    5      4.83      0.00 
   -6   -1    5      4.93      0.00 
   -7   -1    5      2.62      0.00 
   -8   -1    5      0.18      0.00 
   -9   -1    5     -1.20      0.00 
  -10   -1    5     -1.29      0.00 
  -11   -1    5     -0.61      0.00 
  -12   -1    5      0.01      0.00 
  -13   -1    5      0.09      0.00 
  -14   -1    5     -0.16      0.00 
  -15   -1    5     -0.31      0.00 
  -16   -1    5     -0.24      0.00 
   15   -2    5      0.59      0.00 
   14   -2    5      1.29      0.00 
   13   -2    5      1.53      0.00 
   12   -2    5      0.91      0.00 
   11   -2    5     -0.41      0.00 
   10   -2    5     -1.86      0.00 
    9   -2    5     -2.77      0.00 
    8   -2    5     -2.70      0.00 
    7   -2    5     -1.46      0.00 
    6   -2    5      0.72      0.00 
    5   -2    5      3.04      0.00 
    4   -2    5      4.65      0.00 
    3   -2    5      5.61      0.00 
    2   -2    5      7.30      0.00 
    1   -2    5     11.15      0.00 
    0   -2    5     16.74      0.00 
   -1   -2    5     21.43      0.00 
   -2   -2    5     22.23      0.00 
   -3   -2    5     18.25      0.00 
   -4   -2    5     11.37      0.00 
   -5   -2    5      4.77      0.00 
   -6   -2    5      0.84      0.00 
   -7   -2    5      0.05      0.00 
   -8   -2    5      1.18      0.00 
   -9   -2    5      2.50      0.00 
  -10   -2    5      2.90      0.00 
  -11   -2    5      2.31      0.00 
  -12   -2    5      1.27      0.00 
  -13   -2    5      0.34      0.00 
  -14   -2    5     -0.15      0.00 
  -15   -2    5     -0.13      0.00 
  -16   -2    5      0.16      0.00 
  -17   -2    5      0.35      0.00 
   15   -3    5      0.12      0.00 
   14   -3    5     -0.22      0.00 
   13   -3    5     -0.82      0.00 
   12   -3    5     -1.12      0.00 
   11   -3    5     -0.49      0.00 
   10   -3    5      1.15      0.00 
    9   -3    5      3.05      0.00 
    8   -3    5      4.27      0.00 
    7   -3    5      4.23      0.00 
    6   -3    5      2.89      0.00 
    5   -3    5      0.79      0.00 
    4   -3    5     -0.79      0.00 
    3   -3    5     -0.21      0.00 
    2   -3    5      3.19      0.00 
    1   -3    5      7.88      0.00 
    0   -3    5     10.69      0.00 
   -1   -3    5      9.19      0.00 
   -2   -3    5      3.86      0.00 
   -3   -3    5     -2.21      0.00 
   -4   -3    5     -5.89      0.00 
   -5   -3    5     -6.24      0.00 
   -6   -3    5     -4.57      0.00 
   -7   -3    5     -2.68      0.00 
   -8   -3    5     -1.50      0.00 
   -9   -3    5     -1.05      0.00 
  -10   -3    5     -1.02      0.00 
  -11   -3    5     -1.03      0.00 
  -12   -3    5     -0.67      0.00 
  -13   -3    5      0.25      0.00 
  -14   -3    5      1.32      0.00 
  -15   -3    5      1.84      0.00 
  -16   -3    5      1.54      0.00 
  -17   -3    5      0.80      0.00 
   14   -4    5     -0.87      0.00 
   13   -4    5     -1.01      0.00 
   12   -4    5     -0.66      0.00 
   11   -4    5     -0.30      0.00 
   10   -4    5     -0.49      0.00 
    9   -4    5     -1.25      0.00 
    8   -4    5     -2.13      0.00 
    7   -4    5     -2.70      0.00 
    6   -4    5     -2.61      0.00 
    5   -4    5     -1.66      0.00 
    4   -4    5     -0.19      0.00 
    3   -4    5      0.33      0.00 
    2   -4    5     -1.95      0.00 
    1   -4    5     -7.46      0.00 
    0   -4    5    -13.94      0.00 
   -1   -4    5    -17.66      0.00 
   -2   -4    5    -16.34      0.00 
   -3   -4    5    -10.79      0.00 
   -4   -4    5     -4.10      0.00 
   -5   -4    5      0.73      0.00 
   -6   -4    5      2.45      0.00 
   -7   -4    5      1.57      0.00 
   -8   -4    5     -0.39      0.00 
   -9   -4    5     -1.88      0.00 
  -11   -4    5     -1.28      0.00 
  -12   -4    5     -0.33      0.00 
  -13   -4    5      0.03      0.00 
  -14   -4    5     -0.23      0.00 
  -15   -4    5     -0.63      0.00 
  -16   -4    5     -0.74      0.00 
  -17   -4    5     -0.52      0.00 
   14   -5    5      0.22      0.00 
   13   -5    5      0.60      0.00 
   12   -5    5      0.68      0.00 
   11   -5    5      0.25      0.00 
   10   -5    5     -0.53      0.00 
    9   -5    5     -1.21      0.00 
    8   -5    5     -1.46      0.00 
    7   -5    5     -1.21      0.00 
    6   -5    5     -0.63      0.00 
    5   -5    5     -0.12      0.00 
    4   -5    5     -0.28      0.00 
    3   -5    5     -1.47      0.00 
    2   -5    5     -3.13      0.00 
    1   -5    5     -3.77      0.00 
    0   -5    5     -2.26      0.00 
   -1   -5    5      0.85      0.00 
   -2   -5    5      3.43      0.00 
   -3   -5    5      3.61      0.00 
   -4   -5    5      1.43      0.00 
   -5   -5    5     -1.24      0.00 
   -6   -5    5     -2.44      0.00 
   -7   -5    5     -1.64      0.00 
   -8   -5    5      0.17      0.00 
   -9   -5    5      1.70      0.00 
  -10   -5    5      2.29      0.00 
  -11   -5    5      1.99      0.00 
  -12   -5    5      1.08      0.00 
  -13   -5    5     -0.13      0.00 
  -14   -5    5     -1.28      0.00 
  -15   -5    5     -1.97      0.00 
  -16   -5    5     -1.99      0.00 
  -17   -5    5     -1.49      0.00 
   13   -6    5      0.08      0.00 
   12   -6    5      0.07      0.00 
   11   -6    5      0.36      0.00 
   10   -6    5      1.10      0.00 
    9   -6    5      2.08      0.00 
    8   -6    5      2.92      0.00 
    7   -6    5      3.20      0.00 
    6   -6    5      2.66      0.00 
    5   -6    5      1.34      0.00 
    4   -6    5     -0.07      0.00 
    3   -6    5     -0.40      0.00 
    2   -6    5      1.10      0.00 
    1   -6    5      3.91      0.00 
    0   -6    5      6.33      0.00 
   -1   -6    5      6.73      0.00 
   -2   -6    5      4.91      0.00 
   -3   -6    5      2.21      0.00 
   -4   -6    5      0.30      0.00 
   -5   -6    5     -0.11      0.00 
   -6   -6    5      0.51      0.00 
   -7   -6    5      1.20      0.00 
   -8   -6    5      1.39      0.00 
   -9   -6    5      1.03      0.00 
  -10   -6    5      0.37      0.00 
  -11   -6    5     -0.29      0.00 
  -12   -6    5     -0.63      0.00 
  -13   -6    5     -0.39      0.00 
  -14   -6    5      0.33      0.00 
  -15   -6    5      1.06      0.00 
  -16   -6    5      1.34      0.00 
  -17   -6    5      1.09      0.00 
   13   -7    5      0.34      0.00 
   12   -7    5      0.48      0.00 
   11   -7    5      0.59      0.00 
   10   -7    5      0.50      0.00 
    9   -7    5      0.03      0.00 
    8   -7    5     -0.77      0.00 
    7   -7    5     -1.47      0.00 
    6   -7    5     -1.47      0.00 
    5   -7    5     -0.60      0.00 
    4   -7    5      0.71      0.00 
    3   -7    5      1.63      0.00 
    2   -7    5      1.53      0.00 
    1   -7    5      0.28      0.00 
    0   -7    5     -1.69      0.00 
   -1   -7    5     -3.34      0.00 
   -2   -7    5     -3.46      0.00 
   -3   -7    5     -1.54      0.00 
   -4   -7    5      1.48      0.00 
   -5   -7    5      3.72      0.00 
   -6   -7    5      3.94      0.00 
   -7   -7    5      2.44      0.00 
   -8   -7    5      0.55      0.00 
   -9   -7    5     -0.67      0.00 
  -10   -7    5     -0.97      0.00 
  -11   -7    5     -0.60      0.00 
  -12   -7    5      0.05      0.00 
  -13   -7    5      0.58      0.00 
  -14   -7    5      0.70      0.00 
  -15   -7    5      0.43      0.00 
  -16   -7    5      0.14      0.00 
  -17   -7    5      0.10      0.00 
   12   -8    5     -0.27      0.00 
   11   -8    5     -0.80      0.00 
   10   -8    5     -1.54      0.00 
    9   -8    5     -2.05      0.00 
    8   -8    5     -2.00      0.00 
    7   -8    5     -1.46      0.00 
    6   -8    5     -0.73      0.00 
    5   -8    5     -0.14      0.00 
    4   -8    5      0.08      0.00 
    3   -8    5     -0.21      0.00 
    2   -8    5     -0.84      0.00 
    1   -8    5     -1.21      0.00 
    0   -8    5     -0.66      0.00 
   -1   -8    5      0.71      0.00 
   -2   -8    5      1.86      0.00 
   -3   -8    5      1.67      0.00 
   -4   -8    5      0.09      0.00 
   -5   -8    5     -1.80      0.00 
   -6   -8    5     -2.82      0.00 
   -7   -8    5     -2.60      0.00 
   -8   -8    5     -1.64      0.00 
   -9   -8    5     -0.55      0.00 
  -10   -8    5      0.22      0.00 
  -11   -8    5      0.49      0.00 
  -12   -8    5      0.25      0.00 
  -13   -8    5     -0.19      0.00 
  -14   -8    5     -0.44      0.00 
  -15   -8    5     -0.32      0.00 
  -16   -8    5     -0.02      0.00 
   12   -9    5     -0.17      0.00 
   11   -9    5     -0.09      0.00 
   10   -9    5      0.26      0.00 
    9   -9    5      0.84      0.00 
    8   -9    5      1.41      0.00 
    7   -9    5      1.60      0.00 
    6   -9    5      1.10      0.00 
    5   -9    5     -0.03      0.00 
    4   -9    5     -1.26      0.00 
    3   -9    5     -1.86      0.00 
    2   -9    5     -1.51      0.00 
    1   -9    5     -0.57      0.00 
    0   -9    5      0.19      0.00 
   -1   -9    5      0.21      0.00 
   -2   -9    5     -0.46      0.00 
   -3   -9    5     -1.30      0.00 
   -4   -9    5     -1.73      0.00 
   -5   -9    5     -1.47      0.00 
   -6   -9    5     -0.74      0.00 
   -7   -9    5     -0.01      0.00 
   -8   -9    5      0.30      0.00 
   -9   -9    5      0.17      0.00 
  -10   -9    5     -0.07      0.00 
  -11   -9    5     -0.09      0.00 
  -12   -9    5      0.11      0.00 
  -13   -9    5      0.35      0.00 
  -14   -9    5      0.48      0.00 
  -15   -9    5      0.48      0.00 
  -16   -9    5      0.35      0.00 
   11  -10    5      0.19      0.00 
   10  -10    5      0.68      0.00 
    9  -10    5      0.81      0.00 
    8  -10    5      0.39      0.00 
    7  -10    5     -0.20      0.00 
    6  -10    5     -0.43      0.00 
    5  -10    5     -0.09      0.00 
    4  -10    5      0.67      0.00 
    3  -10    5      1.55      0.00 
    2  -10    5      2.15      0.00 
    1  -10    5      2.11      0.00 
    0  -10    5      1.30      0.00 
   -1  -10    5      0.17      0.00 
   -2  -10    5     -0.47      0.00 
   -3  -10    5     -0.19      0.00 
   -4  -10    5      0.62      0.00 
   -5  -10    5      1.21      0.00 
   -6  -10    5      1.15      0.00 
   -7  -10    5      0.62      0.00 
   -8  -10    5      0.04      0.00 
   -9  -10    5     -0.35      0.00 
  -10  -10    5     -0.52      0.00 
  -11  -10    5     -0.47      0.00 
  -12  -10    5     -0.31      0.00 
  -13  -10    5     -0.24      0.00 
  -14  -10    5     -0.43      0.00 
  -15  -10    5     -0.73      0.00 
  -16  -10    5     -0.83      0.00 
   10  -11    5     -0.45      0.00 
    9  -11    5     -0.66      0.00 
    8  -11    5     -0.65      0.00 
    7  -11    5     -0.42      0.00 
    6  -11    5     -0.04      0.00 
    5  -11    5      0.35      0.00 
    4  -11    5      0.50      0.00 
    3  -11    5      0.14      0.00 
    2  -11    5     -0.64      0.00 
    1  -11    5     -1.30      0.00 
    0  -11    5     -1.23      0.00 
   -1  -11    5     -0.38      0.00 
   -2  -11    5      0.68      0.00 
   -3  -11    5      1.22      0.00 
   -4  -11    5      1.03      0.00 
   -5  -11    5      0.43      0.00 
   -6  -11    5     -0.11      0.00 
   -7  -11    5     -0.27      0.00 
   -8  -11    5      0.01      0.00 
   -9  -11    5      0.53      0.00 
  -10  -11    5      0.93      0.00 
  -11  -11    5      0.86      0.00 
  -12  -11    5      0.33      0.00 
  -13  -11    5     -0.27      0.00 
  -14  -11    5     -0.55      0.00 
  -15  -11    5     -0.44      0.00 
    5  -12    5      0.69      0.00 
    4  -12    5      0.15      0.00 
    3  -12    5     -0.44      0.00 
    2  -12    5     -0.74      0.00 
    1  -12    5     -0.57      0.00 
    0  -12    5     -0.14      0.00 
   -1  -12    5      0.12      0.00 
   -2  -12    5     -0.14      0.00 
   -3  -12    5     -0.81      0.00 
   -4  -12    5     -1.36      0.00 
   -5  -12    5     -1.31      0.00 
   -6  -12    5     -0.72      0.00 
   -7  -12    5     -0.06      0.00 
   -8  -12    5      0.23      0.00 
   -9  -12    5      0.15      0.00 
  -10  -12    5     -0.03      0.00 
  -11  -12    5     -0.12      0.00 
  -12  -12    5     -0.11      0.00 
  -13  -12    5      0.00      0.00 
  -14  -12    5      0.27      0.00 
  -15  -12    5      0.59      0.00 
    4  -13    5     -0.92      0.00 
    3  -13    5     -0.29      0.00 
    2  -13    5      0.41      0.00 
    1  -13    5      0.69      0.00 
    0  -13    5      0.42      0.00 
   -1  -13    5     -0.06      0.00 
   -2  -13    5     -0.27      0.00 
   -3  -13    5     -0.02      0.00 
   -4  -13    5      0.46      0.00 
   -5  -13    5      0.81      0.00 
   -6  -13    5      0.76      0.00 
   -7  -13    5      0.33      0.00 
   -8  -13    5     -0.24      0.00 
   -9  -13    5     -0.65      0.00 
  -10  -13    5     -0.72      0.00 
  -11  -13    5     -0.47      0.00 
  -12  -13    5     -0.12      0.00 
  -13  -13    5      0.09      0.00 
  -14  -13    5      0.08      0.00 
    4  -14    5      0.13      0.00 
    3  -14    5     -0.18      0.00 
    2  -14    5     -0.37      0.00 
    1  -14    5     -0.28      0.00 
    0  -14    5     -0.07      0.00 
   -1  -14    5      0.03      0.00 
   -2  -14    5      0.01      0.00 
   -3  -14    5      0.03      0.00 
   -4  -14    5      0.13      0.00 
   -5  -14    5      0.16      0.00 
   -6  -14    5      0.10      0.00 
   -7  -14    5      0.12      0.00 
   -8  -14    5      0.35      0.00 
   -9  -14    5      0.61      0.00 
  -10  -14    5      0.61      0.00 
  -11  -14    5      0.27      0.00 
  -12  -14    5     -0.15      0.00 
  -13  -14    5     -0.34      0.00 
  -14  -14    5     -0.27      0.00 
    3  -15    5      0.32      0.00 
    2  -15    5      0.29      0.00 
    1  -15    5      0.23      0.00 
    0  -15    5      0.28      0.00 
   -1  -15    5      0.37      0.00 
   -2  -15    5      0.26      0.00 
   -3  -15    5     -0.18      0.00 
   -4  -15    5     -0.80      0.00 
   -5  -15    5     -1.29      0.00 
   -6  -15    5     -1.45      0.00 
   -7  -15    5     -1.28      0.00 
   -8  -15    5     -0.91      0.00 
   -9  -15    5     -0.52      0.00 
  -10  -15    5     -0.31      0.00 
  -11  -15    5     -0.28      0.00 
  -12  -15    5     -0.26      0.00 
  -13  -15    5     -0.11      0.00 
    3  -16    5      0.12      0.00 
    2  -16    5      0.15      0.00 
    1  -16    5     -0.05      0.00 
    0  -16    5     -0.39      0.00 
   -1  -16    5     -0.61      0.00 
   -2  -16    5     -0.56      0.00 
   -3  -16    5     -0.30      0.00 
   -4  -16    5      0.10      0.00 
   -5  -16    5      0.60      0.00 
   -6  -16    5      1.07      0.00 
   -7  -16    5      1.25      0.00 
   -8  -16    5      0.97      0.00 
   -9  -16    5      0.42      0.00 
  -10  -16    5      0.01      0.00 
  -11  -16    5     -0.04      0.00 
  -12  -16    5      0.13      0.00 
    2  -17    5      0.10      0.00 
    1  -17    5      0.41      0.00 
    0  -17    5      0.52      0.00 
   -1  -17    5      0.39      0.00 
   -2  -17    5      0.31      0.00 
   -3  -17    5      0.48      0.00 
   -4  -17    5      0.75      0.00 
   -5  -17    5      0.82      0.00 
   -6  -17    5      0.65      0.00 
   -7  -17    5      0.40      0.00 
   -8  -17    5      0.25      0.00 
   -9  -17    5      0.22      0.00 
  -10  -17    5      0.22      0.00 
    1  -18    5     -0.30      0.00 
    0  -18    5     -0.17      0.00 
   -1  -18    5      0.16      0.00 
   -2  -18    5      0.36      0.00 
   -3  -18    5      0.20      0.00 
   -4  -18    5     -0.22      0.00 
   -5  -18    5     -0.65      0.00 
   -6  -18    5     -0.92      0.00 
   -7  -18    5     -0.95      0.00 
   -8  -18    5     -0.76      0.00 
    8   20    4      0.45      0.00 
    7   20    4      0.36      0.00 
    6   20    4      0.13      0.00 
    5   20    4     -0.01      0.00 
    4   20    4     -0.03      0.00 
    3   20    4     -0.05      0.00 
    2   20    4     -0.09      0.00 
   10   19    4     -0.05      0.00 
    9   19    4     -0.20      0.00 
    8   19    4     -0.13      0.00 
    7   19    4      0.05      0.00 
    6   19    4      0.13      0.00 
    5   19    4      0.12      0.00 
    4   19    4      0.12      0.00 
    3   19    4      0.09      0.00 
    2   19    4     -0.03      0.00 
    1   19    4     -0.15      0.00 
    0   19    4     -0.06      0.00 
   -1   19    4      0.25      0.00 
   -2   19    4      0.46      0.00 
   12   18    4     -0.23      0.00 
   11   18    4     -0.06      0.00 
   10   18    4      0.08      0.00 
    9   18    4      0.03      0.00 
    8   18    4     -0.14      0.00 
    7   18    4     -0.20      0.00 
    6   18    4     -0.13      0.00 
    5   18    4     -0.06      0.00 
    4   18    4     -0.08      0.00 
    3   18    4     -0.08      0.00 
    2   18    4      0.04      0.00 
    1   18    4      0.13      0.00 
    0   18    4      0.00      0.00 
   -1   18    4     -0.33      0.00 
   -2   18    4     -0.61      0.00 
   -3   18    4     -0.65      0.00 
   -4   18    4     -0.48      0.00 
   13   17    4      0.13      0.00 
   12   17    4     -0.01      0.00 
   11   17    4     -0.10      0.00 
   10   17    4      0.07      0.00 
    9   17    4      0.34      0.00 
    8   17    4      0.44      0.00 
    7   17    4      0.32      0.00 
    6   17    4      0.19      0.00 
    5   17    4      0.12      0.00 
    4   17    4      0.01      0.00 
    3   17    4     -0.17      0.00 
    2   17    4     -0.28      0.00 
    1   17    4     -0.25      0.00 
    0   17    4     -0.25      0.00 
   -1   17    4     -0.34      0.00 
   -2   17    4     -0.37      0.00 
   -3   17    4     -0.15      0.00 
   -4   17    4      0.20      0.00 
   -5   17    4      0.37      0.00 
   14   16    4      0.54      0.00 
   13   16    4      0.56      0.00 
   12   16    4      0.47      0.00 
   11   16    4      0.22      0.00 
   10   16    4     -0.06      0.00 
    9   16    4     -0.19      0.00 
    8   16    4     -0.16      0.00 
    7   16    4     -0.12      0.00 
    6   16    4     -0.18      0.00 
    5   16    4     -0.29      0.00 
    4   16    4     -0.38      0.00 
    3   16    4     -0.47      0.00 
    2   16    4     -0.52      0.00 
    1   16    4     -0.39      0.00 
    0   16    4     -0.03      0.00 
   -1   16    4      0.33      0.00 
   -2   16    4      0.44      0.00 
   -3   16    4      0.31      0.00 
   -4   16    4      0.16      0.00 
   -5   16    4      0.16      0.00 
   -6   16    4      0.26      0.00 
   -7   16    4      0.34      0.00 
   15   15    4     -0.01      0.00 
   14   15    4     -0.38      0.00 
   13   15    4     -0.68      0.00 
   12   15    4     -0.57      0.00 
   11   15    4     -0.05      0.00 
   10   15    4      0.46      0.00 
    9   15    4      0.59      0.00 
    8   15    4      0.36      0.00 
    7   15    4      0.06      0.00 
    6   15    4     -0.18      0.00 
    5   15    4     -0.33      0.00 
    4   15    4     -0.26      0.00 
    3   15    4      0.16      0.00 
    2   15    4      0.69      0.00 
    1   15    4      0.86      0.00 
    0   15    4      0.59      0.00 
   -1   15    4      0.27      0.00 
   -2   15    4      0.27      0.00 
   -3   15    4      0.52      0.00 
   -4   15    4      0.68      0.00 
   -5   15    4      0.61      0.00 
   -6   15    4      0.40      0.00 
   -7   15    4      0.16      0.00 
   -8   15    4     -0.06      0.00 
   15   14    4     -0.31      0.00 
   14   14    4     -0.23      0.00 
   13   14    4      0.01      0.00 
   12   14    4      0.13      0.00 
   11   14    4     -0.09      0.00 
   10   14    4     -0.53      0.00 
    9   14    4     -0.84      0.00 
    8   14    4     -0.80      0.00 
    7   14    4     -0.48      0.00 
    6   14    4     -0.06      0.00 
    5   14    4      0.29      0.00 
    4   14    4      0.49      0.00 
    3   14    4      0.49      0.00 
    2   14    4      0.31      0.00 
    1   14    4      0.06      0.00 
    0   14    4     -0.16      0.00 
   -1   14    4     -0.26      0.00 
   -2   14    4     -0.24      0.00 
   -3   14    4     -0.22      0.00 
   -4   14    4     -0.34      0.00 
   -5   14    4     -0.64      0.00 
   -6   14    4     -0.95      0.00 
   -7   14    4     -1.07      0.00 
   -8   14    4     -0.93      0.00 
   14   13    4      0.36      0.00 
   13   13    4      0.12      0.00 
   12   13    4     -0.11      0.00 
   11   13    4     -0.17      0.00 
   10   13    4     -0.15      0.00 
    9   13    4     -0.26      0.00 
    8   13    4     -0.45      0.00 
    7   13    4     -0.52      0.00 
    6   13    4     -0.37      0.00 
    5   13    4     -0.21      0.00 
    4   13    4     -0.31      0.00 
    3   13    4     -0.68      0.00 
    2   13    4     -1.01      0.00 
    1   13    4     -0.97      0.00 
    0   13    4     -0.54      0.00 
   -1   13    4     -0.04      0.00 
   -2   13    4      0.12      0.00 
   -3   13    4     -0.11      0.00 
   -4   13    4     -0.44      0.00 
   -5   13    4     -0.54      0.00 
   -6   13    4     -0.29      0.00 
   -7   13    4      0.18      0.00 
   -8   13    4      0.58      0.00 
   -9   13    4      0.65      0.00 
   14   12    4     -0.39      0.00 
   13   12    4     -0.16      0.00 
   12   12    4      0.17      0.00 
   11   12    4      0.62      0.00 
   10   12    4      1.20      0.00 
    9   12    4      1.70      0.00 
    8   12    4      1.81      0.00 
    7   12    4      1.46      0.00 
    6   12    4      0.86      0.00 
    5   12    4      0.43      0.00 
    4   12    4      0.42      0.00 
    3   12    4      0.73      0.00 
    2   12    4      1.04      0.00 
    1   12    4      1.03      0.00 
    0   12    4      0.64      0.00 
   -1   12    4      0.06      0.00 
   -2   12    4     -0.39      0.00 
   -3   12    4     -0.50      0.00 
   -4   12    4     -0.21      0.00 
   -5   12    4      0.27      0.00 
   -6   12    4      0.64      0.00 
   -7   12    4      0.72      0.00 
   -8   12    4      0.57      0.00 
   -9   12    4      0.41      0.00 
  -10   12    4      0.34      0.00 
   13   11    4     -0.37      0.00 
   12   11    4     -0.03      0.00 
   11   11    4      0.05      0.00 
   10   11    4     -0.14      0.00 
    9   11    4     -0.24      0.00 
    8   11    4     -0.02      0.00 
    7   11    4      0.45      0.00 
    6   11    4      1.00      0.00 
    5   11    4      1.46      0.00 
    4   11    4      1.65      0.00 
    3   11    4      1.43      0.00 
    2   11    4      0.88      0.00 
    1   11    4      0.35      0.00 
    0   11    4      0.13      0.00 
   -1   11    4      0.26      0.00 
   -2   11    4      0.59      0.00 
   -3   11    4      0.87      0.00 
   -4   11    4      0.89      0.00 
   -5   11    4      0.57      0.00 
   -6   11    4     -0.01      0.00 
   -7   11    4     -0.56      0.00 
   -8   11    4     -0.84      0.00 
   -9   11    4     -0.77      0.00 
  -10   11    4     -0.48      0.00 
  -11   11    4     -0.18      0.00 
   13   10    4      1.44      0.00 
   12   10    4      1.01      0.00 
   11   10    4      0.28      0.00 
   10   10    4     -0.66      0.00 
    9   10    4     -1.61      0.00 
    8   10    4     -2.22      0.00 
    7   10    4     -2.37      0.00 
    6   10    4     -2.48      0.00 
    5   10    4     -3.01      0.00 
    4   10    4     -3.81      0.00 
    3   10    4     -4.16      0.00 
    2   10    4     -3.58      0.00 
    1   10    4     -2.27      0.00 
    0   10    4     -0.87      0.00 
   -1   10    4      0.12      0.00 
   -2   10    4      0.54      0.00 
   -3   10    4      0.46      0.00 
   -4   10    4      0.10      0.00 
   -5   10    4     -0.23      0.00 
   -6   10    4     -0.25      0.00 
   -7   10    4      0.06      0.00 
   -8   10    4      0.41      0.00 
   -9   10    4      0.49      0.00 
  -10   10    4      0.26      0.00 
  -11   10    4     -0.02      0.00 
  -12   10    4     -0.10      0.00 
   16    9    4      0.51      0.00 
   15    9    4      0.19      0.00 
   14    9    4     -0.40      0.00 
   13    9    4     -0.88      0.00 
   12    9    4     -0.89      0.00 
   11    9    4     -0.26      0.00 
   10    9    4      0.80      0.00 
    9    9    4      1.81      0.00 
    8    9    4      2.28      0.00 
    7    9    4      1.94      0.00 
    6    9    4      0.86      0.00 
    5    9    4     -0.59      0.00 
    4    9    4     -1.85      0.00 
    3    9    4     -2.42      0.00 
    2    9    4     -2.22      0.00 
    1    9    4     -1.73      0.00 
    0    9    4     -1.56      0.00 
   -1    9    4     -1.84      0.00 
   -2    9    4     -2.13      0.00 
   -3    9    4     -1.96      0.00 
   -4    9    4     -1.25      0.00 
   -5    9    4     -0.33      0.00 
   -6    9    4      0.45      0.00 
   -7    9    4      0.77      0.00 
   -8    9    4      0.53      0.00 
   -9    9    4     -0.04      0.00 
  -10    9    4     -0.49      0.00 
  -11    9    4     -0.54      0.00 
  -12    9    4     -0.31      0.00 
   17    8    4     -0.27      0.00 
   16    8    4     -0.59      0.00 
   15    8    4     -0.76      0.00 
   14    8    4     -0.58      0.00 
   13    8    4     -0.27      0.00 
   12    8    4     -0.25      0.00 
   11    8    4     -0.71      0.00 
   10    8    4     -1.49      0.00 
    9    8    4     -2.25      0.00 
    8    8    4     -2.62      0.00 
    7    8    4     -2.06      0.00 
    6    8    4     -0.01      0.00 
    5    8    4      3.66      0.00 
    4    8    4      7.92      0.00 
    3    8    4     10.85      0.00 
    2    8    4     11.03      0.00 
    1    8    4      8.66      0.00 
    0    8    4      5.39      0.00 
   -1    8    4      2.84      0.00 
   -2    8    4      1.55      0.00 
   -3    8    4      1.10      0.00 
   -4    8    4      0.84      0.00 
   -5    8    4      0.40      0.00 
   -6    8    4     -0.23      0.00 
   -7    8    4     -0.78      0.00 
   -8    8    4     -0.90      0.00 
   -9    8    4     -0.51      0.00 
  -10    8    4      0.03      0.00 
  -11    8    4      0.30      0.00 
  -12    8    4      0.18      0.00 
  -13    8    4     -0.06      0.00 
   17    7    4     -0.54      0.00 
   16    7    4     -0.48      0.00 
   15    7    4     -0.17      0.00 
   14    7    4      0.27      0.00 
   13    7    4      0.57      0.00 
   12    7    4      0.49      0.00 
   11    7    4      0.01      0.00 
   10    7    4     -0.66      0.00 
    9    7    4     -1.17      0.00 
    8    7    4     -1.32      0.00 
    7    7    4     -1.19      0.00 
    6    7    4     -1.14      0.00 
    5    7    4     -1.54      0.00 
    4    7    4     -2.38      0.00 
    3    7    4     -3.03      0.00 
    2    7    4     -2.53      0.00 
    1    7    4     -0.44      0.00 
    0    7    4      2.57      0.00 
   -1    7    4      4.92      0.00 
   -2    7    4      5.29      0.00 
   -3    7    4      3.66      0.00 
   -4    7    4      1.26      0.00 
   -5    7    4     -0.53      0.00 
   -6    7    4     -1.15      0.00 
   -7    7    4     -0.95      0.00 
   -8    7    4     -0.48      0.00 
   -9    7    4     -0.03      0.00 
  -10    7    4      0.34      0.00 
  -11    7    4      0.57      0.00 
  -12    7    4      0.61      0.00 
  -13    7    4      0.53      0.00 
  -14    7    4      0.41      0.00 
   17    6    4      0.30      0.00 
   16    6    4      0.65      0.00 
   15    6    4      0.72      0.00 
   14    6    4      0.24      0.00 
   13    6    4     -0.44      0.00 
   12    6    4     -0.60      0.00 
   11    6    4      0.21      0.00 
   10    6    4      1.94      0.00 
    9    6    4      4.17      0.00 
    8    6    4      6.06      0.00 
    7    6    4      6.45      0.00 
    6    6    4      4.37      0.00 
    5    6    4     -0.03      0.00 
    4    6    4     -5.26      0.00 
    3    6    4     -9.37      0.00 
    2    6    4    -11.41      0.00 
    1    6    4    -11.81      0.00 
    0    6    4    -11.52      0.00 
   -1    6    4    -10.86      0.00 
   -2    6    4     -9.38      0.00 
   -3    6    4     -6.75      0.00 
   -4    6    4     -3.44      0.00 
   -5    6    4     -0.44      0.00 
   -6    6    4      1.44      0.00 
   -7    6    4      2.08      0.00 
   -8    6    4      1.74      0.00 
   -9    6    4      0.90      0.00 
  -10    6    4      0.02      0.00 
  -11    6    4     -0.50      0.00 
  -12    6    4     -0.56      0.00 
  -13    6    4     -0.39      0.00 
  -14    6    4     -0.25      0.00 
   17    5    4      0.28      0.00 
   16    5    4     -0.15      0.00 
   15    5    4     -0.61      0.00 
   14    5    4     -0.68      0.00 
   13    5    4     -0.28      0.00 
   12    5    4      0.28      0.00 
   11    5    4      0.56      0.00 
   10    5    4      0.27      0.00 
    9    5    4     -0.66      0.00 
    8    5    4     -1.76      0.00 
    7    5    4     -1.88      0.00 
    6    5    4      0.24      0.00 
    5    5    4      4.84      0.00 
    4    5    4     10.25      0.00 
    3    5    4     13.48      0.00 
    2    5    4     12.19      0.00 
    1    5    4      6.61      0.00 
    0    5    4     -0.53      0.00 
   -1    5    4     -5.89      0.00 
   -2    5    4     -7.65      0.00 
   -3    5    4     -6.28      0.00 
   -4    5    4     -3.71      0.00 
   -5    5    4     -1.78      0.00 
   -6    5    4     -1.21      0.00 
   -7    5    4     -1.48      0.00 
   -8    5    4     -1.62      0.00 
   -9    5    4     -1.16      0.00 
  -10    5    4     -0.36      0.00 
  -11    5    4      0.27      0.00 
  -12    5    4      0.54      0.00 
  -13    5    4      0.54      0.00 
  -14    5    4      0.40      0.00 
  -15    5    4      0.19      0.00 
   17    4    4     -0.06      0.00 
   16    4    4     -0.07      0.00 
   15    4    4      0.20      0.00 
   14    4    4      0.76      0.00 
   13    4    4      1.19      0.00 
   12    4    4      1.09      0.00 
   11    4    4      0.40      0.00 
   10    4    4     -0.65      0.00 
    9    4    4     -1.84      0.00 
    8    4    4     -2.96      0.00 
    7    4    4     -3.90      0.00 
    6    4    4     -5.04      0.00 
    5    4    4     -7.10      0.00 
    4    4    4     -9.87      0.00 
    3    4    4    -11.15      0.00 
    2    4    4     -7.92      0.00 
    1    4    4      0.66      0.00 
    0    4    4     11.61      0.00 
   -1    4    4     19.98      0.00 
   -2    4    4     22.44      0.00 
   -3    4    4     19.13      0.00 
   -4    4    4     12.83      0.00 
   -5    4    4      6.68      0.00 
   -6    4    4      2.66      0.00 
   -7    4    4      1.08      0.00 
   -8    4    4      1.12      0.00 
   -9    4    4      1.55      0.00 
  -10    4    4      1.51      0.00 
  -11    4    4      0.83      0.00 
  -12    4    4     -0.09      0.00 
  -13    4    4     -0.68      0.00 
  -14    4    4     -0.68      0.00 
  -15    4    4     -0.29      0.00 
   16    3    4      0.12      0.00 
   15    3    4      0.17      0.00 
   14    3    4     -0.34      0.00 
   13    3    4     -1.21      0.00 
   12    3    4     -1.83      0.00 
   11    3    4     -1.72      0.00 
   10    3    4     -0.78      0.00 
    9    3    4      0.75      0.00 
    8    3    4      2.10      0.00 
    7    3    4      2.10      0.00 
    6    3    4      0.01      0.00 
    5    3    4     -3.47      0.00 
    4    3    4     -6.49      0.00 
    3    3    4     -7.46      0.00 
    2    3    4     -6.31      0.00 
    1    3    4     -4.33      0.00 
    0    3    4     -2.99      0.00 
   -1    3    4     -2.84      0.00 
   -2    3    4     -3.31      0.00 
   -3    3    4     -3.30      0.00 
   -4    3    4     -2.22      0.00 
   -5    3    4     -0.47      0.00 
   -6    3    4      0.94      0.00 
   -7    3    4      1.32      0.00 
   -8    3    4      0.71      0.00 
   -9    3    4     -0.34      0.00 
  -10    3    4     -1.16      0.00 
  -11    3    4     -1.34      0.00 
  -12    3    4     -0.91      0.00 
  -13    3    4     -0.37      0.00 
  -14    3    4     -0.17      0.00 
  -15    3    4     -0.33      0.00 
  -16    3    4     -0.47      0.00 
   16    2    4     -0.55      0.00 
   15    2    4     -0.56      0.00 
   14    2    4     -0.31      0.00 
   13    2    4      0.25      0.00 
   12    2    4      0.91      0.00 
   11    2    4      1.21      0.00 
   10    2    4      0.71      0.00 
    9    2    4     -0.52      0.00 
    8    2    4     -1.83      0.00 
    7    2    4     -2.13      0.00 
    6    2    4     -0.22      0.00 
    5    2    4      4.68      0.00 
    4    2    4     11.69      0.00 
    3    2    4     17.39      0.00 
    2    2    4     17.10      0.00 
    1    2    4      8.75      0.00 
    0    2    4     -4.35      0.00 
   -1    2    4    -15.36      0.00 
   -2    2    4    -19.31      0.00 
   -3    2    4    -16.65      0.00 
   -4    2    4    -11.51      0.00 
   -5    2    4     -7.43      0.00 
   -6    2    4     -5.18      0.00 
   -7    2    4     -3.96      0.00 
   -8    2    4     -3.09      0.00 
   -9    2    4     -2.35      0.00 
  -10    2    4     -1.57      0.00 
  -11    2    4     -0.64      0.00 
  -12    2    4      0.21      0.00 
  -13    2    4      0.63      0.00 
  -14    2    4      0.58      0.00 
  -15    2    4      0.35      0.00 
  -16    2    4      0.18      0.00 
   16    1    4      0.09      0.00 
   15    1    4      0.24      0.00 
   14    1    4      0.62      0.00 
   13    1    4      0.87      0.00 
   12    1    4      0.61      0.00 
   11    1    4     -0.13      0.00 
   10    1    4     -0.89      0.00 
    9    1    4     -1.09      0.00 
    8    1    4     -0.29      0.00 
    7    1    4      1.65      0.00 
    6    1    4      4.02      0.00 
    5    1    4      5.22      0.00 
    4    1    4      3.89      0.00 
    3    1    4      0.75      0.00 
    2    1    4     -1.18      0.00 
    1    1    4      0.90      0.00 
    0    1    4      6.70      0.00 
   -1    1    4     12.66      0.00 
   -2    1    4     14.93      0.00 
   -3    1    4     12.30      0.00 
   -4    1    4      6.77      0.00 
   -5    1    4      1.53      0.00 
   -6    1    4     -1.24      0.00 
   -7    1    4     -1.28      0.00 
   -8    1    4      0.25      0.00 
   -9    1    4      1.86      0.00 
  -10    1    4      2.51      0.00 
  -11    1    4      2.02      0.00 
  -12    1    4      0.95      0.00 
  -13    1    4      0.13      0.00 
  -14    1    4     -0.01      0.00 
  -15    1    4      0.32      0.00 
  -16    1    4      0.55      0.00 
   16    0    4      0.61      0.00 
   15    0    4      0.59      0.00 
   14    0    4     -0.09      0.00 
   13    0    4     -1.13      0.00 
   12    0    4     -1.75      0.00 
   11    0    4     -1.31      0.00 
   10    0    4      0.26      0.00 
    9    0    4      2.30      0.00 
    8    0    4      3.62      0.00 
    7    0    4      3.07      0.00 
    6    0    4      0.32      0.00 
    5    0    4     -3.68      0.00 
    4    0    4     -7.03      0.00 
    3    0    4     -7.73      0.00 
    2    0    4     -4.78      0.00 
    1    0    4      0.84      0.00 
    0    0    4      6.27      0.00 
   -1    0    4      8.57      0.00 
   -2    0    4      7.15      0.00 
   -3    0    4      4.35      0.00 
   -4    0    4      3.14      0.00 
   -5    0    4      4.19      0.00 
   -6    0    4      5.73      0.00 
   -7    0    4      5.80      0.00 
   -8    0    4      4.12      0.00 
   -9    0    4      1.77      0.00 
  -10    0    4     -0.09      0.00 
  -11    0    4     -1.03      0.00 
  -12    0    4     -1.10      0.00 
  -13    0    4     -0.70      0.00 
  -14    0    4     -0.26      0.00 
  -15    0    4     -0.05      0.00 
  -16    0    4      0.02      0.00 
   15   -1    4     -0.80      0.00 
   14   -1    4     -0.79      0.00 
   13   -1    4     -0.05      0.00 
   12   -1    4      1.16      0.00 
   11   -1    4      2.12      0.00 
   10   -1    4      2.14      0.00 
    9   -1    4      1.11      0.00 
    8   -1    4     -0.45      0.00 
    7   -1    4     -1.73      0.00 
    6   -1    4     -1.95      0.00 
    5   -1    4     -0.68      0.00 
    4   -1    4      1.24      0.00 
    3   -1    4      1.13      0.00 
    2   -1    4     -4.24      0.00 
    1   -1    4    -15.39      0.00 
    0   -1    4    -28.03      0.00 
   -1   -1    4    -35.39      0.00 
   -2   -1    4    -33.49      0.00 
   -3   -1    4    -24.25      0.00 
   -4   -1    4    -13.33      0.00 
   -5   -1    4     -5.42      0.00 
   -6   -1    4     -1.74      0.00 
   -7   -1    4     -0.93      0.00 
   -8   -1    4     -1.17      0.00 
   -9   -1    4     -1.26      0.00 
  -10   -1    4     -0.77      0.00 
  -11   -1    4      0.12      0.00 
  -12   -1    4      0.85      0.00 
  -13   -1    4      0.99      0.00 
  -14   -1    4      0.55      0.00 
  -15   -1    4     -0.11      0.00 
  -16   -1    4     -0.56      0.00 
  -17   -1    4     -0.59      0.00 
   15   -2    4      0.53      0.00 
   14   -2    4      1.02      0.00 
   13   -2    4      1.21      0.00 
   12   -2    4      0.61      0.00 
   11   -2    4     -0.88      0.00 
   10   -2    4     -2.70      0.00 
    9   -2    4     -4.05      0.00 
    8   -2    4     -4.43      0.00 
    7   -2    4     -3.81      0.00 
    6   -2    4     -2.73      0.00 
    5   -2    4     -2.11      0.00 
    4   -2    4     -2.57      0.00 
    3   -2    4     -3.31      0.00 
    2   -2    4     -1.95      0.00 
    1   -2    4      3.69      0.00 
    0   -2    4     13.05      0.00 
   -1   -2    4     22.29      0.00 
   -2   -2    4     26.68      0.00 
   -3   -2    4     23.95      0.00 
   -4   -2    4     15.77      0.00 
   -5   -2    4      6.30      0.00 
   -6   -2    4     -0.60      0.00 
   -7   -2    4     -3.43      0.00 
   -8   -2    4     -3.16      0.00 
   -9   -2    4     -1.80      0.00 
  -10   -2    4     -0.79      0.00 
  -11   -2    4     -0.54      0.00 
  -12   -2    4     -0.81      0.00 
  -13   -2    4     -1.23      0.00 
  -14   -2    4     -1.40      0.00 
  -15   -2    4     -1.11      0.00 
  -16   -2    4     -0.51      0.00 
  -17   -2    4     -0.06      0.00 
   15   -3    4      0.15      0.00 
   14   -3    4      0.18      0.00 
   13   -3    4     -0.18      0.00 
   12   -3    4     -0.47      0.00 
   11   -3    4     -0.05      0.00 
   10   -3    4      1.23      0.00 
    9   -3    4      2.82      0.00 
    8   -3    4      3.95      0.00 
    7   -3    4      4.17      0.00 
    6   -3    4      3.34      0.00 
    5   -3    4      1.78      0.00 
    4   -3    4      0.59      0.00 
    3   -3    4      1.36      0.00 
    2   -3    4      4.79      0.00 
    1   -3    4      9.36      0.00 
    0   -3    4     11.98      0.00 
   -1   -3    4     10.51      0.00 
   -2   -3    4      5.86      0.00 
   -4   -3    4     -0.67      0.00 
   -5   -3    4      0.45      0.00 
   -6   -3    4      2.73      0.00 
   -7   -3    4      4.20      0.00 
   -8   -3    4      4.10      0.00 
   -9   -3    4      2.79      0.00 
  -10   -3    4      1.10      0.00 
  -11   -3    4     -0.12      0.00 
  -12   -3    4     -0.39      0.00 
  -13   -3    4      0.18      0.00 
  -14   -3    4      0.95      0.00 
  -15   -3    4      1.27      0.00 
  -16   -3    4      1.05      0.00 
  -17   -3    4      0.59      0.00 
   14   -4    4     -0.49      0.00 
   13   -4    4     -0.55      0.00 
   12   -4    4     -0.24      0.00 
   11   -4    4      0.20      0.00 
   10   -4    4      0.44      0.00 
    9   -4    4      0.29      0.00 
    8   -4    4     -0.20      0.00 
    7   -4    4     -0.69      0.00 
    6   -4    4     -0.54      0.00 
    5   -4    4      0.88      0.00 
    4   -4    4      3.40      0.00 
    3   -4    4      5.43      0.00 
    2   -4    4      4.77      0.00 
    1   -4    4      0.49      0.00 
    0   -4    4     -5.81      0.00 
   -1   -4    4    -10.89      0.00 
   -2   -4    4    -12.31      0.00 
   -3   -4    4    -10.07      0.00 
   -4   -4    4     -6.26      0.00 
   -5   -4    4     -3.22      0.00 
   -6   -4    4     -2.04      0.00 
   -7   -4    4     -2.29      0.00 
   -8   -4    4     -2.70      0.00 
   -9   -4    4     -2.28      0.00 
  -10   -4    4     -1.01      0.00 
  -11   -4    4      0.40      0.00 
  -12   -4    4      1.30      0.00 
  -13   -4    4      1.62      0.00 
  -14   -4    4      1.64      0.00 
  -15   -4    4      1.50      0.00 
  -16   -4    4      1.13      0.00 
  -17   -4    4      0.61      0.00 
   14   -5    4      0.00      0.00 
   13   -5    4      0.01      0.00 
   12   -5    4     -0.16      0.00 
   11   -5    4     -0.70      0.00 
   10   -5    4     -1.55      0.00 
    9   -5    4     -2.30      0.00 
    8   -5    4     -2.49      0.00 
    7   -5    4     -2.02      0.00 
    6   -5    4     -1.19      0.00 
    5   -5    4     -0.64      0.00 
    4   -5    4     -1.10      0.00 
    3   -5    4     -2.88      0.00 
    2   -5    4     -5.26      0.00 
    1   -5    4     -6.58      0.00 
    0   -5    4     -5.38      0.00 
   -1   -5    4     -1.89      0.00 
   -2   -5    4      1.77      0.00 
   -3   -5    4      3.22      0.00 
   -4   -5    4      1.80      0.00 
   -5   -5    4     -1.03      0.00 
   -6   -5    4     -3.12      0.00 
   -7   -5    4     -3.45      0.00 
   -8   -5    4     -2.53      0.00 
   -9   -5    4     -1.38      0.00 
  -10   -5    4     -0.56      0.00 
  -11   -5    4     -0.19      0.00 
  -12   -5    4     -0.33      0.00 
  -13   -5    4     -0.97      0.00 
  -14   -5    4     -1.77      0.00 
  -15   -5    4     -2.17      0.00 
  -16   -5    4     -1.86      0.00 
  -17   -5    4     -1.12      0.00 
   13   -6    4     -0.69      0.00 
   12   -6    4     -0.85      0.00 
   11   -6    4     -0.56      0.00 
   10   -6    4      0.20      0.00 
    9   -6    4      1.20      0.00 
    8   -6    4      1.98      0.00 
    7   -6    4      2.09      0.00 
    6   -6    4      1.24      0.00 
    5   -6    4     -0.36      0.00 
    4   -6    4     -1.83      0.00 
    3   -6    4     -1.99      0.00 
    2   -6    4     -0.39      0.00 
    1   -6    4      2.12      0.00 
    0   -6    4      3.81      0.00 
   -1   -6    4      3.37      0.00 
   -2   -6    4      1.01      0.00 
   -3   -6    4     -1.65      0.00 
   -4   -6    4     -2.76      0.00 
   -5   -6    4     -1.59      0.00 
   -6   -6    4      1.00      0.00 
   -7   -6    4      3.36      0.00 
   -8   -6    4      4.24      0.00 
   -9   -6    4      3.48      0.00 
  -10   -6    4      1.77      0.00 
  -11   -6    4      0.12      0.00 
  -12   -6    4     -0.76      0.00 
  -13   -6    4     -0.72      0.00 
  -14   -6    4     -0.24      0.00 
  -15   -6    4      0.07      0.00 
  -16   -6    4     -0.01      0.00 
  -17   -6    4     -0.25      0.00 
   13   -7    4      0.66      0.00 
   12   -7    4      1.25      0.00 
   11   -7    4      1.80      0.00 
   10   -7    4      1.97      0.00 
    9   -7    4      1.60      0.00 
    8   -7    4      0.76      0.00 
    7   -7    4     -0.08      0.00 
    6   -7    4     -0.38      0.00 
    5   -7    4      0.10      0.00 
    4   -7    4      0.96      0.00 
    3   -7    4      1.49      0.00 
    2   -7    4      1.14      0.00 
    1   -7    4     -0.04      0.00 
    0   -7    4     -1.46      0.00 
   -1   -7    4     -2.17      0.00 
   -2   -7    4     -1.40      0.00 
   -3   -7    4      0.78      0.00 
   -4   -7    4      3.21      0.00 
   -5   -7    4      4.36      0.00 
   -6   -7    4      3.63      0.00 
   -7   -7    4      1.76      0.00 
   -8   -7    4      0.09      0.00 
   -9   -7    4     -0.54      0.00 
  -10   -7    4     -0.16      0.00 
  -11   -7    4      0.68      0.00 
  -12   -7    4      1.39      0.00 
  -13   -7    4      1.58      0.00 
  -14   -7    4      1.22      0.00 
  -15   -7    4      0.59      0.00 
  -16   -7    4      0.12      0.00 
  -17   -7    4      0.01      0.00 
   13   -8    4      0.42      0.00 
   12   -8    4      0.42      0.00 
   11   -8    4     -0.05      0.00 
   10   -8    4     -0.81      0.00 
    9   -8    4     -1.44      0.00 
    8   -8    4     -1.59      0.00 
    7   -8    4     -1.13      0.00 
    6   -8    4     -0.17      0.00 
    5   -8    4      0.96      0.00 
    4   -8    4      1.71      0.00 
    3   -8    4      1.60      0.00 
    2   -8    4      0.75      0.00 
    1   -8    4     -0.04      0.00 
    0   -8    4      0.08      0.00 
   -1   -8    4      1.08      0.00 
   -2   -8    4      2.05      0.00 
   -3   -8    4      2.05      0.00 
   -4   -8    4      1.01      0.00 
   -5   -8    4     -0.41      0.00 
   -6   -8    4     -1.48      0.00 
   -7   -8    4     -1.89      0.00 
   -8   -8    4     -1.68      0.00 
   -9   -8    4     -1.12      0.00 
  -10   -8    4     -0.64      0.00 
  -11   -8    4     -0.59      0.00 
  -12   -8    4     -0.94      0.00 
  -13   -8    4     -1.31      0.00 
  -14   -8    4     -1.29      0.00 
  -15   -8    4     -0.82      0.00 
  -16   -8    4     -0.20      0.00 
  -17   -8    4      0.24      0.00 
   12   -9    4     -0.55      0.00 
   11   -9    4     -0.84      0.00 
   10   -9    4     -0.86      0.00 
    9   -9    4     -0.49      0.00 
    8   -9    4      0.06      0.00 
    7   -9    4      0.30      0.00 
    6   -9    4     -0.13      0.00 
    5   -9    4     -1.18      0.00 
    4   -9    4     -2.26      0.00 
    3   -9    4     -2.62      0.00 
    2   -9    4     -1.89      0.00 
    1   -9    4     -0.45      0.00 
    0   -9    4      0.75      0.00 
   -1   -9    4      0.89      0.00 
   -2   -9    4     -0.20      0.00 
   -3   -9    4     -1.81      0.00 
   -4   -9    4     -2.90      0.00 
   -5   -9    4     -2.75      0.00 
   -6   -9    4     -1.52      0.00 
   -7   -9    4     -0.07      0.00 
   -8   -9    4      0.74      0.00 
   -9   -9    4      0.71      0.00 
  -10   -9    4      0.28      0.00 
  -11   -9    4     -0.02      0.00 
  -12   -9    4      0.00      0.00 
  -13   -9    4      0.25      0.00 
  -14   -9    4      0.55      0.00 
  -15   -9    4      0.76      0.00 
  -16   -9    4      0.73      0.00 
   11  -10    4     -0.03      0.00 
   10  -10    4      0.43      0.00 
    9  -10    4      0.69      0.00 
    8  -10    4      0.56      0.00 
    7  -10    4      0.24      0.00 
    6  -10    4      0.01      0.00 
    5  -10    4      0.01      0.00 
    4  -10    4      0.28      0.00 
    3  -10    4      0.74      0.00 
    2  -10    4      1.07      0.00 
    1  -10    4      0.79      0.00 
    0  -10    4     -0.18      0.00 
   -1  -10    4     -1.15      0.00 
   -2  -10    4     -1.23      0.00 
   -3  -10    4     -0.24      0.00 
   -4  -10    4      1.00      0.00 
   -5  -10    4      1.48      0.00 
   -6  -10    4      0.97      0.00 
   -7  -10    4      0.05      0.00 
   -8  -10    4     -0.70      0.00 
   -9  -10    4     -1.04      0.00 
  -10  -10    4     -0.94      0.00 
  -11  -10    4     -0.37      0.00 
  -12  -10    4      0.45      0.00 
  -13  -10    4      1.02      0.00 
  -14  -10    4      0.96      0.00 
  -15  -10    4      0.42      0.00 
  -16  -10    4     -0.08      0.00 
   10  -11    4      0.31      0.00 
    9  -11    4     -0.05      0.00 
    8  -11    4     -0.45      0.00 
    7  -11    4     -0.52      0.00 
    6  -11    4     -0.04      0.00 
    5  -11    4      0.77      0.00 
    4  -11    4      1.36      0.00 
    3  -11    4      1.28      0.00 
    2  -11    4      0.62      0.00 
    1  -11    4     -0.01      0.00 
    0  -11    4     -0.07      0.00 
   -1  -11    4      0.45      0.00 
   -2  -11    4      1.06      0.00 
   -3  -11    4      1.30      0.00 
   -4  -11    4      1.09      0.00 
   -5  -11    4      0.68      0.00 
   -6  -11    4      0.28      0.00 
   -7  -11    4      0.09      0.00 
   -8  -11    4      0.20      0.00 
   -9  -11    4      0.57      0.00 
  -10  -11    4      0.88      0.00 
  -11  -11    4      0.74      0.00 
  -12  -11    4      0.09      0.00 
  -13  -11    4     -0.68      0.00 
  -14  -11    4     -1.12      0.00 
  -15  -11    4     -1.06      0.00 
  -16  -11    4     -0.67      0.00 
    6  -12    4      0.38      0.00 
    5  -12    4     -0.08      0.00 
    4  -12    4     -0.59      0.00 
    3  -12    4     -0.88      0.00 
    2  -12    4     -0.80      0.00 
    1  -12    4     -0.35      0.00 
    0  -12    4      0.26      0.00 
   -1  -12    4      0.67      0.00 
   -2  -12    4      0.51      0.00 
   -3  -12    4     -0.21      0.00 
   -4  -12    4     -0.99      0.00 
   -5  -12    4     -1.22      0.00 
   -6  -12    4     -0.71      0.00 
   -7  -12    4      0.17      0.00 
   -8  -12    4      0.82      0.00 
   -9  -12    4      0.97      0.00 
  -10  -12    4      0.72      0.00 
  -11  -12    4      0.31      0.00 
  -12  -12    4     -0.09      0.00 
  -13  -12    4     -0.31      0.00 
  -14  -12    4     -0.28      0.00 
  -15  -12    4     -0.09      0.00 
    5  -13    4     -0.17      0.00 
    4  -13    4     -0.24      0.00 
    3  -13    4     -0.13      0.00 
    2  -13    4      0.01      0.00 
    1  -13    4     -0.08      0.00 
    0  -13    4     -0.47      0.00 
   -1  -13    4     -0.88      0.00 
   -2  -13    4     -0.97      0.00 
   -3  -13    4     -0.66      0.00 
   -4  -13    4     -0.12      0.00 
   -5  -13    4      0.28      0.00 
   -6  -13    4      0.24      0.00 
   -7  -13    4     -0.29      0.00 
   -8  -13    4     -0.99      0.00 
   -9  -13    4     -1.39      0.00 
  -10  -13    4     -1.20      0.00 
  -11  -13    4     -0.54      0.00 
  -12  -13    4      0.18      0.00 
  -13  -13    4      0.54      0.00 
  -14  -13    4      0.51      0.00 
  -15  -13    4      0.33      0.00 
    5  -14    4      0.36      0.00 
    4  -14    4      0.36      0.00 
    3  -14    4      0.11      0.00 
    2  -14    4     -0.21      0.00 
    1  -14    4     -0.34      0.00 
    0  -14    4     -0.22      0.00 
   -1  -14    4      0.06      0.00 
   -2  -14    4      0.42      0.00 
   -3  -14    4      0.74      0.00 
   -4  -14    4      0.87      0.00 
   -5  -14    4      0.77      0.00 
   -6  -14    4      0.53      0.00 
   -7  -14    4      0.36      0.00 
   -8  -14    4      0.33      0.00 
   -9  -14    4      0.30      0.00 
  -10  -14    4      0.14      0.00 
  -11  -14    4     -0.17      0.00 
  -12  -14    4     -0.48      0.00 
  -13  -14    4     -0.58      0.00 
  -14  -14    4     -0.40      0.00 
    4  -15    4     -0.55      0.00 
    3  -15    4     -0.44      0.00 
    2  -15    4     -0.12      0.00 
    1  -15    4      0.32      0.00 
    0  -15    4      0.68      0.00 
   -1  -15    4      0.70      0.00 
   -2  -15    4      0.31      0.00 
   -3  -15    4     -0.30      0.00 
   -4  -15    4     -0.81      0.00 
   -5  -15    4     -1.06      0.00 
   -6  -15    4     -1.00      0.00 
   -7  -15    4     -0.62      0.00 
   -8  -15    4      0.01      0.00 
   -9  -15    4      0.62      0.00 
  -10  -15    4      0.85      0.00 
  -11  -15    4      0.60      0.00 
  -12  -15    4      0.13      0.00 
  -13  -15    4     -0.14      0.00 
    4  -16    4     -0.06      0.00 
    3  -16    4      0.03      0.00 
    2  -16    4     -0.04      0.00 
    1  -16    4     -0.23      0.00 
    0  -16    4     -0.40      0.00 
   -1  -16    4     -0.55      0.00 
   -2  -16    4     -0.77      0.00 
   -3  -16    4     -1.06      0.00 
   -4  -16    4     -1.13      0.00 
   -5  -16    4     -0.79      0.00 
   -6  -16    4     -0.21      0.00 
   -7  -16    4      0.15      0.00 
   -8  -16    4      0.03      0.00 
   -9  -16    4     -0.39      0.00 
  -10  -16    4     -0.68      0.00 
  -11  -16    4     -0.59      0.00 
  -12  -16    4     -0.21      0.00 
    3  -17    4      0.40      0.00 
    2  -17    4      0.50      0.00 
    1  -17    4      0.38      0.00 
    0  -17    4     -0.02      0.00 
   -1  -17    4     -0.35      0.00 
   -2  -17    4     -0.16      0.00 
   -3  -17    4      0.48      0.00 
   -4  -17    4      1.05      0.00 
   -5  -17    4      1.15      0.00 
   -6  -17    4      0.84      0.00 
   -7  -17    4      0.44      0.00 
   -8  -17    4      0.13      0.00 
   -9  -17    4     -0.11      0.00 
  -10  -17    4     -0.27      0.00 
  -11  -17    4     -0.32      0.00 
    1  -18    4      0.30      0.00 
    0  -18    4      0.52      0.00 
   -1  -18    4      0.61      0.00 
   -2  -18    4      0.57      0.00 
   -3  -18    4      0.48      0.00 
   -4  -18    4      0.41      0.00 
   -5  -18    4      0.28      0.00 
   -6  -18    4      0.06      0.00 
   -7  -18    4     -0.11      0.00 
   -8  -18    4     -0.05      0.00 
   -9  -18    4      0.22      0.00 
   -2  -19    4      0.07      0.00 
   -3  -19    4     -0.01      0.00 
   -4  -19    4     -0.28      0.00 
   -5  -19    4     -0.41      0.00 
   -6  -19    4     -0.25      0.00 
    7   20    3      0.00      0.00 
    6   20    3     -0.06      0.00 
    5   20    3     -0.04      0.00 
    4   20    3     -0.01      0.00 
    3   20    3      0.00      0.00 
    2   20    3      0.03      0.00 
   10   19    3     -0.03      0.00 
    9   19    3     -0.08      0.00 
    8   19    3      0.02      0.00 
    7   19    3      0.19      0.00 
    6   19    3      0.34      0.00 
    5   19    3      0.46      0.00 
    4   19    3      0.52      0.00 
    3   19    3      0.37      0.00 
    2   19    3      0.02      0.00 
    1   19    3     -0.25      0.00 
    0   19    3     -0.17      0.00 
   -1   19    3      0.16      0.00 
   -2   19    3      0.36      0.00 
   12   18    3     -0.14      0.00 
   11   18    3     -0.10      0.00 
   10   18    3     -0.07      0.00 
    9   18    3     -0.10      0.00 
    8   18    3     -0.13      0.00 
    7   18    3     -0.09      0.00 
    6   18    3     -0.08      0.00 
    5   18    3     -0.12      0.00 
    4   18    3     -0.11      0.00 
    3   18    3      0.03      0.00 
    2   18    3      0.23      0.00 
    1   18    3      0.29      0.00 
    0   18    3      0.13      0.00 
   -1   18    3     -0.12      0.00 
   -2   18    3     -0.31      0.00 
   -3   18    3     -0.40      0.00 
   -4   18    3     -0.39      0.00 
   13   17    3     -0.10      0.00 
   12   17    3     -0.01      0.00 
   11   17    3      0.11      0.00 
   10   17    3      0.30      0.00 
    9   17    3      0.44      0.00 
    8   17    3      0.40      0.00 
    7   17    3      0.27      0.00 
    6   17    3      0.17      0.00 
    5   17    3      0.11      0.00 
    4   17    3     -0.02      0.00 
    3   17    3     -0.19      0.00 
    2   17    3     -0.28      0.00 
    1   17    3     -0.31      0.00 
    0   17    3     -0.39      0.00 
   -1   17    3     -0.48      0.00 
   -2   17    3     -0.41      0.00 
   -3   17    3     -0.10      0.00 
   -4   17    3      0.25      0.00 
   -5   17    3      0.37      0.00 
   14   16    3      0.10      0.00 
   13   16    3      0.06      0.00 
   12   16    3     -0.18      0.00 
   11   16    3     -0.45      0.00 
   10   16    3     -0.53      0.00 
    9   16    3     -0.35      0.00 
    8   16    3     -0.14      0.00 
    7   16    3     -0.07      0.00 
    6   16    3     -0.06      0.00 
    5   16    3     -0.03      0.00 
    4   16    3     -0.09      0.00 
    3   16    3     -0.37      0.00 
    2   16    3     -0.67      0.00 
    1   16    3     -0.62      0.00 
    0   16    3     -0.19      0.00 
   -1   16    3      0.17      0.00 
   -2   16    3      0.14      0.00 
   -3   16    3     -0.13      0.00 
   -4   16    3     -0.30      0.00 
   -5   16    3     -0.25      0.00 
   -6   16    3     -0.11      0.00 
   -7   16    3      0.01      0.00 
   15   15    3      0.39      0.00 
   14   15    3      0.22      0.00 
   13   15    3      0.02      0.00 
   12   15    3      0.00      0.00 
   11   15    3      0.14      0.00 
   10   15    3      0.24      0.00 
    9   15    3      0.16      0.00 
    8   15    3      0.02      0.00 
    7   15    3     -0.07      0.00 
    6   15    3     -0.20      0.00 
    5   15    3     -0.40      0.00 
    4   15    3     -0.49      0.00 
    3   15    3     -0.23      0.00 
    2   15    3      0.26      0.00 
    1   15    3      0.61      0.00 
    0   15    3      0.65      0.00 
   -1   15    3      0.53      0.00 
   -2   15    3      0.50      0.00 
   -3   15    3      0.58      0.00 
   -4   15    3      0.68      0.00 
   -5   15    3      0.73      0.00 
   -6   15    3      0.68      0.00 
   -7   15    3      0.51      0.00 
   15   14    3      0.15      0.00 
   14   14    3      0.34      0.00 
   13   14    3      0.55      0.00 
   12   14    3      0.66      0.00 
   11   14    3      0.63      0.00 
   10   14    3      0.48      0.00 
    9   14    3      0.28      0.00 
    8   14    3      0.08      0.00 
    7   14    3     -0.04      0.00 
    6   14    3     -0.02      0.00 
    5   14    3      0.17      0.00 
    4   14    3      0.44      0.00 
    3   14    3      0.64      0.00 
    2   14    3      0.63      0.00 
    1   14    3      0.36      0.00 
    0   14    3     -0.04      0.00 
   -1   14    3     -0.31      0.00 
   -2   14    3     -0.26      0.00 
   -3   14    3     -0.02      0.00 
   -4   14    3      0.08      0.00 
   -5   14    3     -0.08      0.00 
   -6   14    3     -0.30      0.00 
   -7   14    3     -0.36      0.00 
   -8   14    3     -0.26      0.00 
   14   13    3     -0.44      0.00 
   13   13    3     -0.76      0.00 
   12   13    3     -0.93      0.00 
   11   13    3     -0.87      0.00 
   10   13    3     -0.68      0.00 
    9   13    3     -0.47      0.00 
    8   13    3     -0.21      0.00 
    7   13    3      0.13      0.00 
    6   13    3      0.37      0.00 
    5   13    3      0.28      0.00 
    4   13    3     -0.16      0.00 
    3   13    3     -0.68      0.00 
    2   13    3     -0.89      0.00 
    1   13    3     -0.68      0.00 
    0   13    3     -0.25      0.00 
   -1   13    3      0.05      0.00 
   -2   13    3      0.05      0.00 
   -3   13    3     -0.17      0.00 
   -4   13    3     -0.45      0.00 
   -5   13    3     -0.65      0.00 
   -6   13    3     -0.72      0.00 
   -7   13    3     -0.66      0.00 
   -8   13    3     -0.50      0.00 
   -9   13    3     -0.33      0.00 
   14   12    3     -0.23      0.00 
   13   12    3     -0.52      0.00 
   12   12    3     -0.63      0.00 
   11   12    3     -0.51      0.00 
   10   12    3     -0.38      0.00 
    9   12    3     -0.49      0.00 
    8   12    3     -0.85      0.00 
    7   12    3     -1.18      0.00 
    6   12    3     -1.19      0.00 
    5   12    3     -0.76      0.00 
    4   12    3     -0.08      0.00 
    3   12    3      0.50      0.00 
    2   12    3      0.66      0.00 
    1   12    3      0.36      0.00 
    0   12    3     -0.14      0.00 
   -1   12    3     -0.56      0.00 
   -2   12    3     -0.76      0.00 
   -3   12    3     -0.75      0.00 
   -4   12    3     -0.52      0.00 
   -5   12    3     -0.11      0.00 
   -6   12    3      0.31      0.00 
   -7   12    3      0.51      0.00 
   -8   12    3      0.43      0.00 
   -9   12    3      0.23      0.00 
  -10   12    3      0.10      0.00 
   13   11    3      0.72      0.00 
   12   11    3      1.55      0.00 
   11   11    3      1.87      0.00 
   10   11    3      1.83      0.00 
    9   11    3      1.71      0.00 
    8   11    3      1.49      0.00 
    7   11    3      1.04      0.00 
    6   11    3      0.54      0.00 
    5   11    3      0.36      0.00 
    4   11    3      0.49      0.00 
    3   11    3      0.58      0.00 
    2   11    3      0.39      0.00 
    1   11    3      0.07      0.00 
    0   11    3     -0.08      0.00 
   -1   11    3      0.02      0.00 
   -2   11    3      0.25      0.00 
   -3   11    3      0.44      0.00 
   -4   11    3      0.50      0.00 
   -5   11    3      0.38      0.00 
   -6   11    3      0.14      0.00 
   -7   11    3     -0.04      0.00 
   -8   11    3     -0.01      0.00 
   -9   11    3      0.17      0.00 
  -10   11    3      0.27      0.00 
  -11   11    3      0.17      0.00 
   13   10    3      0.35      0.00 
   12   10    3      0.14      0.00 
   11   10    3     -0.02      0.00 
   10   10    3     -0.08      0.00 
    9   10    3      0.19      0.00 
    8   10    3      1.09      0.00 
    7   10    3      2.45      0.00 
    6   10    3      3.44      0.00 
    5   10    3      3.29      0.00 
    4   10    3      2.03      0.00 
    3   10    3      0.50      0.00 
    2   10    3     -0.35      0.00 
    1   10    3     -0.19      0.00 
    0   10    3      0.62      0.00 
   -1   10    3      1.40      0.00 
   -2   10    3      1.65      0.00 
   -3   10    3      1.29      0.00 
   -4   10    3      0.60      0.00 
   -5   10    3      0.00      0.00 
   -6   10    3     -0.22      0.00 
   -7   10    3     -0.09      0.00 
   -8   10    3      0.17      0.00 
   -9   10    3      0.28      0.00 
  -10   10    3      0.18      0.00 
  -11   10    3      0.02      0.00 
  -12   10    3     -0.04      0.00 
   17    9    3      0.61      0.00 
   16    9    3      0.89      0.00 
   15    9    3      0.86      0.00 
   14    9    3      0.33      0.00 
   13    9    3     -0.49      0.00 
   12    9    3     -1.16      0.00 
   11    9    3     -1.38      0.00 
   10    9    3     -1.37      0.00 
    9    9    3     -1.60      0.00 
    8    9    3     -2.30      0.00 
    7    9    3     -3.32      0.00 
    6    9    3     -4.34      0.00 
    5    9    3     -5.03      0.00 
    4    9    3     -5.05      0.00 
    3    9    3     -4.07      0.00 
    2    9    3     -2.28      0.00 
    1    9    3     -0.57      0.00 
    0    9    3      0.15      0.00 
   -1    9    3     -0.19      0.00 
   -2    9    3     -0.76      0.00 
   -3    9    3     -0.78      0.00 
   -4    9    3     -0.19      0.00 
   -5    9    3      0.55      0.00 
   -6    9    3      0.97      0.00 
   -7    9    3      0.89      0.00 
   -8    9    3      0.39      0.00 
   -9    9    3     -0.22      0.00 
  -10    9    3     -0.54      0.00 
  -11    9    3     -0.42      0.00 
  -12    9    3     -0.06      0.00 
   17    8    3      0.46      0.00 
   16    8    3     -0.04      0.00 
   15    8    3     -0.47      0.00 
   14    8    3     -0.27      0.00 
   13    8    3      0.51      0.00 
   12    8    3      1.32      0.00 
   11    8    3      1.61      0.00 
   10    8    3      1.28      0.00 
    9    8    3      0.45      0.00 
    8    8    3     -0.75      0.00 
    7    8    3     -2.08      0.00 
    6    8    3     -3.02      0.00 
    5    8    3     -3.05      0.00 
    4    8    3     -2.30      0.00 
    3    8    3     -1.65      0.00 
    2    8    3     -1.94      0.00 
    1    8    3     -3.04      0.00 
    0    8    3     -3.95      0.00 
   -1    8    3     -3.77      0.00 
   -2    8    3     -2.48      0.00 
   -3    8    3     -0.88      0.00 
   -4    8    3      0.19      0.00 
   -5    8    3      0.41      0.00 
   -6    8    3      0.03      0.00 
   -7    8    3     -0.45      0.00 
   -8    8    3     -0.65      0.00 
   -9    8    3     -0.55      0.00 
  -10    8    3     -0.34      0.00 
  -11    8    3     -0.21      0.00 
  -12    8    3     -0.20      0.00 
  -13    8    3     -0.21      0.00 
   17    7    3     -0.30      0.00 
   16    7    3     -0.52      0.00 
   15    7    3     -0.54      0.00 
   14    7    3     -0.40      0.00 
   13    7    3     -0.43      0.00 
   12    7    3     -0.87      0.00 
   11    7    3     -1.57      0.00 
   10    7    3     -1.95      0.00 
    9    7    3     -1.34      0.00 
    8    7    3      0.64      0.00 
    7    7    3      3.86      0.00 
    6    7    3      7.48      0.00 
    5    7    3     10.17      0.00 
    4    7    3     10.92      0.00 
    3    7    3      9.72      0.00 
    2    7    3      7.70      0.00 
    1    7    3      6.18      0.00 
    0    7    3      5.50      0.00 
   -1    7    3      4.89      0.00 
   -2    7    3      3.39      0.00 
   -3    7    3      0.94      0.00 
   -4    7    3     -1.47      0.00 
   -5    7    3     -2.79      0.00 
   -6    7    3     -2.77      0.00 
   -7    7    3     -1.91      0.00 
   -8    7    3     -0.86      0.00 
   -9    7    3      0.01      0.00 
  -10    7    3      0.57      0.00 
  -11    7    3      0.77      0.00 
  -12    7    3      0.68      0.00 
  -13    7    3      0.48      0.00 
  -14    7    3      0.30      0.00 
   17    6    3     -0.20      0.00 
   16    6    3      0.52      0.00 
   15    6    3      0.90      0.00 
   14    6    3      0.54      0.00 
   13    6    3     -0.23      0.00 
   12    6    3     -0.75      0.00 
   11    6    3     -0.72      0.00 
   10    6    3     -0.36      0.00 
    9    6    3     -0.08      0.00 
    8    6    3     -0.35      0.00 
    7    6    3     -1.58      0.00 
    6    6    3     -3.61      0.00 
    5    6    3     -5.28      0.00 
    4    6    3     -4.87      0.00 
    3    6    3     -1.50      0.00 
    2    6    3      3.73      0.00 
    1    6    3      8.27      0.00 
    0    6    3     10.02      0.00 
   -1    6    3      8.79      0.00 
   -2    6    3      6.02      0.00 
   -3    6    3      3.47      0.00 
   -4    6    3      2.10      0.00 
   -5    6    3      1.86      0.00 
   -6    6    3      2.09      0.00 
   -7    6    3      2.06      0.00 
   -8    6    3      1.46      0.00 
   -9    6    3      0.52      0.00 
  -10    6    3     -0.26      0.00 
  -11    6    3     -0.59      0.00 
  -12    6    3     -0.55      0.00 
  -13    6    3     -0.37      0.00 
  -14    6    3     -0.17      0.00 
   17    5    3     -0.38      0.00 
   16    5    3     -0.77      0.00 
   15    5    3     -0.91      0.00 
   14    5    3     -0.61      0.00 
   13    5    3      0.13      0.00 
   12    5    3      1.21      0.00 
   11    5    3      2.35      0.00 
   10    5    3      3.18      0.00 
    9    5    3      3.37      0.00 
    8    5    3      2.87      0.00 
    7    5    3      1.96      0.00 
    6    5    3      1.02      0.00 
    5    5    3     -0.01      0.00 
    4    5    3     -1.97      0.00 
    3    5    3     -5.96      0.00 
    2    5    3    -12.13      0.00 
    1    5    3    -18.67      0.00 
    0    5    3    -22.62      0.00 
   -1    5    3    -21.85      0.00 
   -2    5    3    -16.61      0.00 
   -3    5    3     -9.35      0.00 
   -4    5    3     -3.09      0.00 
   -5    5    3      0.34      0.00 
   -6    5    3      0.96      0.00 
   -7    5    3      0.13      0.00 
   -8    5    3     -0.66      0.00 
   -9    5    3     -0.77      0.00 
  -10    5    3     -0.34      0.00 
  -11    5    3      0.16      0.00 
  -12    5    3      0.45      0.00 
  -13    5    3      0.42      0.00 
  -14    5    3      0.12      0.00 
  -15    5    3     -0.20      0.00 
   17    4    3      0.36      0.00 
   16    4    3      0.04      0.00 
   15    4    3     -0.09      0.00 
   14    4    3      0.23      0.00 
   13    4    3      0.55      0.00 
   12    4    3      0.29      0.00 
   11    4    3     -0.57      0.00 
   10    4    3     -1.43      0.00 
    9    4    3     -1.60      0.00 
    8    4    3     -0.58      0.00 
    7    4    3      1.81      0.00 
    6    4    3      4.89      0.00 
    5    4    3      6.85      0.00 
    4    4    3      5.90      0.00 
    3    4    3      2.19      0.00 
    2    4    3     -1.94      0.00 
    1    4    3     -3.93      0.00 
    0    4    3     -3.32      0.00 
   -1    4    3     -1.78      0.00 
   -2    4    3     -1.18      0.00 
   -3    4    3     -1.97      0.00 
   -4    4    3     -3.17      0.00 
   -5    4    3     -3.61      0.00 
   -6    4    3     -2.88      0.00 
   -7    4    3     -1.33      0.00 
   -8    4    3      0.39      0.00 
   -9    4    3      1.67      0.00 
  -10    4    3      2.04      0.00 
  -11    4    3      1.47      0.00 
  -12    4    3      0.48      0.00 
  -13    4    3     -0.16      0.00 
  -14    4    3     -0.14      0.00 
  -15    4    3      0.18      0.00 
   17    3    3      0.22      0.00 
   16    3    3      0.58      0.00 
   15    3    3      0.62      0.00 
   14    3    3      0.08      0.00 
   13    3    3     -0.78      0.00 
   12    3    3     -1.40      0.00 
   11    3    3     -1.47      0.00 
   10    3    3     -1.12      0.00 
    9    3    3     -0.88      0.00 
    8    3    3     -1.70      0.00 
    7    3    3     -4.45      0.00 
    6    3    3     -8.91      0.00 
    5    3    3    -12.83      0.00 
    4    3    3    -12.58      0.00 
    3    3    3     -5.43      0.00 
    2    3    3      7.91      0.00 
    1    3    3     22.71      0.00 
    0    3    3     32.60      0.00 
   -1    3    3     33.71      0.00 
   -2    3    3     27.09      0.00 
   -3    3    3     17.50      0.00 
   -4    3    3      9.52      0.00 
   -5    3    3      4.81      0.00 
   -6    3    3      2.46      0.00 
   -7    3    3      1.02      0.00 
   -8    3    3     -0.17      0.00 
   -9    3    3     -1.11      0.00 
  -10    3    3     -1.63      0.00 
  -11    3    3     -1.64      0.00 
  -12    3    3     -1.21      0.00 
  -13    3    3     -0.63      0.00 
  -14    3    3     -0.25      0.00 
  -15    3    3     -0.11      0.00 
  -16    3    3     -0.02      0.00 
   16    2    3     -0.28      0.00 
   15    2    3     -0.29      0.00 
   14    2    3     -0.15      0.00 
   13    2    3      0.32      0.00 
   12    2    3      1.16      0.00 
   11    2    3      1.97      0.00 
   10    2    3      2.08      0.00 
    9    2    3      1.25      0.00 
    8    2    3     -0.04      0.00 
    7    2    3     -0.95      0.00 
    6    2    3     -0.88      0.00 
    5    2    3      0.09      0.00 
    4    2    3      0.84      0.00 
    3    2    3     -0.65      0.00 
    2    2    3     -5.91      0.00 
    1    2    3    -13.84      0.00 
    0    2    3    -20.09      0.00 
   -1    2    3    -20.01      0.00 
   -2    2    3    -12.76      0.00 
   -3    2    3     -2.38      0.00 
   -4    2    3      5.53      0.00 
   -5    2    3      8.12      0.00 
   -6    2    3      6.44      0.00 
   -7    2    3      3.27      0.00 
   -8    2    3      0.66      0.00 
   -9    2    3     -0.77      0.00 
  -10    2    3     -1.12      0.00 
  -11    2    3     -0.73      0.00 
  -12    2    3     -0.10      0.00 
  -13    2    3      0.25      0.00 
  -14    2    3      0.12      0.00 
  -15    2    3     -0.23      0.00 
  -16    2    3     -0.41      0.00 
   16    1    3     -0.23      0.00 
   15    1    3      0.16      0.00 
   14    1    3      0.75      0.00 
   13    1    3      1.01      0.00 
   12    1    3      0.46      0.00 
   11    1    3     -0.84      0.00 
   10    1    3     -2.26      0.00 
    9    1    3     -2.82      0.00 
    8    1    3     -1.57      0.00 
    7    1    3      1.94      0.00 
    6    1    3      7.09      0.00 
    5    1    3     12.03      0.00 
    4    1    3     14.54      0.00 
    3    1    3     13.20      0.00 
    2    1    3      8.16      0.00 
    1    1    3      0.82      0.00 
    0    1    3     -6.79      0.00 
   -1    1    3    -12.96      0.00 
   -2    1    3    -16.88      0.00 
   -3    1    3    -18.65      0.00 
   -4    1    3    -18.52      0.00 
   -5    1    3    -16.42      0.00 
   -6    1    3    -12.27      0.00 
   -7    1    3     -6.86      0.00 
   -8    1    3     -1.77      0.00 
   -9    1    3      1.59      0.00 
  -10    1    3      2.86      0.00 
  -11    1    3      2.61      0.00 
  -12    1    3      1.68      0.00 
  -13    1    3      0.77      0.00 
  -14    1    3      0.24      0.00 
  -15    1    3      0.10      0.00 
  -16    1    3      0.06      0.00 
   16    0    3      0.30      0.00 
   15    0    3      0.10      0.00 
   14    0    3     -0.57      0.00 
   13    0    3     -1.45      0.00 
   12    0    3     -1.98      0.00 
   11    0    3     -1.61      0.00 
   10    0    3     -0.23      0.00 
    9    0    3      1.51      0.00 
    8    0    3      2.30      0.00 
    7    0    3      0.89      0.00 
    6    0    3     -2.89      0.00 
    5    0    3     -7.38      0.00 
    4    0    3     -9.28      0.00 
    3    0    3     -5.03      0.00 
    2    0    3      6.62      0.00 
    1    0    3     22.38      0.00 
    0    0    3     35.06      0.00 
   -1    0    3     38.12      0.00 
   -2    0    3     30.60      0.00 
   -3    0    3     17.80      0.00 
   -4    0    3      6.64      0.00 
   -5    0    3      0.55      0.00 
   -6    0    3     -1.42      0.00 
   -7    0    3     -1.79      0.00 
   -8    0    3     -2.07      0.00 
   -9    0    3     -2.45      0.00 
  -10    0    3     -2.66      0.00 
  -11    0    3     -2.51      0.00 
  -12    0    3     -1.89      0.00 
  -13    0    3     -0.94      0.00 
  -14    0    3     -0.01      0.00 
  -15    0    3      0.55      0.00 
  -16    0    3      0.69      0.00 
   16   -1    3     -0.33      0.00 
   15   -1    3     -0.64      0.00 
   14   -1    3     -0.71      0.00 
   13   -1    3     -0.20      0.00 
   12   -1    3      0.89      0.00 
   11   -1    3      2.05      0.00 
   10   -1    3      2.70      0.00 
    9   -1    3      2.69      0.00 
    8   -1    3      2.31      0.00 
    7   -1    3      2.04      0.00 
    6   -1    3      2.37      0.00 
    5   -1    3      3.20      0.00 
    4   -1    3      2.82      0.00 
    3   -1    3     -2.11      0.00 
    2   -1    3    -13.97      0.00 
    1   -1    3    -30.34      0.00 
    0   -1    3    -43.50      0.00 
   -1   -1    3    -45.46      0.00 
   -2   -1    3    -34.34      0.00 
   -3   -1    3    -15.86      0.00 
   -4   -1    3      1.30      0.00 
   -5   -1    3     11.38      0.00 
   -6   -1    3     13.72      0.00 
   -7   -1    3     11.02      0.00 
   -8   -1    3      6.75      0.00 
   -9   -1    3      3.37      0.00 
  -10   -1    3      1.72      0.00 
  -11   -1    3      1.25      0.00 
  -12   -1    3      1.02      0.00 
  -13   -1    3      0.58      0.00 
  -14   -1    3      0.08      0.00 
  -15   -1    3     -0.23      0.00 
  -16   -1    3     -0.28      0.00 
  -17   -1    3     -0.18      0.00 
   15   -2    3      0.42      0.00 
   14   -2    3      0.82      0.00 
   13   -2    3      1.06      0.00 
   12   -2    3      0.67      0.00 
   11   -2    3     -0.53      0.00 
   10   -2    3     -2.23      0.00 
    9   -2    3     -3.77      0.00 
    8   -2    3     -4.50      0.00 
    7   -2    3     -4.09      0.00 
    6   -2    3     -2.75      0.00 
    5   -2    3     -1.26      0.00 
    4   -2    3     -0.39      0.00 
    3   -2    3      0.05      0.00 
    2   -2    3      1.26      0.00 
    1   -2    3      4.18      0.00 
    0   -2    3      8.02      0.00 
   -1   -2    3     10.43      0.00 
   -2   -2    3      9.28      0.00 
   -3   -2    3      4.42      0.00 
   -4   -2    3     -2.04      0.00 
   -5   -2    3     -7.04      0.00 
   -6   -2    3     -8.50      0.00 
   -7   -2    3     -6.50      0.00 
   -8   -2    3     -2.92      0.00 
   -9   -2    3      0.06      0.00 
  -10   -2    3      1.40      0.00 
  -11   -2    3      1.33      0.00 
  -12   -2    3      0.56      0.00 
  -13   -2    3     -0.33      0.00 
  -14   -2    3     -0.99      0.00 
  -15   -2    3     -1.22      0.00 
  -16   -2    3     -1.00      0.00 
  -17   -2    3     -0.59      0.00 
   15   -3    3      0.18      0.00 
   14   -3    3      0.12      0.00 
   13   -3    3     -0.15      0.00 
   12   -3    3     -0.35      0.00 
   11   -3    3     -0.07      0.00 
   10   -3    3      0.82      0.00 
    9   -3    3      1.91      0.00 
    8   -3    3      2.52      0.00 
    7   -3    3      1.96      0.00 
    6   -3    3     -0.16      0.00 
    5   -3    3     -3.41      0.00 
    4   -3    3     -6.04      0.00 
    3   -3    3     -5.42      0.00 
    2   -3    3      0.00      0.00 
    1   -3    3      8.79      0.00 
    0   -3    3     16.77      0.00 
   -1   -3    3     19.89      0.00 
   -2   -3    3     17.24      0.00 
   -3   -3    3     11.35      0.00 
   -4   -3    3      5.66      0.00 
   -5   -3    3      2.01      0.00 
   -6   -3    3      0.20      0.00 
   -7   -3    3     -0.79      0.00 
   -8   -3    3     -1.68      0.00 
   -9   -3    3     -2.60      0.00 
  -10   -3    3     -3.25      0.00 
  -11   -3    3     -3.22      0.00 
  -12   -3    3     -2.34      0.00 
  -13   -3    3     -0.98      0.00 
  -14   -3    3      0.18      0.00 
  -15   -3    3      0.75      0.00 
  -16   -3    3      0.81      0.00 
  -17   -3    3      0.61      0.00 
   14   -4    3     -0.26      0.00 
   13   -4    3     -0.18      0.00 
   12   -4    3      0.08      0.00 
   11   -4    3      0.39      0.00 
   10   -4    3      0.55      0.00 
    9   -4    3      0.40      0.00 
    8   -4    3      0.03      0.00 
    7   -4    3     -0.16      0.00 
    6   -4    3      0.50      0.00 
    5   -4    3      2.51      0.00 
    4   -4    3      5.28      0.00 
    3   -4    3      6.86      0.00 
    2   -4    3      5.02      0.00 
    1   -4    3     -0.70      0.00 
    0   -4    3     -7.84      0.00 
   -1   -4    3    -12.37      0.00 
   -2   -4    3    -11.61      0.00 
   -3   -4    3     -6.13      0.00 
   -4   -4    3      0.82      0.00 
   -5   -4    3      5.79      0.00 
   -6   -4    3      7.13      0.00 
   -7   -4    3      5.52      0.00 
   -8   -4    3      2.92      0.00 
   -9   -4    3      1.03      0.00 
  -10   -4    3      0.41      0.00 
  -11   -4    3      0.62      0.00 
  -12   -4    3      1.03      0.00 
  -13   -4    3      1.32      0.00 
  -14   -4    3      1.41      0.00 
  -15   -4    3      1.23      0.00 
  -16   -4    3      0.82      0.00 
  -17   -4    3      0.34      0.00 
   14   -5    3      0.61      0.00 
   13   -5    3      0.75      0.00 
   12   -5    3      0.50      0.00 
   11   -5    3     -0.18      0.00 
   10   -5    3     -1.01      0.00 
    9   -5    3     -1.61      0.00 
    8   -5    3     -1.65      0.00 
    7   -5    3     -1.04      0.00 
    6   -5    3      0.09      0.00 
    5   -5    3      1.22      0.00 
    4   -5    3      1.56      0.00 
    3   -5    3      0.64      0.00 
    2   -5    3     -0.94      0.00 
    1   -5    3     -1.80      0.00 
    0   -5    3     -1.00      0.00 
   -1   -5    3      0.80      0.00 
   -2   -5    3      1.67      0.00 
   -3   -5    3      0.12      0.00 
   -4   -5    3     -3.45      0.00 
   -5   -5    3     -6.98      0.00 
   -6   -5    3     -8.38      0.00 
   -7   -5    3     -7.05      0.00 
   -8   -5    3     -4.01      0.00 
   -9   -5    3     -0.81      0.00 
  -10   -5    3      1.38      0.00 
  -11   -5    3      2.11      0.00 
  -12   -5    3      1.56      0.00 
  -13   -5    3      0.42      0.00 
  -14   -5    3     -0.46      0.00 
  -15   -5    3     -0.64      0.00 
  -16   -5    3     -0.40      0.00 
  -17   -5    3     -0.21      0.00 
   14   -6    3     -0.47      0.00 
   13   -6    3     -1.05      0.00 
   12   -6    3     -1.41      0.00 
   11   -6    3     -1.22      0.00 
   10   -6    3     -0.50      0.00 
    9   -6    3      0.47      0.00 
    8   -6    3      1.31      0.00 
    7   -6    3      1.55      0.00 
    6   -6    3      0.73      0.00 
    5   -6    3     -1.03      0.00 
    4   -6    3     -2.69      0.00 
    3   -6    3     -2.87      0.00 
    2   -6    3     -1.16      0.00 
    1   -6    3      1.40      0.00 
    0   -6    3      3.04      0.00 
   -1   -6    3      2.68      0.00 
   -2   -6    3      0.59      0.00 
   -3   -6    3     -1.87      0.00 
   -4   -6    3     -3.27      0.00 
   -5   -6    3     -2.98      0.00 
   -6   -6    3     -1.55      0.00 
   -7   -6    3     -0.16      0.00 
   -8   -6    3      0.23      0.00 
   -9   -6    3     -0.49      0.00 
  -10   -6    3     -1.63      0.00 
  -11   -6    3     -2.33      0.00 
  -12   -6    3     -2.15      0.00 
  -13   -6    3     -1.36      0.00 
  -14   -6    3     -0.53      0.00 
  -15   -6    3     -0.07      0.00 
  -16   -6    3      0.05      0.00 
  -17   -6    3      0.07      0.00 
   13   -7    3     -0.40      0.00 
   12   -7    3      0.01      0.00 
   11   -7    3      0.63      0.00 
   10   -7    3      1.06      0.00 
    9   -7    3      0.95      0.00 
    8   -7    3      0.29      0.00 
    7   -7    3     -0.57      0.00 
    6   -7    3     -1.08      0.00 
    5   -7    3     -0.92      0.00 
    4   -7    3     -0.33      0.00 
    3   -7    3      0.08      0.00 
    2   -7    3     -0.35      0.00 
    1   -7    3     -1.80      0.00 
    0   -7    3     -3.68      0.00 
   -1   -7    3     -4.70      0.00 
   -2   -7    3     -3.72      0.00 
   -3   -7    3     -0.73      0.00 
   -4   -7    3      2.93      0.00 
   -5   -7    3      5.46      0.00 
   -6   -7    3      5.98      0.00 
   -7   -7    3      4.91      0.00 
   -8   -7    3      3.25      0.00 
   -9   -7    3      1.84      0.00 
  -10   -7    3      1.05      0.00 
  -11   -7    3      0.91      0.00 
  -12   -7    3      1.14      0.00 
  -13   -7    3      1.24      0.00 
  -14   -7    3      0.83      0.00 
  -15   -7    3     -0.01      0.00 
  -16   -7    3     -0.75      0.00 
  -17   -7    3     -0.97      0.00 
   13   -8    3      0.63      0.00 
   12   -8    3      0.89      0.00 
   11   -8    3      0.73      0.00 
   10   -8    3      0.21      0.00 
    9   -8    3     -0.30      0.00 
    8   -8    3     -0.46      0.00 
    7   -8    3     -0.11      0.00 
    6   -8    3      0.71      0.00 
    5   -8    3      1.69      0.00 
    4   -8    3      2.22      0.00 
    3   -8    3      1.75      0.00 
    2   -8    3      0.50      0.00 
    1   -8    3     -0.39      0.00 
    0   -8    3      0.16      0.00 
   -1   -8    3      1.98      0.00 
   -2   -8    3      3.66      0.00 
   -3   -8    3      3.84      0.00 
   -4   -8    3      2.40      0.00 
   -5   -8    3      0.34      0.00 
   -6   -8    3     -1.23      0.00 
   -7   -8    3     -1.71      0.00 
   -8   -8    3     -1.13      0.00 
   -9   -8    3      0.02      0.00 
  -10   -8    3      1.05      0.00 
  -11   -8    3      1.33      0.00 
  -12   -8    3      0.83      0.00 
  -13   -8    3      0.04      0.00 
  -14   -8    3     -0.42      0.00 
  -15   -8    3     -0.34      0.00 
  -16   -8    3      0.00      0.00 
  -17   -8    3      0.24      0.00 
   12   -9    3      0.36      0.00 
   11   -9    3      0.08      0.00 
   10   -9    3     -0.17      0.00 
    9   -9    3     -0.14      0.00 
    8   -9    3      0.10      0.00 
    7   -9    3      0.22      0.00 
    6   -9    3     -0.09      0.00 
    5   -9    3     -0.77      0.00 
    4   -9    3     -1.41      0.00 
    3   -9    3     -1.46      0.00 
    2   -9    3     -0.65      0.00 
    1   -9    3      0.68      0.00 
    0   -9    3      1.64      0.00 
   -1   -9    3      1.43      0.00 
   -2   -9    3      0.05      0.00 
   -3   -9    3     -1.62      0.00 
   -4   -9    3     -2.45      0.00 
   -5   -9    3     -2.03      0.00 
   -6   -9    3     -0.90      0.00 
   -7   -9    3      0.04      0.00 
   -8   -9    3      0.28      0.00 
   -9   -9    3     -0.06      0.00 
  -10   -9    3     -0.61      0.00 
  -11   -9    3     -1.08      0.00 
  -12   -9    3     -1.30      0.00 
  -13   -9    3     -1.15      0.00 
  -14   -9    3     -0.65      0.00 
  -15   -9    3     -0.07      0.00 
  -16   -9    3      0.27      0.00 
  -17   -9    3      0.33      0.00 
   11  -10    3     -0.40      0.00 
   10  -10    3     -0.01      0.00 
    9  -10    3      0.21      0.00 
    8  -10    3      0.00      0.00 
    7  -10    3     -0.54      0.00 
    6  -10    3     -1.05      0.00 
    5  -10    3     -1.21      0.00 
    4  -10    3     -0.86      0.00 
    3  -10    3     -0.11      0.00 
    2  -10    3      0.59      0.00 
    1  -10    3      0.66      0.00 
    0  -10    3     -0.07      0.00 
   -1  -10    3     -1.02      0.00 
   -2  -10    3     -1.39      0.00 
   -3  -10    3     -0.97      0.00 
   -4  -10    3     -0.29      0.00 
   -5  -10    3      0.05      0.00 
   -6  -10    3     -0.03      0.00 
   -7  -10    3     -0.32      0.00 
   -8  -10    3     -0.73      0.00 
   -9  -10    3     -1.22      0.00 
  -10  -10    3     -1.45      0.00 
  -11  -10    3     -1.03      0.00 
  -12  -10    3     -0.08      0.00 
  -13  -10    3      0.67      0.00 
  -14  -10    3      0.67      0.00 
  -15  -10    3      0.15      0.00 
  -16  -10    3     -0.27      0.00 
   10  -11    3     -0.20      0.00 
    9  -11    3     -0.40      0.00 
    8  -11    3     -0.40      0.00 
    7  -11    3      0.00      0.00 
    6  -11    3      0.74      0.00 
    5  -11    3      1.38      0.00 
    4  -11    3      1.43      0.00 
    3  -11    3      0.77      0.00 
    2  -11    3     -0.27      0.00 
    1  -11    3     -1.11      0.00 
    0  -11    3     -1.26      0.00 
   -1  -11    3     -0.67      0.00 
   -2  -11    3      0.32      0.00 
   -3  -11    3      1.14      0.00 
   -4  -11    3      1.32      0.00 
   -5  -11    3      0.78      0.00 
   -6  -11    3     -0.10      0.00 
   -7  -11    3     -0.72      0.00 
   -8  -11    3     -0.65      0.00 
   -9  -11    3     -0.04      0.00 
  -10  -11    3      0.58      0.00 
  -11  -11    3      0.80      0.00 
  -12  -11    3      0.63      0.00 
  -13  -11    3      0.36      0.00 
  -14  -11    3      0.20      0.00 
  -15  -11    3      0.20      0.00 
  -16  -11    3      0.31      0.00 
    7  -12    3      0.27      0.00 
    6  -12    3      0.44      0.00 
    5  -12    3      0.56      0.00 
    4  -12    3      0.57      0.00 
    3  -12    3      0.49      0.00 
    2  -12    3      0.50      0.00 
    1  -12    3      0.79      0.00 
    0  -12    3      1.21      0.00 
   -1  -12    3      1.32      0.00 
   -2  -12    3      0.80      0.00 
   -3  -12    3     -0.15      0.00 
   -4  -12    3     -0.87      0.00 
   -5  -12    3     -0.81      0.00 
   -6  -12    3     -0.04      0.00 
   -7  -12    3      0.86      0.00 
   -8  -12    3      1.34      0.00 
   -9  -12    3      1.33      0.00 
  -10  -12    3      1.03      0.00 
  -11  -12    3      0.58      0.00 
  -12  -12    3      0.08      0.00 
  -13  -12    3     -0.25      0.00 
  -14  -12    3     -0.23      0.00 
  -15  -12    3     -0.02      0.00 
  -16  -12    3      0.06      0.00 
    6  -13    3     -0.79      0.00 
    5  -13    3     -1.34      0.00 
    4  -13    3     -1.28      0.00 
    3  -13    3     -0.61      0.00 
    2  -13    3      0.09      0.00 
    1  -13    3      0.28      0.00 
    0  -13    3      0.00      0.00 
   -1  -13    3     -0.31      0.00 
   -2  -13    3     -0.27      0.00 
   -3  -13    3      0.07      0.00 
   -4  -13    3      0.42      0.00 
   -5  -13    3      0.56      0.00 
   -6  -13    3      0.45      0.00 
   -7  -13    3      0.13      0.00 
   -8  -13    3     -0.24      0.00 
   -9  -13    3     -0.45      0.00 
  -10  -13    3     -0.35      0.00 
  -11  -13    3      0.03      0.00 
  -12  -13    3      0.37      0.00 
  -13  -13    3      0.33      0.00 
  -14  -13    3     -0.08      0.00 
  -15  -13    3     -0.49      0.00 
    6  -14    3      0.54      0.00 
    5  -14    3      0.84      0.00 
    4  -14    3      0.59      0.00 
    3  -14    3     -0.06      0.00 
    2  -14    3     -0.65      0.00 
    1  -14    3     -0.89      0.00 
    0  -14    3     -0.79      0.00 
   -1  -14    3     -0.52      0.00 
   -2  -14    3     -0.16      0.00 
   -3  -14    3      0.16      0.00 
   -4  -14    3      0.32      0.00 
   -5  -14    3      0.28      0.00 
   -6  -14    3      0.08      0.00 
   -7  -14    3     -0.20      0.00 
   -8  -14    3     -0.46      0.00 
   -9  -14    3     -0.61      0.00 
  -10  -14    3     -0.61      0.00 
  -11  -14    3     -0.48      0.00 
  -12  -14    3     -0.34      0.00 
  -13  -14    3     -0.24      0.00 
  -14  -14    3     -0.18      0.00 
    5  -15    3      0.23      0.00 
    4  -15    3      0.29      0.00 
    3  -15    3      0.24      0.00 
    2  -15    3      0.15      0.00 
    1  -15    3      0.21      0.00 
    0  -15    3      0.49      0.00 
   -1  -15    3      0.78      0.00 
   -2  -15    3      0.79      0.00 
   -3  -15    3      0.43      0.00 
   -4  -15    3     -0.17      0.00 
   -5  -15    3     -0.72      0.00 
   -6  -15    3     -0.94      0.00 
   -7  -15    3     -0.69      0.00 
   -8  -15    3     -0.10      0.00 
   -9  -15    3      0.45      0.00 
  -10  -15    3      0.58      0.00 
  -11  -15    3      0.23      0.00 
  -12  -15    3     -0.28      0.00 
  -13  -15    3     -0.47      0.00 
  -14  -15    3     -0.19      0.00 
    5  -16    3     -0.58      0.00 
    4  -16    3     -0.76      0.00 
    3  -16    3     -0.70      0.00 
    2  -16    3     -0.49      0.00 
    1  -16    3     -0.26      0.00 
    0  -16    3     -0.14      0.00 
   -1  -16    3     -0.26      0.00 
   -2  -16    3     -0.60      0.00 
   -3  -16    3     -0.85      0.00 
   -4  -16    3     -0.68      0.00 
   -5  -16    3     -0.12      0.00 
   -6  -16    3      0.45      0.00 
   -7  -16    3      0.67      0.00 
   -8  -16    3      0.56      0.00 
   -9  -16    3      0.37      0.00 
  -10  -16    3      0.29      0.00 
  -11  -16    3      0.29      0.00 
  -12  -16    3      0.27      0.00 
  -13  -16    3      0.19      0.00 
    4  -17    3     -0.06      0.00 
    3  -17    3      0.02      0.00 
    2  -17    3      0.10      0.00 
    1  -17    3      0.02      0.00 
    0  -17    3     -0.22      0.00 
   -1  -17    3     -0.44      0.00 
   -2  -17    3     -0.49      0.00 
   -3  -17    3     -0.44      0.00 
   -4  -17    3     -0.39      0.00 
   -5  -17    3     -0.31      0.00 
   -6  -17    3     -0.14      0.00 
   -7  -17    3     -0.01      0.00 
   -8  -17    3     -0.12      0.00 
   -9  -17    3     -0.49      0.00 
  -10  -17    3     -0.83      0.00 
  -11  -17    3     -0.87      0.00 
    2  -18    3      0.44      0.00 
    1  -18    3      0.41      0.00 
    0  -18    3      0.23      0.00 
   -1  -18    3      0.01      0.00 
   -2  -18    3     -0.02      0.00 
   -3  -18    3      0.17      0.00 
   -4  -18    3      0.34      0.00 
   -5  -18    3      0.18      0.00 
   -6  -18    3     -0.21      0.00 
   -7  -18    3     -0.46      0.00 
   -8  -18    3     -0.35      0.00 
   -9  -18    3     -0.03      0.00 
  -10  -18    3      0.20      0.00 
   -1  -19    3      0.05      0.00 
   -2  -19    3      0.12      0.00 
   -3  -19    3      0.25      0.00 
   -4  -19    3      0.40      0.00 
   -5  -19    3      0.53      0.00 
   -6  -19    3      0.55      0.00 
   -7  -19    3      0.44      0.00 
    7   20    2     -0.11      0.00 
    6   20    2     -0.32      0.00 
    5   20    2     -0.40      0.00 
    4   20    2     -0.33      0.00 
    3   20    2     -0.13      0.00 
   10   19    2     -0.09      0.00 
    9   19    2     -0.14      0.00 
    8   19    2      0.01      0.00 
    7   19    2      0.19      0.00 
    6   19    2      0.31      0.00 
    5   19    2      0.39      0.00 
    4   19    2      0.41      0.00 
    3   19    2      0.27      0.00 
    2   19    2      0.02      0.00 
    1   19    2     -0.10      0.00 
    0   19    2      0.07      0.00 
   -2   19    2      0.47      0.00 
   12   18    2     -0.13      0.00 
   11   18    2     -0.04      0.00 
   10   18    2     -0.10      0.00 
    9   18    2     -0.27      0.00 
    8   18    2     -0.31      0.00 
    7   18    2     -0.14      0.00 
    6   18    2      0.10      0.00 
    5   18    2      0.24      0.00 
    4   18    2      0.31      0.00 
    3   18    2      0.38      0.00 
    2   18    2      0.43      0.00 
    1   18    2      0.42      0.00 
    0   18    2      0.30      0.00 
   -1   18    2      0.08      0.00 
   -2   18    2     -0.22      0.00 
   -3   18    2     -0.48      0.00 
   -4   18    2     -0.56      0.00 
   13   17    2     -0.03      0.00 
   12   17    2     -0.04      0.00 
   11   17    2      0.01      0.00 
   10   17    2      0.16      0.00 
    9   17    2      0.27      0.00 
    8   17    2      0.21      0.00 
    7   17    2      0.04      0.00 
    6   17    2     -0.09      0.00 
    5   17    2     -0.09      0.00 
    4   17    2      0.04      0.00 
    3   17    2      0.19      0.00 
    2   17    2      0.20      0.00 
    1   17    2     -0.03      0.00 
    0   17    2     -0.37      0.00 
   -1   17    2     -0.50      0.00 
   -2   17    2     -0.27      0.00 
   -3   17    2      0.09      0.00 
   -4   17    2      0.26      0.00 
   -5   17    2      0.14      0.00 
   14   16    2     -0.10      0.00 
   13   16    2      0.06      0.00 
   12   16    2      0.11      0.00 
   11   16    2      0.09      0.00 
   10   16    2      0.16      0.00 
    9   16    2      0.31      0.00 
    8   16    2      0.37      0.00 
    7   16    2      0.29      0.00 
    6   16    2      0.20      0.00 
    5   16    2      0.16      0.00 
    4   16    2     -0.03      0.00 
    3   16    2     -0.47      0.00 
    2   16    2     -0.90      0.00 
    1   16    2     -0.92      0.00 
    0   16    2     -0.58      0.00 
   -1   16    2     -0.30      0.00 
   -2   16    2     -0.29      0.00 
   -3   16    2     -0.35      0.00 
   -4   16    2     -0.25      0.00 
   -5   16    2     -0.05      0.00 
   -6   16    2      0.05      0.00 
   15   15    2     -0.07      0.00 
   14   15    2     -0.23      0.00 
   13   15    2     -0.44      0.00 
   12   15    2     -0.57      0.00 
   11   15    2     -0.51      0.00 
   10   15    2     -0.32      0.00 
    9   15    2     -0.09      0.00 
    8   15    2      0.10      0.00 
    7   15    2      0.17      0.00 
    6   15    2      0.09      0.00 
    5   15    2     -0.10      0.00 
    4   15    2     -0.22      0.00 
    3   15    2     -0.15      0.00 
    2   15    2      0.06      0.00 
    1   15    2      0.27      0.00 
    0   15    2      0.39      0.00 
   -1   15    2      0.42      0.00 
   -2   15    2      0.36      0.00 
   -3   15    2      0.29      0.00 
   -4   15    2      0.27      0.00 
   -5   15    2      0.32      0.00 
   -6   15    2      0.32      0.00 
   -7   15    2      0.21      0.00 
   15   14    2      0.51      0.00 
   14   14    2      0.76      0.00 
   13   14    2      0.94      0.00 
   12   14    2      0.82      0.00 
   11   14    2      0.32      0.00 
   10   14    2     -0.32      0.00 
    9   14    2     -0.80      0.00 
    8   14    2     -0.93      0.00 
    7   14    2     -0.74      0.00 
    6   14    2     -0.39      0.00 
    5   14    2     -0.07      0.00 
    4   14    2      0.10      0.00 
    3   14    2      0.18      0.00 
    2   14    2      0.22      0.00 
    1   14    2      0.25      0.00 
    0   14    2      0.28      0.00 
   -1   14    2      0.33      0.00 
   -2   14    2      0.45      0.00 
   -3   14    2      0.52      0.00 
   -4   14    2      0.43      0.00 
   -5   14    2      0.22      0.00 
   -6   14    2      0.06      0.00 
   -7   14    2      0.03      0.00 
   -8   14    2      0.06      0.00 
   14   13    2      0.22      0.00 
   13   13    2     -0.03      0.00 
   12   13    2     -0.15      0.00 
   11   13    2      0.09      0.00 
   10   13    2      0.49      0.00 
    9   13    2      0.70      0.00 
    8   13    2      0.61      0.00 
    7   13    2      0.35      0.00 
    6   13    2      0.10      0.00 
    5   13    2     -0.16      0.00 
    4   13    2     -0.44      0.00 
    3   13    2     -0.63      0.00 
    2   13    2     -0.58      0.00 
    1   13    2     -0.30      0.00 
    0   13    2     -0.04      0.00 
   -1   13    2      0.07      0.00 
   -2   13    2      0.05      0.00 
   -3   13    2      0.01      0.00 
   -4   13    2     -0.04      0.00 
   -5   13    2     -0.08      0.00 
   -6   13    2     -0.04      0.00 
   -7   13    2      0.14      0.00 
   -8   13    2      0.29      0.00 
   -9   13    2      0.22      0.00 
   14   12    2     -1.05      0.00 
   13   12    2     -1.45      0.00 
   12   12    2     -1.43      0.00 
   11   12    2     -0.94      0.00 
   10   12    2     -0.29      0.00 
    9   12    2      0.21      0.00 
    8   12    2      0.47      0.00 
    7   12    2      0.54      0.00 
    6   12    2      0.48      0.00 
    5   12    2      0.38      0.00 
    4   12    2      0.40      0.00 
    3   12    2      0.58      0.00 
    2   12    2      0.73      0.00 
    1   12    2      0.57      0.00 
    0   12    2      0.08      0.00 
   -1   12    2     -0.50      0.00 
   -2   12    2     -0.90      0.00 
   -3   12    2     -0.98      0.00 
   -4   12    2     -0.79      0.00 
   -5   12    2     -0.51      0.00 
   -6   12    2     -0.39      0.00 
   -7   12    2     -0.50      0.00 
   -8   12    2     -0.62      0.00 
   -9   12    2     -0.49      0.00 
  -10   12    2     -0.09      0.00 
   13   11    2      0.25      0.00 
   12   11    2      0.39      0.00 
   11   11    2      0.06      0.00 
   10   11    2     -0.62      0.00 
    9   11    2     -1.37      0.00 
    8   11    2     -2.00      0.00 
    7   11    2     -2.27      0.00 
    6   11    2     -1.84      0.00 
    5   11    2     -0.70      0.00 
    4   11    2      0.52      0.00 
    3   11    2      1.03      0.00 
    2   11    2      0.57      0.00 
    1   11    2     -0.35      0.00 
    0   11    2     -0.97      0.00 
   -1   11    2     -0.98      0.00 
   -2   11    2     -0.59      0.00 
   -3   11    2     -0.18      0.00 
   -4   11    2     -0.03      0.00 
   -5   11    2     -0.13      0.00 
   -6   11    2     -0.34      0.00 
   -7   11    2     -0.48      0.00 
   -8   11    2     -0.46      0.00 
   -9   11    2     -0.31      0.00 
  -10   11    2     -0.16      0.00 
  -11   11    2     -0.12      0.00 
   14   10    2      1.10      0.00 
   13   10    2      1.80      0.00 
   12   10    2      2.17      0.00 
   11   10    2      2.13      0.00 
   10   10    2      1.90      0.00 
    9   10    2      1.85      0.00 
    8   10    2      2.11      0.00 
    7   10    2      2.30      0.00 
    6   10    2      1.92      0.00 
    5   10    2      0.86      0.00 
    4   10    2     -0.47      0.00 
    3   10    2     -1.43      0.00 
    2   10    2     -1.56      0.00 
    1   10    2     -0.82      0.00 
    0   10    2      0.39      0.00 
   -1   10    2      1.35      0.00 
   -2   10    2      1.49      0.00 
   -3   10    2      0.86      0.00 
   -4   10    2      0.05      0.00 
   -5   10    2     -0.32      0.00 
   -6   10    2     -0.08      0.00 
   -7   10    2      0.51      0.00 
   -8   10    2      1.01      0.00 
   -9   10    2      1.07      0.00 
  -10   10    2      0.68      0.00 
  -11   10    2      0.14      0.00 
   17    9    2     -0.11      0.00 
   16    9    2      0.26      0.00 
   15    9    2      0.10      0.00 
   14    9    2     -0.77      0.00 
   13    9    2     -1.76      0.00 
   12    9    2     -1.94      0.00 
   11    9    2     -1.01      0.00 
   10    9    2      0.51      0.00 
    9    9    2      1.92      0.00 
    8    9    2      2.92      0.00 
    7    9    2      3.54      0.00 
    6    9    2      3.63      0.00 
    5    9    2      2.97      0.00 
    4    9    2      1.83      0.00 
    3    9    2      1.03      0.00 
    2    9    2      1.05      0.00 
    1    9    2      1.48      0.00 
    0    9    2      1.50      0.00 
   -1    9    2      0.87      0.00 
   -2    9    2      0.17      0.00 
   -3    9    2      0.01      0.00 
   -4    9    2      0.42      0.00 
   -5    9    2      0.99      0.00 
   -6    9    2      1.30      0.00 
   -7    9    2      1.19      0.00 
   -8    9    2      0.72      0.00 
   -9    9    2      0.13      0.00 
  -10    9    2     -0.27      0.00 
  -11    9    2     -0.32      0.00 
  -12    9    2     -0.19      0.00 
   17    8    2      0.23      0.00 
   16    8    2     -0.01      0.00 
   15    8    2     -0.05      0.00 
   14    8    2      0.25      0.00 
   13    8    2      0.55      0.00 
   12    8    2      0.33      0.00 
   11    8    2     -0.68      0.00 
   10    8    2     -2.41      0.00 
    9    8    2     -4.59      0.00 
    8    8    2     -6.84      0.00 
    7    8    2     -8.45      0.00 
    6    8    2     -8.50      0.00 
    5    8    2     -6.63      0.00 
    4    8    2     -3.60      0.00 
    3    8    2     -0.99      0.00 
    2    8    2      0.03      0.00 
    1    8    2     -0.51      0.00 
    0    8    2     -1.50      0.00 
   -1    8    2     -1.75      0.00 
   -2    8    2     -0.85      0.00 
   -3    8    2      0.65      0.00 
   -4    8    2      1.74      0.00 
   -5    8    2      1.77      0.00 
   -6    8    2      0.85      0.00 
   -7    8    2     -0.27      0.00 
   -8    8    2     -0.91      0.00 
   -9    8    2     -0.92      0.00 
  -10    8    2     -0.59      0.00 
  -11    8    2     -0.29      0.00 
  -12    8    2     -0.14      0.00 
  -13    8    2     -0.11      0.00 
   17    7    2      0.31      0.00 
   16    7    2     -0.08      0.00 
   15    7    2     -0.20      0.00 
   14    7    2      0.21      0.00 
   13    7    2      0.85      0.00 
   12    7    2      1.22      0.00 
   11    7    2      1.13      0.00 
   10    7    2      0.92      0.00 
    9    7    2      0.98      0.00 
    8    7    2      1.33      0.00 
    7    7    2      1.50      0.00 
    6    7    2      0.76      0.00 
    5    7    2     -1.38      0.00 
    4    7    2     -4.60      0.00 
    3    7    2     -7.69      0.00 
    2    7    2     -9.07      0.00 
    1    7    2     -7.89      0.00 
    0    7    2     -4.81      0.00 
   -1    7    2     -1.66      0.00 
   -2    7    2     -0.14      0.00 
   -3    7    2     -0.56      0.00 
   -4    7    2     -1.90      0.00 
   -5    7    2     -2.83      0.00 
   -6    7    2     -2.73      0.00 
   -7    7    2     -1.90      0.00 
   -8    7    2     -0.95      0.00 
   -9    7    2     -0.27      0.00 
  -10    7    2      0.14      0.00 
  -11    7    2      0.37      0.00 
  -12    7    2      0.52      0.00 
  -13    7    2      0.56      0.00 
  -14    7    2      0.47      0.00 
   17    6    2      0.56      0.00 
   16    6    2      0.83      0.00 
   15    6    2      0.55      0.00 
   14    6    2     -0.39      0.00 
   13    6    2     -1.50      0.00 
   12    6    2     -2.12      0.00 
   11    6    2     -1.82      0.00 
   10    6    2     -0.56      0.00 
    9    6    2      1.52      0.00 
    8    6    2      4.05      0.00 
    7    6    2      6.43      0.00 
    6    6    2      8.14      0.00 
    5    6    2      9.27      0.00 
    4    6    2     10.51      0.00 
    3    6    2     12.29      0.00 
    2    6    2     13.97      0.00 
    1    6    2     14.12      0.00 
    0    6    2     11.81      0.00 
   -1    6    2      7.56      0.00 
   -2    6    2      3.04      0.00 
   -3    6    2     -0.14      0.00 
   -4    6    2     -1.31      0.00 
   -5    6    2     -0.83      0.00 
   -6    6    2      0.30      0.00 
   -7    6    2      1.11      0.00 
   -8    6    2      1.12      0.00 
   -9    6    2      0.53      0.00 
  -10    6    2     -0.10      0.00 
  -11    6    2     -0.42      0.00 
  -12    6    2     -0.40      0.00 
  -13    6    2     -0.20      0.00 
  -14    6    2      0.01      0.00 
   17    5    2     -0.59      0.00 
   16    5    2     -0.46      0.00 
   15    5    2     -0.26      0.00 
   14    5    2     -0.04      0.00 
   13    5    2      0.30      0.00 
   12    5    2      0.72      0.00 
   11    5    2      0.80      0.00 
   10    5    2     -0.04      0.00 
    9    5    2     -1.93      0.00 
    8    5    2     -4.23      0.00 
    7    5    2     -5.67      0.00 
    6    5    2     -4.81      0.00 
    5    5    2     -0.93      0.00 
    4    5    2      4.96      0.00 
    3    5    2     10.17      0.00 
    2    5    2     11.89      0.00 
    1    5    2      9.48      0.00 
    0    5    2      5.01      0.00 
   -1    5    2      1.51      0.00 
   -2    5    2      0.57      0.00 
   -3    5    2      1.52      0.00 
   -4    5    2      2.58      0.00 
   -5    5    2      2.50      0.00 
   -6    5    2      1.29      0.00 
   -7    5    2     -0.22      0.00 
   -8    5    2     -1.17      0.00 
   -9    5    2     -1.22      0.00 
  -10    5    2     -0.58      0.00 
  -11    5    2      0.20      0.00 
  -12    5    2      0.61      0.00 
  -13    5    2      0.47      0.00 
  -14    5    2      0.03      0.00 
  -15    5    2     -0.25      0.00 
   17    4    2     -0.58      0.00 
   16    4    2     -0.82      0.00 
   15    4    2     -0.43      0.00 
   14    4    2      0.50      0.00 
   13    4    2      1.30      0.00 
   12    4    2      1.52      0.00 
   11    4    2      1.39      0.00 
   10    4    2      1.45      0.00 
    9    4    2      2.00      0.00 
    8    4    2      2.90      0.00 
    7    4    2      3.49      0.00 
    6    4    2      2.16      0.00 
    5    4    2     -3.18      0.00 
    4    4    2    -13.17      0.00 
    3    4    2    -25.19      0.00 
    2    4    2    -34.10      0.00 
    1    4    2    -35.63      0.00 
    0    4    2    -29.49      0.00 
   -1    4    2    -19.33      0.00 
   -2    4    2     -9.86      0.00 
   -3    4    2     -3.85      0.00 
   -4    4    2     -1.24      0.00 
   -5    4    2     -0.44      0.00 
   -6    4    2      0.06      0.00 
   -7    4    2      0.85      0.00 
   -8    4    2      1.78      0.00 
   -9    4    2      2.39      0.00 
  -10    4    2      2.29      0.00 
  -11    4    2      1.47      0.00 
  -12    4    2      0.41      0.00 
  -13    4    2     -0.28      0.00 
  -14    4    2     -0.40      0.00 
  -15    4    2     -0.25      0.00 
   17    3    2      0.48      0.00 
   16    3    2      0.39      0.00 
   15    3    2     -0.14      0.00 
   14    3    2     -0.95      0.00 
   13    3    2     -1.73      0.00 
   12    3    2     -2.19      0.00 
   11    3    2     -2.01      0.00 
   10    3    2     -0.89      0.00 
    9    3    2      0.90      0.00 
    8    3    2      2.37      0.00 
    7    3    2      2.49      0.00 
    6    3    2      1.32      0.00 
    5    3    2      0.17      0.00 
    4    3    2      0.52      0.00 
    3    3    2      2.88      0.00 
    2    3    2      6.29      0.00 
    1    3    2      8.57      0.00 
    0    3    2      7.48      0.00 
   -1    3    2      2.42      0.00 
   -2    3    2     -4.44      0.00 
   -3    3    2     -9.40      0.00 
   -4    3    2    -10.08      0.00 
   -5    3    2     -7.22      0.00 
   -6    3    2     -3.52      0.00 
   -7    3    2     -1.14      0.00 
   -8    3    2     -0.39      0.00 
   -9    3    2     -0.51      0.00 
  -10    3    2     -0.79      0.00 
  -11    3    2     -0.91      0.00 
  -12    3    2     -0.75      0.00 
  -13    3    2     -0.31      0.00 
  -14    3    2      0.18      0.00 
  -15    3    2      0.45      0.00 
  -16    3    2      0.41      0.00 
   16    2    2     -0.12      0.00 
   15    2    2     -0.12      0.00 
   14    2    2     -0.01      0.00 
   13    2    2      0.41      0.00 
   12    2    2      1.13      0.00 
   11    2    2      1.57      0.00 
   10    2    2      0.85      0.00 
    9    2    2     -1.37      0.00 
    8    2    2     -4.54      0.00 
    7    2    2     -7.41      0.00 
    6    2    2     -8.39      0.00 
    5    2    2     -5.87      0.00 
    4    2    2      0.86      0.00 
    3    2    2     10.44      0.00 
    2    2    2     19.55      0.00 
    1    2    2     25.10      0.00 
    0    2    2     26.50      0.00 
   -1    2    2     25.58      0.00 
   -2    2    2     24.17      0.00 
   -3    2    2     22.28      0.00 
   -4    2    2     18.70      0.00 
   -5    2    2     13.01      0.00 
   -6    2    2      6.51      0.00 
   -7    2    2      1.13      0.00 
   -8    2    2     -2.02      0.00 
   -9    2    2     -3.03      0.00 
  -10    2    2     -2.68      0.00 
  -11    2    2     -1.73      0.00 
  -12    2    2     -0.79      0.00 
  -13    2    2     -0.26      0.00 
  -14    2    2     -0.17      0.00 
  -15    2    2     -0.21      0.00 
  -16    2    2     -0.11      0.00 
   16    1    2      0.26      0.00 
   15    1    2      0.75      0.00 
   14    1    2      1.32      0.00 
   13    1    2      1.51      0.00 
   12    1    2      1.04      0.00 
   11    1    2      0.01      0.00 
   10    1    2     -1.17      0.00 
    9    1    2     -1.74      0.00 
    8    1    2     -0.76      0.00 
    7    1    2      2.14      0.00 
    6    1    2      5.57      0.00 
    5    1    2      6.60      0.00 
    4    1    2      2.78      0.00 
    3    1    2     -5.41      0.00 
    2    1    2    -14.35      0.00 
    1    1    2    -19.50      0.00 
    0    1    2    -18.32      0.00 
   -1    1    2    -11.82      0.00 
   -2    1    2     -3.67      0.00 
   -3    1    2      2.26      0.00 
   -4    1    2      4.36      0.00 
   -5    1    2      3.78      0.00 
   -6    1    2      2.85      0.00 
   -7    1    2      2.93      0.00 
   -8    1    2      3.71      0.00 
   -9    1    2      4.15      0.00 
  -10    1    2      3.70      0.00 
  -11    1    2      2.56      0.00 
  -12    1    2      1.27      0.00 
  -13    1    2      0.30      0.00 
  -14    1    2     -0.24      0.00 
  -15    1    2     -0.47      0.00 
  -16    1    2     -0.54      0.00 
   16    0    2      0.32      0.00 
   15    0    2      0.23      0.00 
   14    0    2     -0.37      0.00 
   13    0    2     -1.29      0.00 
   12    0    2     -1.99      0.00 
   11    0    2     -1.89      0.00 
   10    0    2     -0.81      0.00 
    9    0    2      0.77      0.00 
    8    0    2      1.86      0.00 
    7    0    2      1.54      0.00 
    6    0    2     -0.16      0.00 
    5    0    2     -1.65      0.00 
    4    0    2     -0.37      0.00 
    3    0    2      5.39      0.00 
    2    0    2     14.21      0.00 
    1    0    2     21.02      0.00 
    0    0    2     19.99      0.00 
   -1    0    2      9.38      0.00 
   -2    0    2     -6.26      0.00 
   -3    0    2    -19.12      0.00 
   -4    0    2    -23.91      0.00 
   -5    0    2    -20.93      0.00 
   -6    0    2    -14.24      0.00 
   -7    0    2     -7.92      0.00 
   -8    0    2     -3.88      0.00 
   -9    0    2     -2.10      0.00 
  -10    0    2     -1.59      0.00 
  -11    0    2     -1.27      0.00 
  -12    0    2     -0.60      0.00 
  -13    0    2      0.18      0.00 
  -14    0    2      0.64      0.00 
  -15    0    2      0.67      0.00 
  -16    0    2      0.49      0.00 
   16   -1    2     -0.65      0.00 
   15   -1    2     -1.03      0.00 
   14   -1    2     -1.02      0.00 
   13   -1    2     -0.38      0.00 
   12   -1    2      0.72      0.00 
   11   -1    2      1.80      0.00 
   10   -1    2      2.42      0.00 
    9   -1    2      2.47      0.00 
    8   -1    2      2.00      0.00 
    7   -1    2      1.26      0.00 
    6   -1    2      0.86      0.00 
    5   -1    2      1.35      0.00 
    4   -1    2      1.90      0.00 
    3   -1    2     -0.14      0.00 
    2   -1    2     -7.01      0.00 
    1   -1    2    -17.20      0.00 
    0   -1    2    -25.21      0.00 
   -1   -1    2    -25.66      0.00 
   -2   -1    2    -18.05      0.00 
   -3   -1    2     -7.00      0.00 
   -4   -1    2      1.76      0.00 
   -5   -1    2      5.32      0.00 
   -6   -1    2      4.29      0.00 
   -7   -1    2      1.17      0.00 
   -8   -1    2     -1.57      0.00 
   -9   -1    2     -2.57      0.00 
  -10   -1    2     -1.91      0.00 
  -11   -1    2     -0.63      0.00 
  -12   -1    2      0.34      0.00 
  -13   -1    2      0.75      0.00 
  -14   -1    2      0.82      0.00 
  -15   -1    2      0.73      0.00 
  -16   -1    2      0.50      0.00 
   15   -2    2      0.53      0.00 
   14   -2    2      0.82      0.00 
   13   -2    2      0.87      0.00 
   12   -2    2      0.35      0.00 
   11   -2    2     -0.82      0.00 
   10   -2    2     -2.29      0.00 
    9   -2    2     -3.33      0.00 
    8   -2    2     -3.23      0.00 
    7   -2    2     -1.83      0.00 
    6   -2    2      0.22      0.00 
    5   -2    2      1.52      0.00 
    4   -2    2      0.66      0.00 
    3   -2    2     -2.42      0.00 
    2   -2    2     -5.73      0.00 
    1   -2    2     -6.22      0.00 
    0   -2    2     -2.11      0.00 
   -1   -2    2      5.38      0.00 
   -2   -2    2     12.62      0.00 
   -3   -2    2     16.17      0.00 
   -4   -2    2     15.22      0.00 
   -5   -2    2     11.74      0.00 
   -6   -2    2      8.41      0.00 
   -7   -2    2      6.55      0.00 
   -8   -2    2      5.80      0.00 
   -9   -2    2      5.16      0.00 
  -10   -2    2      4.04      0.00 
  -11   -2    2      2.36      0.00 
  -12   -2    2      0.41      0.00 
  -13   -2    2     -1.28      0.00 
  -14   -2    2     -2.10      0.00 
  -15   -2    2     -1.90      0.00 
  -16   -2    2     -1.13      0.00 
   15   -3    2      0.07      0.00 
   14   -3    2      0.00      0.00 
   13   -3    2     -0.18      0.00 
   12   -3    2     -0.18      0.00 
   11   -3    2      0.33      0.00 
   10   -3    2      1.25      0.00 
    9   -3    2      2.10      0.00 
    8   -3    2      2.30      0.00 
    7   -3    2      1.39      0.00 
    6   -3    2     -0.83      0.00 
    5   -3    2     -3.79      0.00 
    4   -3    2     -5.59      0.00 
    3   -3    2     -3.71      0.00 
    2   -3    2      2.69      0.00 
    1   -3    2     10.75      0.00 
    0   -3    2     15.26      0.00 
   -1   -3    2     12.79      0.00 
   -2   -3    2      4.79      0.00 
   -3   -3    2     -3.69      0.00 
   -4   -3    2     -8.22      0.00 
   -5   -3    2     -7.88      0.00 
   -6   -3    2     -4.72      0.00 
   -7   -3    2     -1.34      0.00 
   -8   -3    2      0.66      0.00 
   -9   -3    2      0.92      0.00 
  -10   -3    2      0.09      0.00 
  -11   -3    2     -0.73      0.00 
  -12   -3    2     -0.76      0.00 
  -13   -3    2     -0.17      0.00 
  -14   -3    2      0.31      0.00 
  -15   -3    2      0.28      0.00 
  -16   -3    2      0.04      0.00 
  -17   -3    2     -0.04      0.00 
   15   -4    2     -0.43      0.00 
   14   -4    2     -0.65      0.00 
   13   -4    2     -0.55      0.00 
   12   -4    2     -0.18      0.00 
   11   -4    2      0.21      0.00 
   10   -4    2      0.42      0.00 
    9   -4    2      0.30      0.00 
    8   -4    2     -0.23      0.00 
    7   -4    2     -1.03      0.00 
    6   -4    2     -1.43      0.00 
    5   -4    2     -0.67      0.00 
    4   -4    2      1.16      0.00 
    3   -4    2      2.59      0.00 
    2   -4    2      1.83      0.00 
    1   -4    2     -1.32      0.00 
    0   -4    2     -4.78      0.00 
   -1   -4    2     -5.87      0.00 
   -2   -4    2     -3.60      0.00 
   -3   -4    2      0.51      0.00 
   -4   -4    2      3.72      0.00 
   -5   -4    2      4.11      0.00 
   -6   -4    2      1.65      0.00 
   -7   -4    2     -2.02      0.00 
   -8   -4    2     -4.89      0.00 
   -9   -4    2     -5.73      0.00 
  -10   -4    2     -4.66      0.00 
  -11   -4    2     -2.64      0.00 
  -12   -4    2     -0.68      0.00 
  -13   -4    2      0.66      0.00 
  -14   -4    2      1.26      0.00 
  -15   -4    2      1.28      0.00 
  -16   -4    2      0.98      0.00 
  -17   -4    2      0.60      0.00 
   14   -5    2      0.68      0.00 
   13   -5    2      0.93      0.00 
   12   -5    2      0.64      0.00 
   11   -5    2     -0.21      0.00 
   10   -5    2     -1.28      0.00 
    9   -5    2     -2.05      0.00 
    8   -5    2     -2.13      0.00 
    7   -5    2     -1.25      0.00 
    6   -5    2      0.48      0.00 
    5   -5    2      2.24      0.00 
    4   -5    2      2.74      0.00 
    3   -5    2      1.20      0.00 
    2   -5    2     -1.65      0.00 
    1   -5    2     -3.81      0.00 
    0   -5    2     -3.58      0.00 
   -1   -5    2     -1.02      0.00 
   -2   -5    2      2.12      0.00 
   -3   -5    2      3.80      0.00 
   -4   -5    2      3.34      0.00 
   -5   -5    2      1.72      0.00 
   -6   -5    2      0.50      0.00 
   -7   -5    2      0.44      0.00 
   -8   -5    2      1.20      0.00 
   -9   -5    2      1.97      0.00 
  -10   -5    2      2.16      0.00 
  -11   -5    2      1.61      0.00 
  -12   -5    2      0.53      0.00 
  -13   -5    2     -0.57      0.00 
  -14   -5    2     -1.11      0.00 
  -15   -5    2     -0.94      0.00 
  -16   -5    2     -0.48      0.00 
  -17   -5    2     -0.20      0.00 
   14   -6    2      0.30      0.00 
   13   -6    2     -0.13      0.00 
   12   -6    2     -0.56      0.00 
   11   -6    2     -0.53      0.00 
   10   -6    2      0.11      0.00 
    9   -6    2      1.10      0.00 
    8   -6    2      2.00      0.00 
    7   -6    2      2.29      0.00 
    6   -6    2      1.61      0.00 
    5   -6    2      0.30      0.00 
    4   -6    2     -0.49      0.00 
    3   -6    2      0.47      0.00 
    2   -6    2      3.26      0.00 
    1   -6    2      6.31      0.00 
    0   -6    2      7.33      0.00 
   -1   -6    2      4.96      0.00 
   -2   -6    2     -0.10      0.00 
   -3   -6    2     -5.44      0.00 
   -4   -6    2     -8.51      0.00 
   -5   -6    2     -8.26      0.00 
   -6   -6    2     -5.51      0.00 
   -7   -6    2     -2.14      0.00 
   -8   -6    2      0.36      0.00 
   -9   -6    2      1.43      0.00 
  -10   -6    2      1.34      0.00 
  -11   -6    2      0.73      0.00 
  -12   -6    2      0.24      0.00 
  -13   -6    2      0.23      0.00 
  -14   -6    2      0.60      0.00 
  -15   -6    2      0.97      0.00 
  -16   -6    2      0.97      0.00 
  -17   -6    2      0.59      0.00 
   13   -7    2     -0.50      0.00 
   12   -7    2     -0.20      0.00 
   11   -7    2      0.37      0.00 
   10   -7    2      0.78      0.00 
    9   -7    2      0.65      0.00 
    8   -7    2      0.03      0.00 
    7   -7    2     -0.71      0.00 
    6   -7    2     -1.23      0.00 
    5   -7    2     -1.37      0.00 
    4   -7    2     -1.21      0.00 
    3   -7    2     -1.03      0.00 
    2   -7    2     -1.35      0.00 
    1   -7    2     -2.56      0.00 
    0   -7    2     -4.18      0.00 
   -1   -7    2     -4.83      0.00 
   -2   -7    2     -3.31      0.00 
   -3   -7    2     -0.06      0.00 
   -4   -7    2      3.01      0.00 
   -5   -7    2      4.10      0.00 
   -6   -7    2      2.96      0.00 
   -7   -7    2      0.71      0.00 
   -8   -7    2     -1.37      0.00 
   -9   -7    2     -2.54      0.00 
  -10   -7    2     -2.57      0.00 
  -11   -7    2     -1.58      0.00 
  -12   -7    2     -0.13      0.00 
  -13   -7    2      0.85      0.00 
  -14   -7    2      0.79      0.00 
  -15   -7    2     -0.03      0.00 
  -16   -7    2     -0.73      0.00 
  -17   -7    2     -0.77      0.00 
   13   -8    2     -0.22      0.00 
   12   -8    2     -0.17      0.00 
   11   -8    2     -0.28      0.00 
   10   -8    2     -0.56      0.00 
    9   -8    2     -0.81      0.00 
    8   -8    2     -0.80      0.00 
    7   -8    2     -0.43      0.00 
    6   -8    2      0.33      0.00 
    5   -8    2      1.22      0.00 
    4   -8    2      1.60      0.00 
    3   -8    2      0.83      0.00 
    2   -8    2     -0.91      0.00 
    1   -8    2     -2.41      0.00 
    0   -8    2     -2.42      0.00 
   -1   -8    2     -0.86      0.00 
   -2   -8    2      1.10      0.00 
   -3   -8    2      2.21      0.00 
   -4   -8    2      2.16      0.00 
   -5   -8    2      1.54      0.00 
   -6   -8    2      1.08      0.00 
   -7   -8    2      1.06      0.00 
   -8   -8    2      1.37      0.00 
   -9   -8    2      1.68      0.00 
  -10   -8    2      1.65      0.00 
  -11   -8    2      1.08      0.00 
  -12   -8    2      0.18      0.00 
  -13   -8    2     -0.59      0.00 
  -14   -8    2     -0.87      0.00 
  -15   -8    2     -0.73      0.00 
  -16   -8    2     -0.48      0.00 
  -17   -8    2     -0.34      0.00 
   12   -9    2      0.46      0.00 
   11   -9    2      0.32      0.00 
   10   -9    2      0.18      0.00 
    9   -9    2      0.32      0.00 
    8   -9    2      0.67      0.00 
    7   -9    2      0.83      0.00 
    6   -9    2      0.47      0.00 
    5   -9    2     -0.34      0.00 
    4   -9    2     -1.12      0.00 
    3   -9    2     -1.31      0.00 
    2   -9    2     -0.62      0.00 
    1   -9    2      0.74      0.00 
    0   -9    2      2.02      0.00 
   -1   -9    2      2.32      0.00 
   -2   -9    2      1.25      0.00 
   -3   -9    2     -0.53      0.00 
   -4   -9    2     -1.78      0.00 
   -5   -9    2     -1.73      0.00 
   -6   -9    2     -0.67      0.00 
   -7   -9    2      0.55      0.00 
   -8   -9    2      1.35      0.00 
   -9   -9    2      1.64      0.00 
  -10   -9    2      1.52      0.00 
  -11   -9    2      1.05      0.00 
  -12   -9    2      0.44      0.00 
  -13   -9    2      0.12      0.00 
  -14   -9    2      0.27      0.00 
  -15   -9    2      0.63      0.00 
  -16   -9    2      0.77      0.00 
  -17   -9    2      0.59      0.00 
   12  -10    2      0.04      0.00 
   11  -10    2      0.25      0.00 
   10  -10    2      0.50      0.00 
    9  -10    2      0.49      0.00 
    8  -10    2      0.07      0.00 
    7  -10    2     -0.57      0.00 
    6  -10    2     -1.01      0.00 
    5  -10    2     -0.95      0.00 
    4  -10    2     -0.30      0.00 
    3  -10    2      0.67      0.00 
    2  -10    2      1.46      0.00 
    1  -10    2      1.50      0.00 
    0  -10    2      0.72      0.00 
   -1  -10    2     -0.25      0.00 
   -2  -10    2     -0.57      0.00 
   -3  -10    2     -0.02      0.00 
   -4  -10    2      0.81      0.00 
   -5  -10    2      1.13      0.00 
   -6  -10    2      0.72      0.00 
   -7  -10    2     -0.16      0.00 
   -8  -10    2     -1.14      0.00 
   -9  -10    2     -1.90      0.00 
  -10  -10    2     -2.10      0.00 
  -11  -10    2     -1.58      0.00 
  -12  -10    2     -0.64      0.00 
  -13  -10    2      0.03      0.00 
  -14  -10    2      0.01      0.00 
  -15  -10    2     -0.46      0.00 
  -16  -10    2     -0.78      0.00 
  -17  -10    2     -0.67      0.00 
    9  -11    2     -0.28      0.00 
    8  -11    2     -0.53      0.00 
    7  -11    2     -0.56      0.00 
    6  -11    2     -0.31      0.00 
    5  -11    2      0.03      0.00 
    4  -11    2      0.12      0.00 
    3  -11    2     -0.19      0.00 
    2  -11    2     -0.71      0.00 
    1  -11    2     -1.03      0.00 
    0  -11    2     -0.86      0.00 
   -1  -11    2     -0.22      0.00 
   -2  -11    2      0.52      0.00 
   -3  -11    2      0.88      0.00 
   -4  -11    2      0.63      0.00 
   -5  -11    2     -0.07      0.00 
   -6  -11    2     -0.76      0.00 
   -7  -11    2     -1.00      0.00 
   -8  -11    2     -0.76      0.00 
   -9  -11    2     -0.39      0.00 
  -10  -11    2     -0.22      0.00 
  -11  -11    2     -0.25      0.00 
  -12  -11    2     -0.34      0.00 
  -13  -11    2     -0.45      0.00 
  -14  -11    2     -0.59      0.00 
  -15  -11    2     -0.58      0.00 
  -16  -11    2     -0.30      0.00 
    8  -12    2      0.04      0.00 
    7  -12    2      0.70      0.00 
    6  -12    2      1.19      0.00 
    5  -12    2      1.21      0.00 
    4  -12    2      0.72      0.00 
    3  -12    2      0.04      0.00 
    2  -12    2     -0.36      0.00 
    1  -12    2     -0.33      0.00 
    0  -12    2     -0.12      0.00 
   -1  -12    2     -0.14      0.00 
   -2  -12    2     -0.55      0.00 
   -3  -12    2     -1.11      0.00 
   -4  -12    2     -1.39      0.00 
   -5  -12    2     -1.17      0.00 
   -6  -12    2     -0.54      0.00 
   -7  -12    2      0.17      0.00 
   -8  -12    2      0.67      0.00 
   -9  -12    2      0.87      0.00 
  -10  -12    2      0.76      0.00 
  -11  -12    2      0.43      0.00 
  -12  -12    2      0.14      0.00 
  -13  -12    2      0.17      0.00 
  -14  -12    2      0.55      0.00 
  -15  -12    2      0.86      0.00 
  -16  -12    2      0.74      0.00 
    7  -13    2     -0.35      0.00 
    6  -13    2     -0.57      0.00 
    5  -13    2     -0.40      0.00 
    4  -13    2      0.23      0.00 
    3  -13    2      0.96      0.00 
    2  -13    2      1.29      0.00 
    1  -13    2      1.06      0.00 
    0  -13    2      0.51      0.00 
   -1  -13    2      0.04      0.00 
   -2  -13    2     -0.16      0.00 
   -3  -13    2     -0.09      0.00 
   -4  -13    2      0.15      0.00 
   -5  -13    2      0.38      0.00 
   -6  -13    2      0.43      0.00 
   -7  -13    2      0.21      0.00 
   -8  -13    2     -0.14      0.00 
   -9  -13    2     -0.31      0.00 
  -10  -13    2     -0.07      0.00 
  -11  -13    2      0.46      0.00 
  -12  -13    2      0.86      0.00 
  -13  -13    2      0.83      0.00 
  -14  -13    2      0.46      0.00 
  -15  -13    2      0.11      0.00 
    7  -14    2      0.18      0.00 
    6  -14    2     -0.06      0.00 
    5  -14    2     -0.39      0.00 
    4  -14    2     -0.62      0.00 
    3  -14    2     -0.63      0.00 
    2  -14    2     -0.48      0.00 
    1  -14    2     -0.36      0.00 
    0  -14    2     -0.25      0.00 
   -1  -14    2      0.08      0.00 
   -2  -14    2      0.70      0.00 
   -3  -14    2      1.29      0.00 
   -4  -14    2      1.46      0.00 
   -5  -14    2      1.19      0.00 
   -6  -14    2      0.75      0.00 
   -7  -14    2      0.40      0.00 
   -8  -14    2      0.17      0.00 
   -9  -14    2      0.00      0.00 
  -10  -14    2     -0.09      0.00 
  -11  -14    2     -0.08      0.00 
  -12  -14    2     -0.08      0.00 
  -13  -14    2     -0.26      0.00 
  -14  -14    2     -0.57      0.00 
  -15  -14    2     -0.75      0.00 
    6  -15    2      0.30      0.00 
    5  -15    2      0.55      0.00 
    4  -15    2      0.42      0.00 
    3  -15    2      0.04      0.00 
    2  -15    2     -0.21      0.00 
    1  -15    2     -0.06      0.00 
    0  -15    2      0.31      0.00 
   -1  -15    2      0.52      0.00 
   -2  -15    2      0.30      0.00 
   -3  -15    2     -0.24      0.00 
   -4  -15    2     -0.81      0.00 
   -5  -15    2     -1.11      0.00 
   -6  -15    2     -1.02      0.00 
   -7  -15    2     -0.62      0.00 
   -8  -15    2     -0.11      0.00 
   -9  -15    2      0.27      0.00 
  -10  -15    2      0.35      0.00 
  -11  -15    2      0.11      0.00 
  -12  -15    2     -0.21      0.00 
  -13  -15    2     -0.35      0.00 
  -14  -15    2     -0.20      0.00 
    6  -16    2     -0.10      0.00 
    5  -16    2     -0.12      0.00 
    4  -16    2     -0.06      0.00 
    3  -16    2     -0.06      0.00 
    2  -16    2     -0.20      0.00 
    1  -16    2     -0.31      0.00 
    0  -16    2     -0.25      0.00 
   -1  -16    2     -0.13      0.00 
   -2  -16    2     -0.11      0.00 
   -3  -16    2     -0.19      0.00 
   -4  -16    2     -0.19      0.00 
   -5  -16    2     -0.10      0.00 
   -6  -16    2     -0.04      0.00 
   -7  -16    2     -0.07      0.00 
   -8  -16    2     -0.09      0.00 
   -9  -16    2     -0.03      0.00 
  -10  -16    2      0.07      0.00 
  -11  -16    2      0.09      0.00 
  -12  -16    2      0.06      0.00 
  -13  -16    2      0.04      0.00 
    4  -17    2     -0.37      0.00 
    3  -17    2     -0.34      0.00 
    2  -17    2     -0.20      0.00 
    1  -17    2     -0.11      0.00 
    0  -17    2     -0.13      0.00 
   -1  -17    2     -0.16      0.00 
   -2  -17    2     -0.12      0.00 
   -3  -17    2      0.00      0.00 
   -4  -17    2      0.16      0.00 
   -5  -17    2      0.37      0.00 
   -6  -17    2      0.54      0.00 
   -7  -17    2      0.51      0.00 
   -8  -17    2      0.24      0.00 
   -9  -17    2     -0.10      0.00 
  -10  -17    2     -0.28      0.00 
  -11  -17    2     -0.28      0.00 
  -12  -17    2     -0.20      0.00 
    2  -18    2      0.04      0.00 
    1  -18    2      0.20      0.00 
    0  -18    2      0.22      0.00 
   -1  -18    2      0.02      0.00 
   -2  -18    2     -0.27      0.00 
   -3  -18    2     -0.49      0.00 
   -4  -18    2     -0.60      0.00 
   -5  -18    2     -0.63      0.00 
   -6  -18    2     -0.54      0.00 
   -7  -18    2     -0.32      0.00 
   -8  -18    2     -0.10      0.00 
   -9  -18    2     -0.05      0.00 
  -10  -18    2     -0.18      0.00 
    0  -19    2     -0.45      0.00 
   -1  -19    2     -0.82      0.00 
   -2  -19    2     -0.80      0.00 
   -3  -19    2     -0.44      0.00 
   -4  -19    2     -0.05      0.00 
   -5  -19    2      0.08      0.00 
   -6  -19    2     -0.05      0.00 
   -7  -19    2     -0.18      0.00 
   -8  -19    2     -0.10      0.00 
    7   20    1     -0.29      0.00 
    6   20    1     -0.33      0.00 
    5   20    1     -0.33      0.00 
    4   20    1     -0.32      0.00 
    3   20    1     -0.26      0.00 
    9   19    1      0.16      0.00 
    8   19    1      0.21      0.00 
    7   19    1      0.08      0.00 
    6   19    1     -0.05      0.00 
    5   19    1     -0.02      0.00 
    4   19    1      0.09      0.00 
    3   19    1      0.05      0.00 
    2   19    1     -0.14      0.00 
    1   19    1     -0.25      0.00 
    0   19    1     -0.12      0.00 
   11   18    1      0.25      0.00 
   10   18    1     -0.04      0.00 
    9   18    1     -0.22      0.00 
    8   18    1     -0.13      0.00 
    7   18    1      0.10      0.00 
    6   18    1      0.18      0.00 
    5   18    1      0.07      0.00 
    4   18    1      0.01      0.00 
    3   18    1      0.17      0.00 
    2   18    1      0.48      0.00 
    1   18    1      0.69      0.00 
   -1   18    1      0.24      0.00 
   -2   18    1     -0.21      0.00 
   -3   18    1     -0.48      0.00 
   13   17    1     -0.16      0.00 
   12   17    1     -0.09      0.00 
   11   17    1      0.02      0.00 
   10   17    1      0.05      0.00 
    9   17    1     -0.05      0.00 
    8   17    1     -0.13      0.00 
    7   17    1     -0.03      0.00 
    6   17    1      0.21      0.00 
    5   17    1      0.43      0.00 
    4   17    1      0.54      0.00 
    3   17    1      0.56      0.00 
    2   17    1      0.44      0.00 
    1   17    1      0.18      0.00 
    0   17    1     -0.08      0.00 
   -1   17    1     -0.17      0.00 
   -2   17    1     -0.06      0.00 
   -3   17    1      0.03      0.00 
   -4   17    1      0.00      0.00 
   -5   17    1     -0.06      0.00 
   14   16    1      0.04      0.00 
   13   16    1      0.07      0.00 
   12   16    1      0.00      0.00 
   11   16    1     -0.08      0.00 
   10   16    1     -0.03      0.00 
    9   16    1      0.06      0.00 
    8   16    1     -0.06      0.00 
    7   16    1     -0.35      0.00 
    6   16    1     -0.51      0.00 
    5   16    1     -0.36      0.00 
    4   16    1     -0.12      0.00 
    3   16    1     -0.10      0.00 
    2   16    1     -0.27      0.00 
    1   16    1     -0.36      0.00 
    0   16    1     -0.27      0.00 
   -1   16    1     -0.10      0.00 
   -2   16    1      0.02      0.00 
   -3   16    1      0.06      0.00 
   -4   16    1      0.04      0.00 
   -5   16    1     -0.03      0.00 
   -6   16    1     -0.12      0.00 
   15   15    1     -0.42      0.00 
   14   15    1     -0.53      0.00 
   13   15    1     -0.48      0.00 
   12   15    1     -0.20      0.00 
   11   15    1      0.24      0.00 
   10   15    1      0.63      0.00 
    9   15    1      0.82      0.00 
    8   15    1      0.79      0.00 
    7   15    1      0.57      0.00 
    6   15    1      0.23      0.00 
    5   15    1     -0.07      0.00 
    4   15    1     -0.24      0.00 
    3   15    1     -0.27      0.00 
    2   15    1     -0.27      0.00 
    1   15    1     -0.28      0.00 
    0   15    1     -0.29      0.00 
   -1   15    1     -0.29      0.00 
   -2   15    1     -0.24      0.00 
   -3   15    1     -0.08      0.00 
   -4   15    1      0.22      0.00 
   -5   15    1      0.46      0.00 
   -6   15    1      0.39      0.00 
   -7   15    1      0.06      0.00 
   14   14    1      0.45      0.00 
   13   14    1      0.67      0.00 
   12   14    1      0.42      0.00 
   11   14    1     -0.20      0.00 
   10   14    1     -0.73      0.00 
    9   14    1     -0.82      0.00 
    8   14    1     -0.48      0.00 
    7   14    1      0.03      0.00 
    6   14    1      0.50      0.00 
    5   14    1      0.77      0.00 
    4   14    1      0.78      0.00 
    3   14    1      0.56      0.00 
    2   14    1      0.23      0.00 
    1   14    1     -0.01      0.00 
    0   14    1     -0.07      0.00 
   -1   14    1     -0.01      0.00 
   -2   14    1      0.04      0.00 
   -3   14    1     -0.06      0.00 
   -4   14    1     -0.27      0.00 
   -5   14    1     -0.46      0.00 
   -6   14    1     -0.50      0.00 
   -7   14    1     -0.34      0.00 
   -8   14    1     -0.06      0.00 
   14   13    1      0.76      0.00 
   13   13    1      0.57      0.00 
   12   13    1      0.24      0.00 
   11   13    1     -0.09      0.00 
   10   13    1     -0.39      0.00 
    9   13    1     -0.58      0.00 
    8   13    1     -0.59      0.00 
    7   13    1     -0.39      0.00 
    6   13    1     -0.19      0.00 
    5   13    1     -0.28      0.00 
    4   13    1     -0.69      0.00 
    3   13    1     -1.04      0.00 
    2   13    1     -0.90      0.00 
    1   13    1     -0.26      0.00 
    0   13    1      0.48      0.00 
   -1   13    1      0.93      0.00 
   -2   13    1      1.01      0.00 
   -3   13    1      0.84      0.00 
   -4   13    1      0.58      0.00 
   -5   13    1      0.38      0.00 
   -6   13    1      0.37      0.00 
   -7   13    1      0.50      0.00 
   -8   13    1      0.48      0.00 
   -9   13    1      0.17      0.00 
   14   12    1     -0.57      0.00 
   13   12    1     -1.07      0.00 
   12   12    1     -1.08      0.00 
   11   12    1     -0.37      0.00 
   10   12    1      0.59      0.00 
    9   12    1      1.09      0.00 
    8   12    1      0.87      0.00 
    7   12    1      0.19      0.00 
    6   12    1     -0.45      0.00 
    5   12    1     -0.68      0.00 
    4   12    1     -0.38      0.00 
    3   12    1      0.28      0.00 
    2   12    1      0.83      0.00 
    1   12    1      0.88      0.00 
    0   12    1      0.38      0.00 
   -1   12    1     -0.28      0.00 
   -2   12    1     -0.65      0.00 
   -3   12    1     -0.52      0.00 
   -4   12    1     -0.05      0.00 
   -5   12    1      0.45      0.00 
   -6   12    1      0.68      0.00 
   -7   12    1      0.60      0.00 
   -8   12    1      0.36      0.00 
   -9   12    1      0.14      0.00 
  -10   12    1      0.04      0.00 
   13   11    1     -0.81      0.00 
   12   11    1     -0.44      0.00 
   11   11    1     -0.30      0.00 
   10   11    1     -0.35      0.00 
    9   11    1     -0.46      0.00 
    8   11    1     -0.56      0.00 
    7   11    1     -0.52      0.00 
    6   11    1     -0.16      0.00 
    5   11    1      0.48      0.00 
    4   11    1      1.02      0.00 
    3   11    1      1.01      0.00 
    2   11    1      0.38      0.00 
    1   11    1     -0.53      0.00 
    0   11    1     -1.19      0.00 
   -1   11    1     -1.28      0.00 
   -2   11    1     -0.91      0.00 
   -3   11    1     -0.49      0.00 
   -4   11    1     -0.37      0.00 
   -5   11    1     -0.65      0.00 
   -6   11    1     -1.13      0.00 
   -7   11    1     -1.46      0.00 
   -8   11    1     -1.33      0.00 
   -9   11    1     -0.73      0.00 
  -10   11    1     -0.02      0.00 
  -11   11    1      0.37      0.00 
   15   10    1      0.78      0.00 
   14   10    1      1.27      0.00 
   13   10    1      1.38      0.00 
   12   10    1      0.91      0.00 
   11   10    1     -0.04      0.00 
   10   10    1     -1.04      0.00 
    9   10    1     -1.50      0.00 
    8   10    1     -1.23      0.00 
    7   10    1     -0.54      0.00 
    6   10    1      0.07      0.00 
    5   10    1      0.27      0.00 
    4   10    1     -0.01      0.00 
    3   10    1     -0.61      0.00 
    2   10    1     -1.14      0.00 
    1   10    1     -1.13      0.00 
    0   10    1     -0.49      0.00 
   -1   10    1      0.28      0.00 
   -2   10    1      0.48      0.00 
   -3   10    1     -0.09      0.00 
   -4   10    1     -0.91      0.00 
   -5   10    1     -1.33      0.00 
   -6   10    1     -1.11      0.00 
   -7   10    1     -0.48      0.00 
   -8   10    1      0.11      0.00 
   -9   10    1      0.35      0.00 
  -10   10    1      0.27      0.00 
  -11   10    1      0.11      0.00 
   17    9    1      0.40      0.00 
   16    9    1      0.79      0.00 
   15    9    1      0.75      0.00 
   14    9    1      0.36      0.00 
   13    9    1      0.16      0.00 
   12    9    1      0.68      0.00 
   11    9    1      1.90      0.00 
   10    9    1      3.20      0.00 
    9    9    1      3.98      0.00 
    8    9    1      3.97      0.00 
    7    9    1      3.14      0.00 
    6    9    1      1.63      0.00 
    5    9    1     -0.13      0.00 
    4    9    1     -1.30      0.00 
    3    9    1     -1.17      0.00 
    2    9    1      0.12      0.00 
    1    9    1      1.55      0.00 
    0    9    1      2.08      0.00 
   -1    9    1      1.49      0.00 
   -2    9    1      0.44      0.00 
   -3    9    1     -0.23      0.00 
   -4    9    1     -0.10      0.00 
   -5    9    1      0.66      0.00 
   -6    9    1      1.49      0.00 
   -7    9    1      1.82      0.00 
   -8    9    1      1.46      0.00 
   -9    9    1      0.67      0.00 
  -10    9    1     -0.03      0.00 
  -11    9    1     -0.34      0.00 
  -12    9    1     -0.29      0.00 
   17    8    1     -0.56      0.00 
   16    8    1     -0.73      0.00 
   15    8    1     -0.82      0.00 
   14    8    1     -0.82      0.00 
   13    8    1     -0.71      0.00 
   12    8    1     -0.47      0.00 
   11    8    1     -0.21      0.00 
   10    8    1     -0.13      0.00 
    9    8    1     -0.34      0.00 
    8    8    1     -0.56      0.00 
    7    8    1     -0.20      0.00 
    6    8    1      1.15      0.00 
    5    8    1      3.14      0.00 
    4    8    1      4.68      0.00 
    3    8    1      4.73      0.00 
    2    8    1      3.14      0.00 
    1    8    1      0.78      0.00 
    0    8    1     -1.07      0.00 
   -1    8    1     -1.44      0.00 
   -2    8    1     -0.28      0.00 
   -3    8    1      1.55      0.00 
   -4    8    1      2.82      0.00 
   -5    8    1      2.81      0.00 
   -6    8    1      1.77      0.00 
   -7    8    1      0.62      0.00 
   -8    8    1      0.03      0.00 
   -9    8    1     -0.04      0.00 
  -10    8    1     -0.04      0.00 
  -11    8    1     -0.24      0.00 
  -12    8    1     -0.57      0.00 
  -13    8    1     -0.77      0.00 
   17    7    1     -0.02      0.00 
   16    7    1     -0.24      0.00 
   15    7    1     -0.09      0.00 
   14    7    1      0.36      0.00 
   13    7    1      0.46      0.00 
   12    7    1     -0.36      0.00 
   11    7    1     -2.05      0.00 
   10    7    1     -3.96      0.00 
    9    7    1     -5.47      0.00 
    8    7    1     -6.26      0.00 
    7    7    1     -6.30      0.00 
    6    7    1     -5.87      0.00 
    5    7    1     -5.52      0.00 
    4    7    1     -5.70      0.00 
    3    7    1     -6.22      0.00 
    2    7    1     -6.14      0.00 
    1    7    1     -4.68      0.00 
    0    7    1     -2.15      0.00 
   -1    7    1      0.06      0.00 
   -2    7    1      0.79      0.00 
   -3    7    1      0.04      0.00 
   -4    7    1     -1.25      0.00 
   -5    7    1     -2.11      0.00 
   -6    7    1     -2.24      0.00 
   -7    7    1     -1.82      0.00 
   -8    7    1     -1.13      0.00 
   -9    7    1     -0.41      0.00 
  -10    7    1      0.15      0.00 
  -11    7    1      0.47      0.00 
  -12    7    1      0.57      0.00 
  -13    7    1      0.52      0.00 
   17    6    1      0.78      0.00 
   16    6    1      0.99      0.00 
   15    6    1      0.67      0.00 
   14    6    1      0.03      0.00 
   13    6    1     -0.40      0.00 
   12    6    1     -0.20      0.00 
   11    6    1      0.71      0.00 
   10    6    1      2.02      0.00 
    9    6    1      3.19      0.00 
    8    6    1      3.31      0.00 
    7    6    1      1.41      0.00 
    6    6    1     -2.66      0.00 
    5    6    1     -7.53      0.00 
    4    6    1    -10.66      0.00 
    3    6    1    -10.17      0.00 
    2    6    1     -6.40      0.00 
    1    6    1     -1.70      0.00 
    0    6    1      1.42      0.00 
   -1    6    1      2.03      0.00 
   -2    6    1      0.91      0.00 
   -3    6    1     -0.53      0.00 
   -4    6    1     -1.21      0.00 
   -5    6    1     -0.86      0.00 
   -6    6    1      0.06      0.00 
   -7    6    1      0.70      0.00 
   -8    6    1      0.47      0.00 
   -9    6    1     -0.42      0.00 
  -10    6    1     -1.22      0.00 
  -11    6    1     -1.36      0.00 
  -12    6    1     -0.85      0.00 
  -13    6    1     -0.15      0.00 
  -14    6    1      0.34      0.00 
   17    5    1      0.13      0.00 
   16    5    1     -0.21      0.00 
   15    5    1     -0.59      0.00 
   14    5    1     -0.78      0.00 
   13    5    1     -0.53      0.00 
   12    5    1      0.13      0.00 
   11    5    1      0.82      0.00 
   10    5    1      1.25      0.00 
    9    5    1      1.69      0.00 
    8    5    1      2.95      0.00 
    7    5    1      6.02      0.00 
    6    5    1     11.39      0.00 
    5    5    1     18.33      0.00 
    4    5    1     24.49      0.00 
    3    5    1     26.65      0.00 
    2    5    1     22.90      0.00 
    1    5    1     14.39      0.00 
    0    5    1      4.96      0.00 
   -1    5    1     -1.44      0.00 
   -2    5    1     -3.29      0.00 
   -3    5    1     -1.94      0.00 
   -4    5    1      0.01      0.00 
   -5    5    1      0.78      0.00 
   -6    5    1      0.18      0.00 
   -7    5    1     -0.89      0.00 
   -8    5    1     -1.52      0.00 
   -9    5    1     -1.34      0.00 
  -10    5    1     -0.55      0.00 
  -11    5    1      0.33      0.00 
  -12    5    1      0.78      0.00 
  -13    5    1      0.64      0.00 
  -14    5    1      0.18      0.00 
  -15    5    1     -0.16      0.00 
   17    4    1     -0.26      0.00 
   16    4    1      0.06      0.00 
   15    4    1      0.76      0.00 
   14    4    1      1.41      0.00 
   13    4    1      1.46      0.00 
   12    4    1      0.69      0.00 
   11    4    1     -0.70      0.00 
   10    4    1     -2.34      0.00 
    9    4    1     -3.65      0.00 
    8    4    1     -3.82      0.00 
    7    4    1     -2.35      0.00 
    6    4    1      0.14      0.00 
    5    4    1      2.11      0.00 
    4    4    1      2.54      0.00 
    3    4    1      1.98      0.00 
    2    4    1      2.03      0.00 
    1    4    1      3.75      0.00 
    0    4    1      6.60      0.00 
   -1    4    1      8.85      0.00 
   -2    4    1      8.95      0.00 
   -3    4    1      6.71      0.00 
   -4    4    1      3.41      0.00 
   -5    4    1      0.84      0.00 
   -6    4    1     -0.03      0.00 
   -7    4    1      0.55      0.00 
   -8    4    1      1.68      0.00 
   -9    4    1      2.52      0.00 
  -10    4    1      2.64      0.00 
  -11    4    1      2.00      0.00 
  -12    4    1      0.94      0.00 
  -13    4    1      0.04      0.00 
  -14    4    1     -0.35      0.00 
  -15    4    1     -0.32      0.00 
   17    3    1     -0.21      0.00 
   16    3    1     -0.32      0.00 
   15    3    1     -0.54      0.00 
   14    3    1     -0.84      0.00 
   13    3    1     -1.10      0.00 
   12    3    1     -1.05      0.00 
   11    3    1     -0.28      0.00 
   10    3    1      1.42      0.00 
    9    3    1      3.23      0.00 
    8    3    1      3.30      0.00 
    7    3    1     -0.24      0.00 
    6    3    1     -7.92      0.00 
    5    3    1    -18.37      0.00 
    4    3    1    -28.63      0.00 
    3    3    1    -35.04      0.00 
    2    3    1    -35.08      0.00 
    1    3    1    -29.25      0.00 
    0    3    1    -21.17      0.00 
   -1    3    1    -14.94      0.00 
   -2    3    1    -11.89      0.00 
   -3    3    1    -10.19      0.00 
   -4    3    1     -7.56      0.00 
   -5    3    1     -3.79      0.00 
   -6    3    1     -0.45      0.00 
   -7    3    1      1.16      0.00 
   -8    3    1      1.17      0.00 
   -9    3    1      0.46      0.00 
  -10    3    1     -0.21      0.00 
  -11    3    1     -0.55      0.00 
  -12    3    1     -0.48      0.00 
  -13    3    1     -0.14      0.00 
  -14    3    1      0.15      0.00 
  -15    3    1      0.18      0.00 
  -16    3    1      0.04      0.00 
   16    2    1     -0.54      0.00 
   15    2    1     -0.97      0.00 
   14    2    1     -1.09      0.00 
   13    2    1     -0.57      0.00 
   12    2    1      0.44      0.00 
   11    2    1      1.37      0.00 
   10    2    1      1.73      0.00 
    9    2    1      1.38      0.00 
    8    2    1      0.61      0.00 
    7    2    1      0.14      0.00 
    6    2    1      1.13      0.00 
    5    2    1      4.20      0.00 
    4    2    1      7.86      0.00 
    3    2    1      8.43      0.00 
    2    2    1      2.96      0.00 
    1    2    1     -7.37      0.00 
    0    2    1    -17.14      0.00 
   -1    2    1    -20.78      0.00 
   -2    2    1    -16.97      0.00 
   -3    2    1     -9.18      0.00 
   -4    2    1     -2.32      0.00 
   -5    2    1      0.81      0.00 
   -6    2    1      0.50      0.00 
   -7    2    1     -1.32      0.00 
   -8    2    1     -2.86      0.00 
   -9    2    1     -3.30      0.00 
  -10    2    1     -2.75      0.00 
  -11    2    1     -1.75      0.00 
  -12    2    1     -0.86      0.00 
  -13    2    1     -0.30      0.00 
  -14    2    1      0.02      0.00 
  -15    2    1      0.26      0.00 
  -16    2    1      0.41      0.00 
   16    1    1      0.10      0.00 
   15    1    1      0.78      0.00 
   14    1    1      1.57      0.00 
   13    1    1      1.83      0.00 
   12    1    1      1.17      0.00 
   11    1    1     -0.38      0.00 
   10    1    1     -2.45      0.00 
    9    1    1     -4.19      0.00 
    8    1    1     -4.26      0.00 
    7    1    1     -1.69      0.00 
    6    1    1      3.03      0.00 
    5    1    1      8.29      0.00 
    4    1    1     13.05      0.00 
    3    1    1     17.87      0.00 
    2    1    1     23.86      0.00 
    1    1    1     30.77      0.00 
    0    1    1     36.43      0.00 
   -1    1    1     38.12      0.00 
   -2    1    1     34.43      0.00 
   -3    1    1     26.24      0.00 
   -4    1    1     16.22      0.00 
   -5    1    1      7.56      0.00 
   -6    1    1      2.35      0.00 
   -7    1    1      0.76      0.00 
   -8    1    1      1.37      0.00 
   -9    1    1      2.39      0.00 
  -10    1    1      2.60      0.00 
  -11    1    1      1.83      0.00 
  -12    1    1      0.62      0.00 
  -13    1    1     -0.34      0.00 
  -14    1    1     -0.74      0.00 
  -15    1    1     -0.71      0.00 
  -16    1    1     -0.51      0.00 
   16    0    1      0.80      0.00 
   15    0    1      0.61      0.00 
   14    0    1     -0.17      0.00 
   13    0    1     -1.18      0.00 
   12    0    1     -1.75      0.00 
   11    0    1     -1.43      0.00 
   10    0    1     -0.35      0.00 
    9    0    1      0.74      0.00 
    8    0    1      0.88      0.00 
    7    0    1     -0.72      0.00 
    6    0    1     -4.25      0.00 
    5    0    1     -8.53      0.00 
    4    0    1    -10.37      0.00 
    3    0    1     -5.65      0.00 
    2    0    1      7.01      0.00 
    1    0    1     23.19      0.00 
    0    0    1     34.53      0.00 
   -1    0    1     35.00      0.00 
   -2    0    1     25.86      0.00 
   -3    0    1     13.89      0.00 
   -4    0    1      5.32      0.00 
   -5    0    1      1.80      0.00 
   -6    0    1      1.38      0.00 
   -7    0    1      1.60      0.00 
   -8    0    1      1.28      0.00 
   -9    0    1      0.33      0.00 
  -10    0    1     -0.77      0.00 
  -11    0    1     -1.34      0.00 
  -12    0    1     -1.09      0.00 
  -13    0    1     -0.39      0.00 
  -14    0    1      0.12      0.00 
  -15    0    1      0.20      0.00 
  -16    0    1      0.08      0.00 
   16   -1    1     -0.54      0.00 
   15   -1    1     -0.79      0.00 
   14   -1    1     -0.83      0.00 
   13   -1    1     -0.43      0.00 
   12   -1    1      0.46      0.00 
   11   -1    1      1.52      0.00 
   10   -1    1      2.36      0.00 
    9   -1    1      2.82      0.00 
    8   -1    1      2.95      0.00 
    7   -1    1      3.04      0.00 
    6   -1    1      3.62      0.00 
    5   -1    1      4.77      0.00 
    4   -1    1      4.39      0.00 
    3   -1    1     -1.99      0.00 
    2   -1    1    -17.82      0.00 
    1   -1    1    -40.69      0.00 
    0   -1    1    -61.62      0.00 
   -1   -1    1    -70.72      0.00 
   -2   -1    1    -64.42      0.00 
   -3   -1    1    -47.43      0.00 
   -4   -1    1    -28.40      0.00 
   -5   -1    1    -13.94      0.00 
   -6   -1    1     -5.99      0.00 
   -7   -1    1     -3.00      0.00 
   -8   -1    1     -2.31      0.00 
   -9   -1    1     -1.88      0.00 
  -10   -1    1     -0.91      0.00 
  -11   -1    1      0.45      0.00 
  -12   -1    1      1.57      0.00 
  -13   -1    1      1.96      0.00 
  -14   -1    1      1.58      0.00 
  -15   -1    1      0.83      0.00 
   15   -2    1      0.16      0.00 
   14   -2    1      0.50      0.00 
   13   -2    1      0.73      0.00 
   12   -2    1      0.30      0.00 
   11   -2    1     -0.96      0.00 
   10   -2    1     -2.55      0.00 
    9   -2    1     -3.60      0.00 
    8   -2    1     -3.48      0.00 
    7   -2    1     -2.10      0.00 
    6   -2    1      0.05      0.00 
    5   -2    1      2.02      0.00 
    4   -2    1      2.78      0.00 
    3   -2    1      2.17      0.00 
    2   -2    1      1.47      0.00 
    1   -2    1      2.66      0.00 
    0   -2    1      6.45      0.00 
   -1   -2    1     10.96      0.00 
   -2   -2    1     12.72      0.00 
   -3   -2    1      9.62      0.00 
   -4   -2    1      2.95      0.00 
   -5   -2    1     -3.55      0.00 
   -6   -2    1     -6.79      0.00 
   -7   -2    1     -6.32      0.00 
   -8   -2    1     -3.79      0.00 
   -9   -2    1     -1.15      0.00 
  -10   -2    1      0.47      0.00 
  -11   -2    1      0.73      0.00 
  -12   -2    1     -0.03      0.00 
  -13   -2    1     -0.95      0.00 
  -14   -2    1     -1.21      0.00 
  -15   -2    1     -0.76      0.00 
  -16   -2    1     -0.20      0.00 
   15   -3    1      0.44      0.00 
   14   -3    1      0.52      0.00 
   13   -3    1      0.38      0.00 
   12   -3    1      0.36      0.00 
   11   -3    1      0.73      0.00 
   10   -3    1      1.42      0.00 
    9   -3    1      2.14      0.00 
    8   -3    1      2.55      0.00 
    7   -3    1      2.07      0.00 
    6   -3    1      0.01      0.00 
    5   -3    1     -3.43      0.00 
    4   -3    1     -6.22      0.00 
    3   -3    1     -5.18      0.00 
    2   -3    1      1.34      0.00 
    1   -3    1     11.30      0.00 
    0   -3    1     19.99      0.00 
   -1   -3    1     23.77      0.00 
   -2   -3    1     22.66      0.00 
   -3   -3    1     19.53      0.00 
   -4   -3    1     16.96      0.00 
   -5   -3    1     15.48      0.00 
   -6   -3    1     14.11      0.00 
   -7   -3    1     11.95      0.00 
   -8   -3    1      8.83      0.00 
   -9   -3    1      5.22      0.00 
  -10   -3    1      1.89      0.00 
  -11   -3    1     -0.38      0.00 
  -12   -3    1     -1.31      0.00 
  -13   -3    1     -1.28      0.00 
  -14   -3    1     -0.88      0.00 
  -15   -3    1     -0.48      0.00 
  -16   -3    1     -0.11      0.00 
   15   -4    1     -0.51      0.00 
   14   -4    1     -0.80      0.00 
   13   -4    1     -0.72      0.00 
   12   -4    1     -0.22      0.00 
   11   -4    1      0.50      0.00 
   10   -4    1      1.06      0.00 
    9   -4    1      1.11      0.00 
    8   -4    1      0.48      0.00 
    7   -4    1     -0.48      0.00 
    6   -4    1     -0.91      0.00 
    5   -4    1      0.07      0.00 
    4   -4    1      2.23      0.00 
    3   -4    1      3.86      0.00 
    2   -4    1      2.84      0.00 
    1   -4    1     -1.51      0.00 
    0   -4    1     -7.48      0.00 
   -1   -4    1    -11.97      0.00 
   -2   -4    1    -12.57      0.00 
   -3   -4    1     -9.22      0.00 
   -4   -4    1     -4.06      0.00 
   -5   -4    1      0.08      0.00 
   -6   -4    1      1.64      0.00 
   -7   -4    1      1.06      0.00 
   -8   -4    1     -0.04      0.00 
   -9   -4    1     -0.44      0.00 
  -10   -4    1      0.02      0.00 
  -11   -4    1      0.87      0.00 
  -12   -4    1      1.64      0.00 
  -13   -4    1      1.98      0.00 
  -14   -4    1      1.68      0.00 
  -15   -4    1      0.86      0.00 
  -16   -4    1      0.07      0.00 
   14   -5    1      0.24      0.00 
   13   -5    1      0.41      0.00 
   12   -5    1      0.05      0.00 
   11   -5    1     -0.98      0.00 
   10   -5    1     -2.20      0.00 
    9   -5    1     -3.00      0.00 
    8   -5    1     -3.04      0.00 
    7   -5    1     -2.34      0.00 
    6   -5    1     -1.17      0.00 
    5   -5    1     -0.20      0.00 
    4   -5    1     -0.43      0.00 
    3   -5    1     -2.33      0.00 
    2   -5    1     -4.87      0.00 
    1   -5    1     -5.85      0.00 
    0   -5    1     -3.76      0.00 
   -1   -5    1      0.54      0.00 
   -2   -5    1      4.04      0.00 
   -3   -5    1      3.99      0.00 
   -4   -5    1      0.20      0.00 
   -5   -5    1     -4.92      0.00 
   -6   -5    1     -8.48      0.00 
   -7   -5    1     -9.21      0.00 
   -8   -5    1     -7.73      0.00 
   -9   -5    1     -5.35      0.00 
  -10   -5    1     -3.11      0.00 
  -11   -5    1     -1.63      0.00 
  -12   -5    1     -1.11      0.00 
  -13   -5    1     -1.19      0.00 
  -14   -5    1     -1.19      0.00 
  -15   -5    1     -0.71      0.00 
  -16   -5    1     -0.07      0.00 
  -17   -5    1      0.24      0.00 
   14   -6    1      0.21      0.00 
   13   -6    1     -0.11      0.00 
   12   -6    1     -0.51      0.00 
   11   -6    1     -0.55      0.00 
   10   -6    1     -0.05      0.00 
    9   -6    1      0.77      0.00 
    8   -6    1      1.52      0.00 
    7   -6    1      1.79      0.00 
    6   -6    1      1.37      0.00 
    5   -6    1      0.52      0.00 
    4   -6    1      0.06      0.00 
    3   -6    1      0.84      0.00 
    2   -6    1      2.90      0.00 
    1   -6    1      5.03      0.00 
    0   -6    1      5.49      0.00 
   -1   -6    1      3.40      0.00 
   -2   -6    1     -0.29      0.00 
   -3   -6    1     -3.35      0.00 
   -4   -6    1     -3.96      0.00 
   -5   -6    1     -2.03      0.00 
   -6   -6    1      0.95      0.00 
   -7   -6    1      3.19      0.00 
   -8   -6    1      3.75      0.00 
   -9   -6    1      2.75      0.00 
  -10   -6    1      0.94      0.00 
  -11   -6    1     -0.80      0.00 
  -12   -6    1     -1.72      0.00 
  -13   -6    1     -1.55      0.00 
  -14   -6    1     -0.64      0.00 
  -15   -6    1      0.30      0.00 
  -16   -6    1      0.71      0.00 
  -17   -6    1      0.57      0.00 
   14   -7    1     -0.09      0.00 
   13   -7    1     -0.06      0.00 
   12   -7    1      0.29      0.00 
   11   -7    1      0.91      0.00 
   10   -7    1      1.41      0.00 
    9   -7    1      1.40      0.00 
    8   -7    1      0.88      0.00 
    7   -7    1      0.18      0.00 
    6   -7    1     -0.27      0.00 
    5   -7    1     -0.23      0.00 
    4   -7    1      0.43      0.00 
    3   -7    1      1.53      0.00 
    2   -7    1      2.30      0.00 
    1   -7    1      1.81      0.00 
    0   -7    1     -0.05      0.00 
   -1   -7    1     -2.07      0.00 
   -2   -7    1     -2.67      0.00 
   -3   -7    1     -1.47      0.00 
   -4   -7    1      0.40      0.00 
   -5   -7    1      1.50      0.00 
   -6   -7    1      1.42      0.00 
   -7   -7    1      0.76      0.00 
   -8   -7    1      0.33      0.00 
   -9   -7    1      0.46      0.00 
  -10   -7    1      1.10      0.00 
  -11   -7    1      1.97      0.00 
  -12   -7    1      2.62      0.00 
  -13   -7    1      2.60      0.00 
  -14   -7    1      1.81      0.00 
  -15   -7    1      0.67      0.00 
  -16   -7    1     -0.19      0.00 
  -17   -7    1     -0.45      0.00 
   13   -8    1     -0.12      0.00 
   12   -8    1     -0.23      0.00 
   11   -8    1     -0.39      0.00 
   10   -8    1     -0.63      0.00 
    9   -8    1     -0.82      0.00 
    8   -8    1     -0.74      0.00 
    7   -8    1     -0.22      0.00 
    6   -8    1      0.65      0.00 
    5   -8    1      1.44      0.00 
    4   -8    1      1.46      0.00 
    3   -8    1      0.32      0.00 
    2   -8    1     -1.53      0.00 
    1   -8    1     -2.86      0.00 
    0   -8    1     -2.47      0.00 
   -1   -8    1     -0.30      0.00 
   -2   -8    1      2.38      0.00 
   -3   -8    1      3.85      0.00 
   -4   -8    1      3.28      0.00 
   -5   -8    1      1.22      0.00 
   -6   -8    1     -0.97      0.00 
   -7   -8    1     -2.22      0.00 
   -8   -8    1     -2.34      0.00 
   -9   -8    1     -1.81      0.00 
  -10   -8    1     -1.17      0.00 
  -11   -8    1     -0.71      0.00 
  -12   -8    1     -0.43      0.00 
  -13   -8    1     -0.29      0.00 
  -14   -8    1     -0.27      0.00 
  -15   -8    1     -0.27      0.00 
  -16   -8    1     -0.25      0.00 
  -17   -8    1     -0.20      0.00 
   12   -9    1      0.29      0.00 
   11   -9    1      0.04      0.00 
   10   -9    1     -0.21      0.00 
    9   -9    1     -0.15      0.00 
    8   -9    1      0.13      0.00 
    7   -9    1      0.18      0.00 
    6   -9    1     -0.30      0.00 
    5   -9    1     -1.14      0.00 
    4   -9    1     -1.85      0.00 
    3   -9    1     -2.03      0.00 
    2   -9    1     -1.59      0.00 
    1   -9    1     -0.80      0.00 
    0   -9    1     -0.22      0.00 
   -1   -9    1     -0.49      0.00 
   -2   -9    1     -1.65      0.00 
   -3   -9    1     -2.83      0.00 
   -4   -9    1     -2.83      0.00 
   -5   -9    1     -1.29      0.00 
   -6   -9    1      0.91      0.00 
   -7   -9    1      2.53      0.00 
   -8   -9    1      3.03      0.00 
   -9   -9    1      2.60      0.00 
  -10   -9    1      1.63      0.00 
  -11   -9    1      0.37      0.00 
  -12   -9    1     -0.74      0.00 
  -13   -9    1     -1.14      0.00 
  -14   -9    1     -0.68      0.00 
  -15   -9    1      0.09      0.00 
  -16   -9    1      0.47      0.00 
  -17   -9    1      0.32      0.00 
   12  -10    1     -0.19      0.00 
   11  -10    1      0.16      0.00 
   10  -10    1      0.53      0.00 
    9  -10    1      0.64      0.00 
    8  -10    1      0.35      0.00 
    7  -10    1     -0.18      0.00 
    6  -10    1     -0.63      0.00 
    5  -10    1     -0.66      0.00 
    4  -10    1     -0.20      0.00 
    3  -10    1      0.52      0.00 
    2  -10    1      1.03      0.00 
    1  -10    1      0.94      0.00 
    0  -10    1      0.32      0.00 
   -1  -10    1     -0.30      0.00 
   -2  -10    1     -0.43      0.00 
   -3  -10    1     -0.11      0.00 
   -4  -10    1      0.21      0.00 
   -5  -10    1      0.23      0.00 
   -6  -10    1     -0.01      0.00 
   -7  -10    1     -0.34      0.00 
   -8  -10    1     -0.66      0.00 
   -9  -10    1     -0.83      0.00 
  -10  -10    1     -0.62      0.00 
  -11  -10    1      0.03      0.00 
  -12  -10    1      0.81      0.00 
  -13  -10    1      1.17      0.00 
  -14  -10    1      0.85      0.00 
  -15  -10    1      0.15      0.00 
  -16  -10    1     -0.38      0.00 
  -17  -10    1     -0.45      0.00 
    9  -11    1     -0.29      0.00 
    8  -11    1     -0.46      0.00 
    7  -11    1     -0.36      0.00 
    6  -11    1      0.07      0.00 
    5  -11    1      0.60      0.00 
    4  -11    1      0.84      0.00 
    3  -11    1      0.64      0.00 
    2  -11    1      0.19      0.00 
    1  -11    1     -0.08      0.00 
    0  -11    1      0.14      0.00 
   -1  -11    1      0.85      0.00 
   -2  -11    1      1.75      0.00 
   -3  -11    1      2.34      0.00 
   -4  -11    1      2.20      0.00 
   -5  -11    1      1.24      0.00 
   -6  -11    1     -0.05      0.00 
   -7  -11    1     -0.95      0.00 
   -8  -11    1     -1.11      0.00 
   -9  -11    1     -0.82      0.00 
  -10  -11    1     -0.55      0.00 
  -11  -11    1     -0.50      0.00 
  -12  -11    1     -0.58      0.00 
  -13  -11    1     -0.70      0.00 
  -14  -11    1     -0.81      0.00 
  -15  -11    1     -0.76      0.00 
  -16  -11    1     -0.42      0.00 
    9  -12    1      0.21      0.00 
    8  -12    1      0.36      0.00 
    7  -12    1      0.42      0.00 
    6  -12    1      0.29      0.00 
    5  -12    1     -0.08      0.00 
    4  -12    1     -0.55      0.00 
    3  -12    1     -0.83      0.00 
    2  -12    1     -0.65      0.00 
    1  -12    1     -0.06      0.00 
    0  -12    1      0.53      0.00 
   -1  -12    1      0.64      0.00 
   -2  -12    1      0.15      0.00 
   -3  -12    1     -0.61      0.00 
   -4  -12    1     -1.06      0.00 
   -5  -12    1     -0.85      0.00 
   -6  -12    1     -0.10      0.00 
   -7  -12    1      0.69      0.00 
   -8  -12    1      1.03      0.00 
   -9  -12    1      0.80      0.00 
  -10  -12    1      0.22      0.00 
  -11  -12    1     -0.37      0.00 
  -12  -12    1     -0.63      0.00 
  -13  -12    1     -0.47      0.00 
  -14  -12    1     -0.09      0.00 
  -15  -12    1      0.16      0.00 
  -16  -12    1      0.10      0.00 
    8  -13    1     -0.33      0.00 
    7  -13    1     -0.25      0.00 
    6  -13    1     -0.18      0.00 
    5  -13    1     -0.03      0.00 
    4  -13    1      0.21      0.00 
    3  -13    1      0.41      0.00 
    2  -13    1      0.37      0.00 
    1  -13    1     -0.02      0.00 
    0  -13    1     -0.69      0.00 
   -1  -13    1     -1.36      0.00 
   -2  -13    1     -1.68      0.00 
   -3  -13    1     -1.45      0.00 
   -4  -13    1     -0.83      0.00 
   -5  -13    1     -0.26      0.00 
   -6  -13    1     -0.06      0.00 
   -7  -13    1     -0.20      0.00 
   -8  -13    1     -0.39      0.00 
   -9  -13    1     -0.37      0.00 
  -10  -13    1     -0.08      0.00 
  -11  -13    1      0.36      0.00 
  -12  -13    1      0.73      0.00 
  -13  -13    1      0.86      0.00 
  -14  -13    1      0.74      0.00 
  -15  -13    1      0.48      0.00 
  -16  -13    1      0.20      0.00 
    8  -14    1     -0.15      0.00 
    7  -14    1     -0.22      0.00 
    6  -14    1     -0.06      0.00 
    5  -14    1      0.25      0.00 
    4  -14    1      0.53      0.00 
    3  -14    1      0.62      0.00 
    2  -14    1      0.42      0.00 
    1  -14    1      0.04      0.00 
    0  -14    1     -0.16      0.00 
   -1  -14    1      0.08      0.00 
   -2  -14    1      0.62      0.00 
   -3  -14    1      1.00      0.00 
   -4  -14    1      0.93      0.00 
   -5  -14    1      0.53      0.00 
   -6  -14    1      0.10      0.00 
   -7  -14    1     -0.20      0.00 
   -8  -14    1     -0.40      0.00 
   -9  -14    1     -0.45      0.00 
  -10  -14    1     -0.27      0.00 
  -11  -14    1      0.10      0.00 
  -12  -14    1      0.36      0.00 
  -13  -14    1      0.29      0.00 
  -14  -14    1     -0.02      0.00 
  -15  -14    1     -0.21      0.00 
    7  -15    1      0.49      0.00 
    6  -15    1      0.39      0.00 
    5  -15    1      0.13      0.00 
    4  -15    1     -0.11      0.00 
    3  -15    1     -0.13      0.00 
    2  -15    1      0.11      0.00 
    1  -15    1      0.42      0.00 
    0  -15    1      0.66      0.00 
   -1  -15    1      0.81      0.00 
   -2  -15    1      0.86      0.00 
   -3  -15    1      0.70      0.00 
   -4  -15    1      0.31      0.00 
   -5  -15    1     -0.12      0.00 
   -6  -15    1     -0.25      0.00 
   -7  -15    1      0.03      0.00 
   -8  -15    1      0.48      0.00 
   -9  -15    1      0.73      0.00 
  -10  -15    1      0.58      0.00 
  -11  -15    1      0.14      0.00 
  -12  -15    1     -0.32      0.00 
  -13  -15    1     -0.58      0.00 
  -14  -15    1     -0.57      0.00 
    6  -16    1     -0.21      0.00 
    5  -16    1     -0.18      0.00 
    4  -16    1     -0.24      0.00 
    3  -16    1     -0.39      0.00 
    2  -16    1     -0.46      0.00 
    1  -16    1     -0.31      0.00 
    0  -16    1     -0.07      0.00 
   -1  -16    1     -0.05      0.00 
   -2  -16    1     -0.31      0.00 
   -3  -16    1     -0.53      0.00 
   -4  -16    1     -0.45      0.00 
   -5  -16    1     -0.16      0.00 
   -6  -16    1      0.06      0.00 
   -7  -16    1      0.09      0.00 
   -8  -16    1      0.06      0.00 
   -9  -16    1      0.11      0.00 
  -10  -16    1      0.22      0.00 
  -11  -16    1      0.33      0.00 
  -12  -16    1      0.36      0.00 
  -13  -16    1      0.30      0.00 
    4  -17    1     -0.02      0.00 
    3  -17    1     -0.02      0.00 
    2  -17    1     -0.16      0.00 
    1  -17    1     -0.34      0.00 
    0  -17    1     -0.31      0.00 
   -1  -17    1     -0.01      0.00 
   -2  -17    1      0.30      0.00 
   -3  -17    1      0.33      0.00 
   -4  -17    1      0.15      0.00 
   -5  -17    1      0.00      0.00 
   -6  -17    1     -0.02      0.00 
   -7  -17    1     -0.05      0.00 
   -8  -17    1     -0.18      0.00 
   -9  -17    1     -0.30      0.00 
  -10  -17    1     -0.29      0.00 
  -11  -17    1     -0.20      0.00 
  -12  -17    1     -0.11      0.00 
    3  -18    1     -0.16      0.00 
    2  -18    1      0.03      0.00 
    1  -18    1      0.34      0.00 
    0  -18    1      0.50      0.00 
   -1  -18    1      0.40      0.00 
   -2  -18    1      0.20      0.00 
   -3  -18    1      0.07      0.00 
   -4  -18    1      0.03      0.00 
   -5  -18    1      0.00      0.00 
   -6  -18    1     -0.03      0.00 
   -7  -18    1     -0.04      0.00 
   -8  -18    1     -0.04      0.00 
   -9  -18    1     -0.06      0.00 
  -10  -18    1     -0.11      0.00 
  -11  -18    1     -0.14      0.00 
    0  -19    1     -0.37      0.00 
   -1  -19    1     -0.77      0.00 
   -2  -19    1     -0.89      0.00 
   -3  -19    1     -0.68      0.00 
   -4  -19    1     -0.35      0.00 
   -5  -19    1     -0.13      0.00 
   -6  -19    1     -0.03      0.00 
   -7  -19    1      0.07      0.00 
   -8  -19    1      0.19      0.00 
    7   20    0     -0.17      0.00 
    6   20    0     -0.24      0.00 
    5   20    0     -0.35      0.00 
    4   20    0     -0.43      0.00 
    3   20    0     -0.35      0.00 
    9   19    0      0.10      0.00 
    8   19    0      0.07      0.00 
    7   19    0      0.01      0.00 
    6   19    0      0.08      0.00 
    5   19    0      0.20      0.00 
    4   19    0      0.16      0.00 
    3   19    0     -0.15      0.00 
    2   19    0     -0.48      0.00 
    1   19    0     -0.53      0.00 
   11   18    0     -0.10      0.00 
   10   18    0     -0.14      0.00 
    9   18    0     -0.14      0.00 
    8   18    0     -0.13      0.00 
    7   18    0     -0.21      0.00 
    6   18    0     -0.33      0.00 
    5   18    0     -0.34      0.00 
    4   18    0     -0.13      0.00 
    3   18    0      0.19      0.00 
    2   18    0      0.46      0.00 
    1   18    0      0.54      0.00 
   -3   18    0     -0.34      0.00 
   13   17    0      0.33      0.00 
   12   17    0      0.41      0.00 
   11   17    0      0.32      0.00 
   10   17    0      0.11      0.00 
    9   17    0     -0.03      0.00 
    8   17    0      0.09      0.00 
    7   17    0      0.34      0.00 
    6   17    0      0.39      0.00 
    5   17    0      0.20      0.00 
    4   17    0      0.04      0.00 
    3   17    0      0.13      0.00 
    2   17    0      0.30      0.00 
    1   17    0      0.22      0.00 
   -1   17    0     -0.35      0.00 
   -2   17    0     -0.37      0.00 
   -3   17    0     -0.25      0.00 
   -4   17    0     -0.15      0.00 
   -5   17    0     -0.13      0.00 
   14   16    0     -0.09      0.00 
   13   16    0     -0.06      0.00 
   12   16    0     -0.03      0.00 
   11   16    0      0.03      0.00 
   10   16    0      0.12      0.00 
    9   16    0      0.11      0.00 
    8   16    0     -0.02      0.00 
    7   16    0     -0.07      0.00 
    6   16    0      0.10      0.00 
    5   16    0      0.38      0.00 
    4   16    0      0.44      0.00 
    3   16    0      0.24      0.00 
    2   16    0      0.02      0.00 
    1   16    0      0.03      0.00 
    0   16    0      0.16      0.00 
   -1   16    0      0.19      0.00 
   -2   16    0      0.02      0.00 
   -3   16    0     -0.21      0.00 
   -4   16    0     -0.32      0.00 
   -5   16    0     -0.23      0.00 
   -6   16    0      0.04      0.00 
   15   15    0     -0.18      0.00 
   14   15    0     -0.38      0.00 
   13   15    0     -0.43      0.00 
   12   15    0     -0.27      0.00 
   11   15    0      0.03      0.00 
   10   15    0      0.30      0.00 
    9   15    0      0.38      0.00 
    8   15    0      0.14      0.00 
    7   15    0     -0.38      0.00 
    6   15    0     -0.85      0.00 
    5   15    0     -0.87      0.00 
    4   15    0     -0.39      0.00 
    3   15    0      0.21      0.00 
    2   15    0      0.50      0.00 
    1   15    0      0.44      0.00 
    0   15    0      0.31      0.00 
   -1   15    0      0.33      0.00 
   -2   15    0      0.48      0.00 
   -3   15    0      0.66      0.00 
   -4   15    0      0.75      0.00 
   -5   15    0      0.67      0.00 
   -6   15    0      0.41      0.00 
   -7   15    0      0.08      0.00 
   14   14    0      0.04      0.00 
   13   14    0      0.38      0.00 
   12   14    0      0.48      0.00 
   11   14    0      0.28      0.00 
   10   14    0     -0.04      0.00 
    9   14    0     -0.24      0.00 
    8   14    0     -0.19      0.00 
    7   14    0      0.05      0.00 
    6   14    0      0.37      0.00 
    5   14    0      0.60      0.00 
    4   14    0      0.56      0.00 
    3   14    0      0.18      0.00 
    2   14    0     -0.39      0.00 
    1   14    0     -0.85      0.00 
    0   14    0     -0.96      0.00 
   -1   14    0     -0.76      0.00 
   -2   14    0     -0.44      0.00 
   -3   14    0     -0.18      0.00 
   -4   14    0     -0.04      0.00 
   -5   14    0     -0.06      0.00 
   -6   14    0     -0.25      0.00 
   -7   14    0     -0.48      0.00 
   -8   14    0     -0.52      0.00 
   14   13    0      0.72      0.00 
   13   13    0      0.75      0.00 
   12   13    0      0.39      0.00 
   11   13    0     -0.14      0.00 
   10   13    0     -0.46      0.00 
    9   13    0     -0.36      0.00 
    8   13    0      0.04      0.00 
    7   13    0      0.45      0.00 
    6   13    0      0.57      0.00 
    5   13    0      0.26      0.00 
    4   13    0     -0.35      0.00 
    3   13    0     -0.86      0.00 
    2   13    0     -0.90      0.00 
    1   13    0     -0.45      0.00 
    0   13    0      0.14      0.00 
   -1   13    0      0.46      0.00 
   -2   13    0      0.37      0.00 
   -3   13    0     -0.03      0.00 
   -4   13    0     -0.49      0.00 
   -5   13    0     -0.73      0.00 
   -6   13    0     -0.57      0.00 
   -7   13    0     -0.14      0.00 
   -8   13    0      0.24      0.00 
   -9   13    0      0.33      0.00 
   14   12    0     -0.15      0.00 
   13   12    0     -0.68      0.00 
   12   12    0     -0.83      0.00 
   11   12    0     -0.48      0.00 
   10   12    0      0.05      0.00 
    9   12    0      0.38      0.00 
    8   12    0      0.42      0.00 
    7   12    0      0.29      0.00 
    6   12    0      0.08      0.00 
    5   12    0     -0.10      0.00 
    4   12    0     -0.05      0.00 
    3   12    0      0.33      0.00 
    2   12    0      0.90      0.00 
    1   12    0      1.25      0.00 
    0   12    0      1.13      0.00 
   -1   12    0      0.64      0.00 
   -2   12    0      0.20      0.00 
   -3   12    0      0.13      0.00 
   -4   12    0      0.44      0.00 
   -5   12    0      0.84      0.00 
   -6   12    0      1.03      0.00 
   -7   12    0      0.89      0.00 
   -8   12    0      0.51      0.00 
   -9   12    0      0.08      0.00 
  -10   12    0     -0.17      0.00 
   13   11    0     -0.41      0.00 
   12   11    0     -0.17      0.00 
   11   11    0      0.04      0.00 
   10   11    0      0.09      0.00 
    9   11    0     -0.26      0.00 
    8   11    0     -0.99      0.00 
    7   11    0     -1.56      0.00 
    6   11    0     -1.32      0.00 
    5   11    0     -0.22      0.00 
    4   11    0      1.03      0.00 
    3   11    0      1.62      0.00 
    2   11    0      1.26      0.00 
    1   11    0      0.30      0.00 
    0   11    0     -0.58      0.00 
   -1   11    0     -0.85      0.00 
   -2   11    0     -0.44      0.00 
   -3   11    0      0.25      0.00 
   -4   11    0      0.69      0.00 
   -5   11    0      0.60      0.00 
   -6   11    0      0.15      0.00 
   -7   11    0     -0.28      0.00 
   -8   11    0     -0.40      0.00 
   -9   11    0     -0.24      0.00 
  -10   11    0     -0.06      0.00 
  -11   11    0     -0.10      0.00 
   16   10    0     -0.61      0.00 
   15   10    0     -0.32      0.00 
   14   10    0      0.09      0.00 
   13   10    0      0.35      0.00 
   12   10    0      0.20      0.00 
   11   10    0     -0.30      0.00 
   10   10    0     -0.71      0.00 
    9   10    0     -0.53      0.00 
    8   10    0      0.23      0.00 
    7   10    0      0.97      0.00 
    6   10    0      1.07      0.00 
    5   10    0      0.38      0.00 
    4   10    0     -0.79      0.00 
    3   10    0     -1.93      0.00 
    2   10    0     -2.52      0.00 
    1   10    0     -2.26      0.00 
    0   10    0     -1.27      0.00 
   -1   10    0     -0.23      0.00 
   -2   10    0      0.14      0.00 
   -3   10    0     -0.35      0.00 
   -4   10    0     -1.23      0.00 
   -5   10    0     -1.81      0.00 
   -6   10    0     -1.76      0.00 
   -7   10    0     -1.18      0.00 
   -8   10    0     -0.40      0.00 
   -9   10    0      0.23      0.00 
  -10   10    0      0.54      0.00 
  -11   10    0      0.53      0.00 
   17    9    0      0.63      0.00 
   16    9    0      1.04      0.00 
   15    9    0      0.91      0.00 
   14    9    0      0.19      0.00 
   13    9    0     -0.61      0.00 
   12    9    0     -0.86      0.00 
   11    9    0     -0.45      0.00 
   10    9    0      0.22      0.00 
    9    9    0      0.75      0.00 
    8    9    0      0.96      0.00 
    7    9    0      0.78      0.00 
    6    9    0      0.17      0.00 
    5    9    0     -0.63      0.00 
    4    9    0     -1.05      0.00 
    3    9    0     -0.68      0.00 
    2    9    0      0.20      0.00 
    1    9    0      0.83      0.00 
    0    9    0      0.64      0.00 
   -1    9    0     -0.25      0.00 
   -2    9    0     -1.24      0.00 
   -3    9    0     -1.76      0.00 
   -4    9    0     -1.55      0.00 
   -5    9    0     -0.76      0.00 
   -6    9    0      0.12      0.00 
   -7    9    0      0.53      0.00 
   -8    9    0      0.31      0.00 
   -9    9    0     -0.17      0.00 
  -10    9    0     -0.38      0.00 
  -11    9    0     -0.15      0.00 
  -12    9    0      0.29      0.00 
   17    8    0     -0.14      0.00 
   16    8    0     -0.05      0.00 
   15    8    0      0.17      0.00 
   14    8    0      0.67      0.00 
   13    8    0      1.44      0.00 
   12    8    0      2.21      0.00 
   11    8    0      2.62      0.00 
   10    8    0      2.39      0.00 
    9    8    0      1.47      0.00 
    8    8    0      0.18      0.00 
    7    8    0     -0.78      0.00 
    6    8    0     -0.66      0.00 
    5    8    0      0.67      0.00 
    4    8    0      2.47      0.00 
    3    8    0      3.54      0.00 
    2    8    0      3.18      0.00 
    1    8    0      1.75      0.00 
    0    8    0      0.37      0.00 
   -1    8    0      0.02      0.00 
   -2    8    0      0.85      0.00 
   -3    8    0      2.16      0.00 
   -4    8    0      3.01      0.00 
   -5    8    0      2.90      0.00 
   -6    8    0      2.07      0.00 
   -7    8    0      1.11      0.00 
   -8    8    0      0.46      0.00 
   -9    8    0      0.13      0.00 
  -10    8    0     -0.09      0.00 
  -11    8    0     -0.34      0.00 
  -12    8    0     -0.55      0.00 
   17    7    0     -0.58      0.00 
   16    7    0     -0.73      0.00 
   15    7    0     -0.44      0.00 
   14    7    0     -0.01      0.00 
   13    7    0      0.13      0.00 
   12    7    0     -0.15      0.00 
   11    7    0     -0.55      0.00 
   10    7    0     -0.63      0.00 
    9    7    0     -0.08      0.00 
    8    7    0      1.24      0.00 
    7    7    0      3.13      0.00 
    6    7    0      4.80      0.00 
    5    7    0      5.01      0.00 
    4    7    0      3.00      0.00 
    3    7    0     -0.41      0.00 
    2    7    0     -3.12      0.00 
    1    7    0     -3.48      0.00 
    0    7    0     -1.73      0.00 
   -1    7    0      0.40      0.00 
   -2    7    0      1.38      0.00 
   -3    7    0      1.04      0.00 
   -4    7    0      0.13      0.00 
   -5    7    0     -0.61      0.00 
   -6    7    0     -0.82      0.00 
   -7    7    0     -0.44      0.00 
   -8    7    0      0.37      0.00 
   -9    7    0      1.12      0.00 
  -10    7    0      1.33      0.00 
  -11    7    0      0.93      0.00 
  -12    7    0      0.29      0.00 
  -13    7    0     -0.17      0.00 
   17    6    0      0.88      0.00 
   16    6    0      1.02      0.00 
   15    6    0      0.48      0.00 
   14    6    0     -0.59      0.00 
   13    6    0     -1.78      0.00 
   12    6    0     -2.77      0.00 
   11    6    0     -3.39      0.00 
   10    6    0     -3.69      0.00 
    9    6    0     -4.02      0.00 
    8    6    0     -4.98      0.00 
    7    6    0     -7.03      0.00 
    6    6    0     -9.80      0.00 
    5    6    0    -11.86      0.00 
    4    6    0    -11.47      0.00 
    3    6    0     -7.94      0.00 
    2    6    0     -2.54      0.00 
    1    6    0      2.22      0.00 
    0    6    0      4.32      0.00 
   -1    6    0      3.50      0.00 
   -2    6    0      1.09      0.00 
   -3    6    0     -1.10      0.00 
   -4    6    0     -1.91      0.00 
   -5    6    0     -1.32      0.00 
   -6    6    0     -0.19      0.00 
   -7    6    0      0.47      0.00 
   -8    6    0      0.20      0.00 
   -9    6    0     -0.63      0.00 
  -10    6    0     -1.29      0.00 
  -11    6    0     -1.33      0.00 
  -12    6    0     -0.80      0.00 
  -13    6    0     -0.10      0.00 
  -14    6    0      0.35      0.00 
   17    5    0     -0.24      0.00 
   16    5    0     -0.44      0.00 
   15    5    0     -0.63      0.00 
   14    5    0     -0.43      0.00 
   13    5    0      0.41      0.00 
   12    5    0      1.63      0.00 
   11    5    0      2.56      0.00 
   10    5    0      2.58      0.00 
    9    5    0      1.53      0.00 
    8    5    0     -0.35      0.00 
    7    5    0     -2.42      0.00 
    6    5    0     -3.69      0.00 
    5    5    0     -3.41      0.00 
    4    5    0     -1.93      0.00 
    3    5    0     -0.83      0.00 
    2    5    0     -1.65      0.00 
    1    5    0     -4.29      0.00 
    0    5    0     -6.81      0.00 
   -1    5    0     -7.10      0.00 
   -2    5    0     -4.78      0.00 
   -3    5    0     -1.49      0.00 
   -4    5    0      0.66      0.00 
   -5    5    0      0.79      0.00 
   -6    5    0     -0.43      0.00 
   -7    5    0     -1.81      0.00 
   -8    5    0     -2.63      0.00 
   -9    5    0     -2.69      0.00 
  -10    5    0     -2.06      0.00 
  -11    5    0     -1.01      0.00 
  -12    5    0     -0.09      0.00 
  -13    5    0      0.25      0.00 
  -14    5    0      0.12      0.00 
  -15    5    0     -0.03      0.00 
   17    4    0      0.10      0.00 
   16    4    0      0.05      0.00 
   15    4    0      0.43      0.00 
   14    4    0      0.97      0.00 
   13    4    0      1.14      0.00 
   12    4    0      0.83      0.00 
   11    4    0      0.37      0.00 
   10    4    0      0.45      0.00 
    9    4    0      2.00      0.00 
    8    4    0      6.01      0.00 
    7    4    0     12.58      0.00 
    6    4    0     19.91      0.00 
    5    4    0     24.80      0.00 
    4    4    0     24.76      0.00 
    3    4    0     19.86      0.00 
    2    4    0     12.78      0.00 
    1    4    0      6.87      0.00 
    0    4    0      3.99      0.00 
   -1    4    0      3.64      0.00 
   -2    4    0      3.90      0.00 
   -3    4    0      3.27      0.00 
   -4    4    0      1.74      0.00 
   -5    4    0      0.37      0.00 
   -6    4    0      0.02      0.00 
   -7    4    0      0.65      0.00 
   -8    4    0      1.66      0.00 
   -9    4    0      2.42      0.00 
  -10    4    0      2.50      0.00 
  -11    4    0      1.86      0.00 
  -12    4    0      0.86      0.00 
  -13    4    0      0.05      0.00 
  -14    4    0     -0.26      0.00 
  -15    4    0     -0.24      0.00 
   17    3    0      0.39      0.00 
   16    3    0      0.58      0.00 
   15    3    0      0.39      0.00 
   14    3    0     -0.26      0.00 
   13    3    0     -1.16      0.00 
   12    3    0     -1.90      0.00 
   11    3    0     -2.13      0.00 
   10    3    0     -1.80      0.00 
    9    3    0     -1.41      0.00 
    8    3    0     -1.74      0.00 
    7    3    0     -3.23      0.00 
    6    3    0     -5.24      0.00 
    5    3    0     -5.92      0.00 
    4    3    0     -2.98      0.00 
    3    3    0      4.73      0.00 
    2    3    0     15.38      0.00 
    1    3    0     24.15      0.00 
    0    3    0     26.00      0.00 
   -1    3    0     19.57      0.00 
   -2    3    0      8.64      0.00 
   -3    3    0     -0.73      0.00 
   -4    3    0     -4.73      0.00 
   -5    3    0     -3.84      0.00 
   -6    3    0     -1.10      0.00 
   -7    3    0      0.96      0.00 
   -8    3    0      1.63      0.00 
   -9    3    0      1.42      0.00 
  -10    3    0      0.99      0.00 
  -11    3    0      0.65      0.00 
  -12    3    0      0.50      0.00 
  -13    3    0      0.48      0.00 
  -14    3    0      0.43      0.00 
  -15    3    0      0.24      0.00 
  -16    3    0      0.01      0.00 
   16    2    0     -0.76      0.00 
   15    2    0     -1.08      0.00 
   14    2    0     -1.00      0.00 
   13    2    0     -0.21      0.00 
   12    2    0      1.10      0.00 
   11    2    0      2.33      0.00 
   10    2    0      2.76      0.00 
    9    2    0      1.74      0.00 
    8    2    0     -1.43      0.00 
    7    2    0     -6.92      0.00 
    6    2    0    -14.02      0.00 
    5    2    0    -21.61      0.00 
    4    2    0    -29.34      0.00 
    3    2    0    -37.51      0.00 
    2    2    0    -45.20      0.00 
    1    2    0    -49.22      0.00 
    0    2    0    -45.90      0.00 
   -1    2    0    -34.66      0.00 
   -2    2    0    -19.27      0.00 
   -3    2    0     -5.49      0.00 
   -4    2    0      2.66      0.00 
   -5    2    0      4.73      0.00 
   -6    2    0      2.87      0.00 
   -7    2    0     -0.22      0.00 
   -8    2    0     -2.62      0.00 
   -9    2    0     -3.54      0.00 
  -10    2    0     -3.03      0.00 
  -11    2    0     -1.76      0.00 
  -12    2    0     -0.53      0.00 
  -13    2    0      0.12      0.00 
  -14    2    0      0.20      0.00 
  -15    2    0      0.08      0.00 
  -16    2    0      0.05      0.00 
   16    1    0     -0.14      0.00 
   15    1    0      0.44      0.00 
   14    1    0      1.20      0.00 
   13    1    0      1.52      0.00 
   12    1    0      1.00      0.00 
   11    1    0     -0.17      0.00 
   10    1    0     -1.22      0.00 
    9    1    0     -1.10      0.00 
    8    1    0      1.18      0.00 
    7    1    0      5.74      0.00 
    6    1    0     11.06      0.00 
    5    1    0     14.00      0.00 
    4    1    0     11.13      0.00 
    3    1    0      1.12      0.00 
    2    1    0    -13.46      0.00 
    1    1    0    -26.61      0.00 
    0    1    0    -32.41      0.00 
   -1    1    0    -29.11      0.00 
   -2    1    0    -20.16      0.00 
   -3    1    0    -11.08      0.00 
   -4    1    0     -5.20      0.00 
   -5    1    0     -2.34      0.00 
   -6    1    0     -0.68      0.00 
   -7    1    0      0.90      0.00 
   -8    1    0      2.34      0.00 
   -9    1    0      3.09      0.00 
  -10    1    0      2.85      0.00 
  -11    1    0      1.73      0.00 
  -12    1    0      0.30      0.00 
  -13    1    0     -0.66      0.00 
  -14    1    0     -0.79      0.00 
  -15    1    0     -0.39      0.00 
  -16    1    0     -0.03      0.00 
   16    0    0      0.26      0.00 
   15    0    0      0.24      0.00 
   14    0    0     -0.11      0.00 
   13    0    0     -0.78      0.00 
   12    0    0     -1.42      0.00 
   11    0    0     -1.63      0.00 
   10    0    0     -1.47      0.00 
    9    0    0     -1.47      0.00 
    8    0    0     -2.06      0.00 
    7    0    0     -3.03      0.00 
    6    0    0     -3.29      0.00 
    5    0    0     -0.18      0.00 
    4    0    0     10.81      0.00 
    3    0    0     33.31      0.00 
    2    0    0     64.72      0.00 
    1    0    0     93.60      0.00 
  -14    7    0     -0.36      0.00 
  -13    8    0     -0.56      0.00 
  -13    9    0      0.54      0.00 
  -12   10    0      0.35      0.00 
   17   10    0     -0.62      0.00 
   14   11    0     -0.64      0.00 
   15   11    0     -0.70      0.00 
   16   11    0     -0.43      0.00 
   15   12    0      0.28      0.00 
   16   12    0      0.34      0.00 
   15   13    0      0.39      0.00 
   16   13    0      0.04      0.00 
   15   14    0     -0.25      0.00 
    0   17    0     -0.10      0.00 
   -2   18    0     -0.17      0.00 
   -1   18    0      0.14      0.00 
    0   18    0      0.41      0.00 
   -1   19    0      0.20      0.00 
    0   19    0     -0.23      0.00 
   -6  -20    1     -0.35      0.00 
   -5  -20    1     -0.36      0.00 
   -4  -20    1     -0.33      0.00 
   -3  -20    1     -0.24      0.00 
  -13  -17    1     -0.03      0.00 
  -14  -16    1      0.20      0.00 
  -15  -15    1     -0.38      0.00 
    9  -13    1     -0.39      0.00 
   10  -12    1      0.13      0.00 
   10  -11    1     -0.07      0.00 
  -17   -4    1     -0.25      0.00 
  -17   -3    1      0.21      0.00 
   16   -2    1      0.01      0.00 
  -16   -1    1      0.20      0.00 
   17    1    1     -0.12      0.00 
  -14    7    1      0.36      0.00 
  -13    9    1     -0.13      0.00 
  -12   10    1      0.10      0.00 
   16   10    1      0.25      0.00 
   14   11    1     -1.14      0.00 
   15   11    1     -1.06      0.00 
   16   11    1     -0.59      0.00 
   17   11    1     -0.12      0.00 
   15   12    1     -0.17      0.00 
   16   12    1     -0.12      0.00 
  -10   13    1     -0.22      0.00 
   15   13    1      0.72      0.00 
   16   13    1      0.48      0.00 
   -9   14    1      0.21      0.00 
   15   14    1      0.10      0.00 
   -8   15    1     -0.23      0.00 
    0   18    1      0.61      0.00 
   12   18    1      0.38      0.00 
   -1   19    1      0.16      0.00 
   10   19    1      0.00      0.00 
   -5  -20    2      0.24      0.00 
  -14  -16    2      0.11      0.00 
    7  -15    2     -0.11      0.00 
    8  -14    2      0.31      0.00 
    8  -13    2     -0.05      0.00 
    9  -13    2      0.11      0.00 
    9  -12    2     -0.42      0.00 
   10  -11    2     -0.06      0.00 
   16   -2    2      0.24      0.00 
   17    1    2      0.04      0.00 
   17    2    2     -0.09      0.00 
  -13    9    2     -0.12      0.00 
  -12   10    2     -0.18      0.00 
   15   10    2      0.34      0.00 
   16   10    2     -0.21      0.00 
   14   11    2     -0.07      0.00 
   15   11    2     -0.12      0.00 
   16   11    2      0.15      0.00 
   15   12    2     -0.55      0.00 
   16   12    2     -0.25      0.00 
  -10   13    2     -0.02      0.00 
   15   13    2      0.22      0.00 
   16   13    2     -0.02      0.00 
   -9   14    2      0.05      0.00 
   -8   15    2      0.11      0.00 
   -1   19    2      0.35      0.00 
  -12  -17    3     -0.60      0.00 
    6  -15    3      0.13      0.00 
    7  -15    3      0.08      0.00 
    7  -14    3      0.03      0.00 
    8  -14    3     -0.21      0.00 
    7  -13    3     -0.15      0.00 
    8  -13    3      0.16      0.00 
    8  -12    3      0.10      0.00 
    9  -12    3     -0.02      0.00 
   15   -4    3     -0.20      0.00 
   16   -2    3      0.18      0.00 
   17    1    3     -0.27      0.00 
   17    2    3     -0.20      0.00 
  -13    9    3      0.16      0.00 
   14   10    3      0.46      0.00 
   15   10    3      0.26      0.00 
   14   11    3     -0.20      0.00 
   15   11    3     -0.58      0.00 
  -11   12    3      0.05      0.00 
   15   12    3      0.02      0.00 
  -10   13    3     -0.22      0.00 
   15   13    3     -0.20      0.00 
   -9   14    3     -0.14      0.00 
   -8   15    3      0.27      0.00 
   11   19    3      0.08      0.00 
    8   20    3      0.07      0.00 
  -13  -16    4      0.14      0.00 
    5  -16    4     -0.15      0.00 
  -14  -15    4     -0.10      0.00 
    5  -15    4     -0.44      0.00 
    6  -15    4     -0.24      0.00 
    6  -14    4      0.19      0.00 
    7  -14    4      0.13      0.00 
    6  -13    4     -0.06      0.00 
    7  -13    4     -0.05      0.00 
    8  -13    4     -0.06      0.00 
    7  -12    4      0.45      0.00 
    8  -12    4      0.07      0.00 
    9  -12    4     -0.43      0.00 
   -3   -3    4      1.21      0.00 
   16   -1    4     -0.38      0.00 
   17    2    4     -0.43      0.00 
   17    3    4     -0.14      0.00 
  -13    9    4     -0.10      0.00 
   14   10    4      1.43      0.00 
   14   11    4     -0.58      0.00 
  -11   12    4      0.30      0.00 
  -10   13    4      0.38      0.00 
   15   13    4      0.34      0.00 
   -9   14    4     -0.60      0.00 
   14   17    4      0.08      0.00 
   13   18    4     -0.25      0.00 
   11   19    4      0.15      0.00 
   -4  -19    5     -0.12      0.00 
   -3  -19    5     -0.15      0.00 
    4  -15    5      0.19      0.00 
    5  -15    5      0.00      0.00 
    6  -15    5     -0.09      0.00 
    5  -14    5      0.28      0.00 
    6  -14    5      0.23      0.00 
    7  -14    5      0.11      0.00 
    5  -13    5     -1.08      0.00 
    6  -13    5     -0.75      0.00 
    7  -13    5     -0.18      0.00 
    8  -13    5      0.34      0.00 
    6  -12    5      0.81      0.00 
    7  -12    5      0.43      0.00 
    8  -12    5     -0.12      0.00 
    9  -12    5     -0.42      0.00 
  -10   -4    5     -2.10      0.00 
   16   -1    5     -0.42      0.00 
   17    2    5      0.12      0.00 
   17    3    5     -0.28      0.00 
  -13    9    5      0.10      0.00 
  -11   12    5     -0.28      0.00 
  -10   13    5      0.48      0.00 
   -9   14    5      0.32      0.00 
   -8   15    5     -0.65      0.00 
   14   17    5      0.44      0.00 
   13   18    5      0.09      0.00 
   11   19    5      0.39      0.00 
    9   20    5     -0.06      0.00 
  -12  -16    6      0.45      0.00 
  -13  -15    6      0.07      0.00 
  -14  -14    6     -0.17      0.00 
    4  -14    6      0.95      0.00 
    5  -14    6      0.77      0.00 
    6  -14    6      0.36      0.00 
    7  -14    6      0.12      0.00 
    4  -13    6     -0.75      0.00 
    5  -13    6     -0.54      0.00 
    6  -13    6     -0.08      0.00 
    7  -13    6      0.29      0.00 
    8  -13    6      0.40      0.00 
    5  -12    6     -0.24      0.00 
    6  -12    6      0.15      0.00 
    7  -12    6      0.36      0.00 
    8  -12    6      0.32      0.00 
    9  -12    6      0.16      0.00 
  -16  -10    6     -0.04      0.00 
   16    0    6     -0.02      0.00 
   17    3    6      0.19      0.00 
  -13    9    6      0.26      0.00 
  -10   13    6     -0.35      0.00 
   -9   14    6      0.39      0.00 
   14   17    6     -0.56      0.00 
   13   18    6      0.39      0.00 
   11   19    6      0.44      0.00 
    9   20    6     -0.03      0.00 
  -11  -16    7     -0.32      0.00 
  -13  -15    7      0.46      0.00 
    6  -14    7     -0.24      0.00 
    4  -13    7     -0.30      0.00 
    5  -13    7     -0.37      0.00 
    6  -13    7     -0.31      0.00 
    7  -13    7     -0.08      0.00 
    7  -12    7      1.26      0.00 
    8  -12    7      0.79      0.00 
  -16  -10    7     -0.02      0.00 
  -16   -9    7      0.48      0.00 
  -10   -5    7      0.28      0.00 
   17    4    7      0.06      0.00 
   14    9    7     -0.62      0.00 
   15    9    7     -0.10      0.00 
   14   10    7      0.71      0.00 
   11   19    7      0.41      0.00 
    9   20    7      0.15      0.00 
    0  -17    8      0.40      0.00 
  -12  -15    8     -0.12      0.00 
    1  -15    8      0.16      0.00 
  -13  -14    8      0.27      0.00 
    2  -13    8      0.21      0.00 
    5  -13    8     -1.09      0.00 
    6  -13    8     -1.09      0.00 
    7  -13    8     -0.79      0.00 
    8  -12    8      0.25      0.00 
  -15  -11    8      0.11      0.00 
  -16   -9    8      0.28      0.00 
  -16   -8    8      0.15      0.00 
   16    1    8     -0.36      0.00 
   17    5    8      0.08      0.00 
   14    9    8     -0.29      0.00 
   15    9    8      0.17      0.00 
   16    9    8      0.57      0.00 
   14   10    8     -0.28      0.00 
   15   10    8     -0.45      0.00 
   11   19    8      0.48      0.00 
   -1  -17    9     -0.41      0.00 
   -1  -16    9     -0.02      0.00 
    0  -16    9     -0.12      0.00 
    0  -15    9      0.43      0.00 
    1  -15    9      0.27      0.00 
    1  -14    9     -0.27      0.00 
  -13  -13    9      0.06      0.00 
    1  -13    9      1.10      0.00 
    2  -13    9      1.07      0.00 
    7  -13    9     -0.48      0.00 
  -15  -10    9      0.05      0.00 
  -16   -6    9      0.12      0.00 
   16    2    9     -0.75      0.00 
   14    9    9      0.31      0.00 
   15    9    9      0.52      0.00 
   16    9    9      0.57      0.00 
   14   10    9      0.33      0.00 
   15   10    9      0.09      0.00 
   16   10    9      0.04      0.00 
   15   11    9     -0.27      0.00 
   11   19    9     -0.12      0.00 
   -2  -16   10     -0.88      0.00 
   -1  -16   10     -0.76      0.00 
    0  -16   10     -0.66      0.00 
   -1  -15   10     -0.06      0.00 
    0  -15   10     -0.16      0.00 
    1  -15   10     -0.30      0.00 
  -12  -14   10      0.35      0.00 
    0  -14   10     -0.41      0.00 
    1  -14   10     -0.48      0.00 
  -13  -13   10     -0.03      0.00 
    0  -13   10      0.70      0.00 
    1  -13   10      0.88      0.00 
    2  -13   10      0.67      0.00 
  -14  -11   10      0.45      0.00 
  -15   -9   10      0.24      0.00 
  -14    6   10     -0.43      0.00 
   16    8   10     -0.13      0.00 
   14    9   10     -0.67      0.00 
   15    9   10     -0.57      0.00 
   16    9   10     -0.39      0.00 
   14   10   10      0.59      0.00 
   15   10   10      0.14      0.00 
   16   10   10     -0.10      0.00 
   15   11   10      0.49      0.00 
   16   11   10      0.48      0.00 
   15   12   10     -0.55      0.00 
   10   19   10      0.13      0.00 
   -3  -16   11      0.37      0.00 
   -2  -16   11      0.56      0.00 
   -1  -16   11      0.70      0.00 
   -2  -15   11     -0.76      0.00 
   -1  -15   11     -0.60      0.00 
    0  -15   11     -0.42      0.00 
    1  -15   11     -0.29      0.00 
  -11  -14   11      0.66      0.00 
   -2  -14   11     -0.37      0.00 
   -1  -14   11     -1.06      0.00 
    0  -14   11     -1.29      0.00 
    1  -14   11     -0.96      0.00 
  -12  -13   11      0.25      0.00 
   -1  -13   11      0.62      0.00 
    0  -13   11      0.68      0.00 
    1  -13   11      0.28      0.00 
    2  -13   11     -0.16      0.00 
  -13  -12   11      0.03      0.00 
  -14  -11   11      0.15      0.00 
  -14  -10   11      0.18      0.00 
   10   -9   11     -0.02      0.00 
  -15   -8   11     -0.25      0.00 
  -15   -7   11      0.22      0.00 
  -14    5   11      0.21      0.00 
   14    8   11      0.02      0.00 
   15    8   11      0.01      0.00 
   16    8   11     -0.06      0.00 
   14    9   11      0.05      0.00 
   15    9   11      0.49      0.00 
   16    9   11      0.55      0.00 
   14   10   11     -0.23      0.00 
   15   10   11     -0.71      0.00 
   16   10   11     -0.77      0.00 
   15   11   11      0.08      0.00 
   16   11   11     -0.05      0.00 
   15   12   11      0.15      0.00 
   -3  -15   12      0.36      0.00 
   -2  -15   12      0.77      0.00 
   -1  -15   12      0.96      0.00 
    0  -15   12      0.91      0.00 
    1  -15   12      0.64      0.00 
   -3  -14   12     -0.23      0.00 
   -2  -14   12     -0.91      0.00 
   -1  -14   12     -1.34      0.00 
    0  -14   12     -1.20      0.00 
    1  -14   12     -0.67      0.00 
   -2  -13   12     -0.54      0.00 
   -1  -13   12     -0.32      0.00 
    0  -13   12     -0.18      0.00 
    1  -13   12     -0.18      0.00 
    2  -13   12     -0.20      0.00 
  -13  -11   12      0.29      0.00 
  -14  -10   12      0.16      0.00 
  -14   -9   12      0.12      0.00 
   12   -5   12     -1.08      0.00 
  -14    4   12      0.31      0.00 
  -14    5   12     -0.20      0.00 
  -13    7   12      0.18      0.00 
   14    8   12     -0.77      0.00 
   15    8   12     -0.68      0.00 
   16    8   12     -0.45      0.00 
   14    9   12     -0.24      0.00 
   15    9   12      0.14      0.00 
   16    9   12      0.18      0.00 
   14   10   12      0.70      0.00 
   15   10   12      0.52      0.00 
   16   10   12      0.28      0.00 
   15   11   12     -0.44      0.00 
   15   12   12     -0.48      0.00 
   11   18   12      0.30      0.00 
   -4  -15   13     -0.15      0.00 
   -3  -15   13      0.13      0.00 
   -2  -15   13      0.44      0.00 
   -1  -15   13      0.61      0.00 
   -4  -14   13      0.51      0.00 
   -3  -14   13      0.54      0.00 
   -2  -14   13      0.17      0.00 
   -1  -14   13     -0.16      0.00 
    0  -14   13     -0.13      0.00 
    1  -14   13      0.10      0.00 
  -11  -13   13     -0.53      0.00 
    2  -13   13     -0.12      0.00 
  -12  -12   13      0.22      0.00 
  -13  -10   13      0.16      0.00 
    9   -9   13      0.28      0.00 
  -14   -8   13     -0.37      0.00 
   11   -6   13      0.83      0.00 
  -14    3   13     -0.07      0.00 
  -14    4   13     -0.40      0.00 
  -13    6   13     -0.06      0.00 
   14    8   13      0.28      0.00 
   15    8   13      0.09      0.00 
   14    9   13     -0.77      0.00 
   15    9   13     -0.14      0.00 
   14   10   13      0.19      0.00 
   15   10   13     -0.01      0.00 
   15   11   13      0.57      0.00 
   15   12   13     -0.75      0.00 
   12   17   13      0.48      0.00 
   11   18   13      0.29      0.00 
    7   20   13     -0.13      0.00 
   -5  -14   14      0.20      0.00 
   -4  -14   14      0.40      0.00 
   -3  -14   14      0.22      0.00 
   -2  -14   14     -0.12      0.00 
   -1  -14   14     -0.26      0.00 
    0  -14   14     -0.14      0.00 
    1  -14   14      0.01      0.00 
  -11  -12   14     -0.54      0.00 
  -12  -11   14      0.55      0.00 
  -13   -9   14     -0.09      0.00 
    9   -8   14     -0.48      0.00 
   10   -7   14      0.08      0.00 
   11   -5   14      0.00      0.00 
  -14    2   14     -0.05      0.00 
  -13    5   14     -0.47      0.00 
  -13    6   14      0.11      0.00 
   15    7   14      0.25      0.00 
   14    8   14     -0.24      0.00 
   15    8   14     -0.48      0.00 
   14    9   14     -0.15      0.00 
   15    9   14      0.13      0.00 
   14   10   14     -0.01      0.00 
   15   10   14      0.12      0.00 
   15   11   14      0.26      0.00 
   13   16   14      0.07      0.00 
   12   17   14     -0.16      0.00 
   11   18   14      0.54      0.00 
    0   19   14     -0.20      0.00 
    6   20   14      0.07      0.00 
  -12  -10   15      0.40      0.00 
   10   -6   15      0.53      0.00 
  -13    4   15     -0.17      0.00 
  -13    5   15      0.58      0.00 
  -12    7   15      0.28      0.00 
   14    7   15      0.69      0.00 
   14    8   15      0.42      0.00 
   14    9   15     -0.79      0.00 
   14   10   15     -0.09      0.00 
   13   15   15      0.06      0.00 
   12   16   15     -0.46      0.00 
    1   19   15     -0.16      0.00 
   10   -5   16      0.00      0.00 
  -13    3   16      0.75      0.00 
  -13    4   16     -0.41      0.00 
  -12    6   16      0.06      0.00 
   13    7   16     -0.26      0.00 
   14    7   16     -0.08      0.00 
   14    8   16      0.47      0.00 
   14    9   16      0.39      0.00 
   14   10   16     -0.99      0.00 
   12   16   16      0.09      0.00 
   -1   18   16     -0.05      0.00 
    1   19   16     -0.40      0.00 
    2   19   16     -0.33      0.00 
    9   -6   17     -0.38      0.00 
   10   -4   17      0.78      0.00 
  -12    5   17      0.22      0.00 
   13    7   17     -0.30      0.00 
  -10    9   17     -0.41      0.00 
    0   18   17      0.66      0.00 
    9   -5   18     -0.35      0.00 
   10   -3   18     -0.26      0.00 
  -12    3   18      0.00      0.00 
  -12    4   18     -0.16      0.00 
   13    7   18     -0.19      0.00 
   13    8   18     -0.09      0.00 
   -9   10   18     -0.01      0.00 
    1   18   18     -0.30      0.00 
   -9   -9   19     -0.17      0.00 
    5   -8   19      0.09      0.00 
    9   -4   19      0.74      0.00 
   10   -2   19     -0.39      0.00 
   11    0   19     -0.12      0.00 
  -11    5   19      0.07      0.00 
   -8   10   19      0.16      0.00 
   -1   17   19      0.20      0.00 
   -8   -8   20     -0.52      0.00 
    3   -8   20      0.02      0.00 
   -9   -7   20      0.07      0.00 
    5   -7   20      0.36      0.00 
    6   -6   20     -0.61      0.00 
    9   -2   20     -0.23      0.00 
   10   -1   20     -0.18      0.00 
   -8   10   20     -0.15      0.00 
   -7   10   20     -0.38      0.00 
   -8   -7   21     -0.33      0.00 
   -7   -7   21      0.20      0.00 
    3   -7   21      0.62      0.00 
   -9   -6   21      0.60      0.00 
   -8   -6   21      0.95      0.00 
    4   -6   21     -0.40      0.00 
    5   -6   21     -0.32      0.00 
    6   -5   21      0.07      0.00 
    7   -4   21     -0.51      0.00 
    8   -2   21      0.31      0.00 
    9   -1   21     -0.16      0.00 
   -6    9   21      0.58      0.00 
   -7   10   21     -0.49      0.00 
   -6   10   21     -0.56      0.00 
   -7   -6   22      0.81      0.00 
    2   -6   22     -0.26      0.00 
    3   -6   22     -0.34      0.00 
   -8   -5   22     -0.12      0.00 
   -1   -5   22      0.40      0.00 
    4   -5   22      0.34      0.00 
   -8   -4   22     -0.05      0.00 
    5   -4   22     -0.42      0.00 
    6   -4   22     -0.63      0.00 
    6   -3   22     -0.13      0.00 
    7   -2   22      0.39      0.00 
    8   -1   22     -0.22      0.00 
    9    0   22      0.29      0.00 
   -6    9   22      0.80      0.00 
   -6   10   22      0.06      0.00 
   -6   11   22     -0.39      0.00 
   -6   -5   23      0.20      0.00 
   -5   -5   23      0.07      0.00 
   -7   -4   23      0.02      0.00 
   -7   -3   23     -0.17      0.00 
    5   -3   23     -0.30      0.00 
    6   -2   23      0.18      0.00 
    7   -1   23     -0.30      0.00 
   -8    3   23      0.45      0.00 
   -8    4   23     -0.58      0.00 
   -7    4   23     -0.65      0.00 
   -8    5   23     -0.03      0.00 
   -7    5   23     -0.34      0.00 
   -4   -4   24      0.37      0.00 
   -3   -4   24     -0.13      0.00 
   -6   -3   24     -0.13      0.00 
   -5   -3   24      0.04      0.00 
   -7   -2   24     -0.08      0.00 
   -6   -2   24     -0.25      0.00 
    4   -2   24     -0.04      0.00 
   -7    4   24      0.36      0.00 
   -3    6   24     -0.56      0.00 
    8    9   24      0.09      0.00 
    7   11   24     -0.17      0.00 
    6   12   24      0.36      0.00 
   -5   -2   25      0.35      0.00 
   -4   -2   25      0.83      0.00 
   -3   -2   25      1.05      0.00 
   -5   -1   25      0.18      0.00 
   -6    0   25     -0.21      0.00 
    7    5   25      0.13      0.00 
   -3    6   25     -0.16      0.00 
    7    6   25      0.22      0.00 
    7    7   25      0.41      0.00 
    7    8   25     -0.61      0.00 
    6    9   25      0.47      0.00 
    7    9   25      0.04      0.00 
    6   10   25     -0.25      0.00 
    5   11   25     -0.15      0.00 
    4   12   25      0.48      0.00 
   -4    0   26     -0.03      0.00 
   -3    0   26     -0.26      0.00 
   -4    1   26     -0.12      0.00 
   -3    5   26     -0.26      0.00 
   -2    5   26     -0.33      0.00 
   -1    5   26     -0.20      0.00 
   -2    6   26      0.39      0.00 
    5    6   26      0.17      0.00 
    6    6   26      0.09      0.00 
    5    7   26      0.16      0.00 
    6    7   26      0.35      0.00 
    4    8   26     -0.46      0.00 
    5    8   26     -0.46      0.00 
    0    9   26     -0.20      0.00 
    4    9   26      0.48      0.00 
    5    9   26      0.48      0.00 
    3   10   26     -0.13      0.00 
    4   10   26     -0.06      0.00 
    2   11   26      0.03      0.00 
    3   11   26     -0.05      0.00 
   -2    4   27      0.24      0.00 
   -2    5   27     -0.48      0.00 
   -1    5   27     -0.61      0.00 
    0    5   27     -0.62      0.00 
   -1    6   27      0.15      0.00 
   17    2    0     -0.44      0.00 
   -9  -19    1      0.20      0.00 
   11  -11    1      0.02      0.00 
  -17   -2    1      0.01      0.00 
   17    2    1     -0.16      0.00 
   10  -12    2     -0.52      0.00 
    2   20    2      0.13      0.00 
   16   10    3     -0.18      0.00 
   16   11    3     -0.37      0.00 
   16   12    3      0.09      0.00 
   16   13    3     -0.12      0.00 
   17    9    4      0.47      0.00 
   15   10    4      0.97      0.00 
   16   10    4      0.38      0.00 
   15   11    4     -0.38      0.00 
   16   11    4      0.02      0.00 
   15   12    4     -0.50      0.00 
   16   12    4     -0.45      0.00 
   16   13    4      0.10      0.00 
    1   20    4     -0.06      0.00 
    4  -16    5      0.01      0.00 
   14   10    5      0.66      0.00 
   15   10    5      0.37      0.00 
   16   10    5      0.04      0.00 
   15   11    5      0.41      0.00 
   16   11    5      0.49      0.00 
   15   12    5     -0.51      0.00 
   16   12    5     -0.18      0.00 
   15   13    5     -0.17      0.00 
    1   20    5     -0.29      0.00 
    3  -16    6     -0.21      0.00 
    3  -15    6      0.03      0.00 
    4  -15    6     -0.27      0.00 
    5  -15    6     -0.37      0.00 
  -15  -12    6      0.10      0.00 
   14   -5    6      0.59      0.00 
   16    9    6      0.02      0.00 
   14   10    6      0.55      0.00 
   15   10    6      0.21      0.00 
   16   10    6     -0.35      0.00 
   15   11    6      0.08      0.00 
   16   11    6      0.36      0.00 
   15   12    6      0.07      0.00 
   16   12    6      0.02      0.00 
   15   13    6     -0.17      0.00 
    2  -16    7     -0.25      0.00 
    3  -16    7     -0.09      0.00 
    2  -15    7      0.26      0.00 
    3  -15    7     -0.05      0.00 
    4  -15    7     -0.25      0.00 
    3  -14    7      0.25      0.00 
    4  -14    7      0.28      0.00 
    5  -14    7      0.02      0.00 
  -14  -13    7      0.23      0.00 
    3  -13    7     -0.06      0.00 
   16    9    7      0.23      0.00 
   15   10    7      0.15      0.00 
   16   10    7     -0.38      0.00 
   15   11    7      0.42      0.00 
   16   11    7      0.38      0.00 
   15   12    7     -0.43      0.00 
   16   12    7     -0.13      0.00 
   15   13    7      0.37      0.00 
    1  -16    8     -0.09      0.00 
    2  -16    8     -0.06      0.00 
    2  -15    8      0.18      0.00 
    3  -15    8      0.03      0.00 
    4  -15    8     -0.12      0.00 
    2  -14    8      0.36      0.00 
    3  -14    8      0.75      0.00 
    4  -14    8      0.78      0.00 
    5  -14    8      0.48      0.00 
    3  -13    8     -0.37      0.00 
    4  -13    8     -0.83      0.00 
   14   -4    8      0.13      0.00 
   16   10    8     -0.58      0.00 
   15   11    8      0.42      0.00 
   16   11    8      0.28      0.00 
   15   12    8      0.13      0.00 
   16   12    8      0.17      0.00 
   15   13    8     -0.10      0.00 
    1  -16    9     -0.33      0.00 
    2  -15    9     -0.01      0.00 
    3  -15    9     -0.29      0.00 
    2  -14    9      0.30      0.00 
    3  -14    9      0.68      0.00 
    4  -14    9      0.69      0.00 
    5  -14    9      0.55      0.00 
    3  -13    9      0.73      0.00 
    4  -13    9      0.27      0.00 
    5  -13    9     -0.17      0.00 
    6  -13    9     -0.46      0.00 
   15   -1    9     -0.06      0.00 
   16   11    9     -0.17      0.00 
   15   12    9     -0.10      0.00 
   15   13    9      0.59      0.00 
   15   14    9     -0.32      0.00 
   12   18    9      0.39      0.00 
    2  -15   10     -0.41      0.00 
    2  -14   10     -0.26      0.00 
    3  -14   10     -0.05      0.00 
    4  -14   10      0.04      0.00 
    3  -13   10      0.28      0.00 
    4  -13   10     -0.05      0.00 
    5  -13   10     -0.19      0.00 
    2  -14   11     -0.41      0.00 
    3  -14   11      0.00      0.00 
    3  -13   11     -0.37      0.00 
    4  -13   11     -0.39      0.00 
    5  -13   11     -0.34      0.00 
   13   -4   11      0.70      0.00 
   14   -2   11      0.18      0.00 
    2  -14   12     -0.13      0.00 
    3  -13   12     -0.16      0.00 
    4  -13   12     -0.15      0.00 
  -15   -5   12     -0.40      0.00 
  -15   -1   12      0.08      0.00 
   14   -1   12      0.02      0.00 
  -15    0   12     -0.24      0.00 
   -8   14   12     -0.13      0.00 
   -7   15   12      0.04      0.00 
   -5  -15   13     -0.30      0.00 
    3  -13   13     -0.07      0.00 
  -14   -6   14     -0.20      0.00 
  -14   -2   15     -0.24      0.00 
  -11    8   16     -0.04      0.00 
   -4    7   21      0.33      0.00 
   -4   -7   22      0.07      0.00 
    0   -7   22      0.15      0.00 
   -9   -2   22     -0.12      0.00 
   -6    6   22      0.26      0.00 
   -5    7   22     -0.73      0.00 
   -4    7   22     -0.45      0.00 
   -5    8   22      0.16      0.00 
   -4    8   22      0.42      0.00 
   -5    9   22      0.50      0.00 
   -5   10   22      0.05      0.00 
    6   15   22     -0.02      0.00 
   -7    6   23      1.05      0.00 
   -6    6   23      1.05      0.00 
   -5    6   23      0.68      0.00 
   -4    6   23      0.27      0.00 
   -7    7   23     -0.24      0.00 
   -6    7   23     -0.11      0.00 
   -5    7   23      0.10      0.00 
   -4    7   23      0.23      0.00 
   -6    8   23     -0.89      0.00 
   -5    8   23     -0.70      0.00 
   -4    8   23     -0.34      0.00 
   -3    8   23     -0.09      0.00 
   -5    9   23      0.05      0.00 
   -4    9   23     -0.09      0.00 
   -5   10   23      0.23      0.00 
   -4   10   23      0.10      0.00 
    9   10   23      0.20      0.00 
    8   12   23      0.03      0.00 
    7   13   23     -0.14      0.00 
    0   -4   24     -0.08      0.00 
   -6    6   24     -0.25      0.00 
   -5    6   24     -0.52      0.00 
   -4    6   24     -0.62      0.00 
   -5    7   24      0.64      0.00 
   -4    7   24      0.54      0.00 
   -5    8   24      0.09      0.00 
   -4    8   24      0.34      0.00 
   -3    8   24      0.42      0.00 
   -4    9   24     -0.37      0.00 
   -3    9   24     -0.22      0.00 
   -3   10   24     -0.14      0.00 
    1   -2   25     -0.34      0.00 
   -4    6   25     -0.33      0.00 
   -4    7   25     -0.17      0.00 
   -3    8   25      0.27      0.00 
   -3    9   25      0.16      0.00 
   -2    9   25      0.19      0.00 
    0    0    0      0.00      0.00 
loop_ 
  _platon_squeeze_void_nr 
  _platon_squeeze_void_average_x 
  _platon_squeeze_void_average_y 
  _platon_squeeze_void_average_z 
  _platon_squeeze_void_volume 
  _platon_squeeze_void_count_electrons 
  _platon_squeeze_void_content 
   1  0.000  0.500  1.000       489       101 ' ' 
_platon_squeeze_void_probe_radius                  1.20 
_platon_squeeze_details 
) 
TITL vic1514 in P-1 
CELL   13.2699   15.7880   20.4958     76.04     87.92     73.57 
SPGR P-1 
C101 0.124 0.326-0.001 !       4.46 eA-3 
C102 0.052 0.676 0.366 !       3.36 eA-3 
C103 0.015 0.718 0.305 !       2.74 eA-3 
C104 0.954 0.642 0.015 !       2.29 eA-3 
C105 0.945 0.826 0.123 !       1.90 eA-3 
C106 1.003 0.762 0.113 !       1.87 eA-3 
C107 0.063 0.616 0.050 !       1.78 eA-3 
C108 0.080 0.705 0.074 !       1.59 eA-3 
Q109 0.052 0.525 0.032 !       1.56 eA-3 
C110 0.989 0.713 0.066 !       1.07 eA-3 
Q111 0.670 0.634 0.464 !       0.96 eA-3 
Q112 0.363 0.841 0.077 !       0.93 eA-3 
Q113 0.358 0.946 0.045 !       0.60 eA-3 
Q114 0.076 0.031 0.253 !       0.58 eA-3 
Q115 0.841 0.579 0.459 !       0.53 eA-3 
) 
;
_shelx_fab_checksum              18073
loop_
_space_group_symop_operation_xyz
'x, y, z'
'-x, -y, -z'
loop_
_atom_site_label
_atom_site_type_symbol
_atom_site_fract_x
_atom_site_fract_y
_atom_site_fract_z
_atom_site_U_iso_or_equiv
_atom_site_adp_type
_atom_site_occupancy
_atom_site_site_symmetry_order
_atom_site_calc_flag
_atom_site_refinement_flags_posn
_atom_site_refinement_flags_adp
_atom_site_refinement_flags_occupancy
_atom_site_disorder_assembly
_atom_site_disorder_group
P1 P 0.37199(4) 0.16355(3) 0.18910(2) 0.02933(12) Uani 1 1 d . . . . .
N11 N 0.25444(13) 0.16845(11) 0.14898(8) 0.0305(3) Uani 1 1 d . . . . .
N12 N -0.03308(14) 0.14780(13) 0.09592(9) 0.0399(4) Uani 1 1 d . . . . .
N21 N 0.45135(13) 0.06172(11) 0.17248(8) 0.0296(3) Uani 1 1 d . . . . .
N22 N 0.63740(17) -0.18824(13) 0.15195(10) 0.0482(5) Uani 1 1 d . . . . .
N31 N 0.41779(13) 0.23892(11) 0.12536(8) 0.0297(3) Uani 1 1 d . . . . .
N32 N 0.56416(15) 0.39562(12) -0.01593(9) 0.0392(4) Uani 1 1 d . . . . .
C11 C 0.16300(16) 0.22072(14) 0.16808(10) 0.0332(4) Uani 1 1 d . . . . .
H11 H 0.1670 0.2599 0.1959 0.040 Uiso 1 1 calc R U . . .
C12 C 0.06715(16) 0.21934(14) 0.14932(10) 0.0346(4) Uani 1 1 d . . . . .
H12 H 0.0057 0.2587 0.1625 0.042 Uiso 1 1 calc R U . . .
C13 C 0.05823(16) 0.15872(13) 0.10969(10) 0.0322(4) Uani 1 1 d . . . . .
C14 C 0.15427(17) 0.10883(15) 0.08687(11) 0.0381(5) Uani 1 1 d . . . . .
H14 H 0.1526 0.0712 0.0573 0.046 Uiso 1 1 calc R U . . .
C15 C 0.24700(16) 0.11434(15) 0.10670(10) 0.0355(5) Uani 1 1 d . . . . .
H15 H 0.3097 0.0797 0.0911 0.043 Uiso 1 1 calc R U . . .
C16 C -0.13159(18) 0.19705(19) 0.12156(14) 0.0537(6) Uani 1 1 d . . . . .
H16A H -0.1913 0.1864 0.1013 0.064 Uiso 1 1 calc R U . . .
H16B H -0.1379 0.2623 0.1099 0.064 Uiso 1 1 calc R U . . .
H16C H -0.1313 0.1752 0.1706 0.064 Uiso 1 1 calc R U . . .
C17 C -0.0389(2) 0.0786(2) 0.06002(17) 0.0632(8) Uani 1 1 d . . . . .
H17A H -0.1128 0.0830 0.0518 0.076 Uiso 1 1 calc R U . . .
H17B H -0.0036 0.0178 0.0875 0.076 Uiso 1 1 calc R U . . .
H17C H -0.0043 0.0889 0.0170 0.076 Uiso 1 1 calc R U . . .
C21 C 0.50355(16) 0.05288(14) 0.11422(10) 0.0342(4) Uani 1 1 d . . . . .
H21 H 0.4967 0.1053 0.0784 0.041 Uiso 1 1 calc R U . . .
C22 C 0.56423(16) -0.02834(15) 0.10659(11) 0.0362(5) Uani 1 1 d . . . . .
H22 H 0.5986 -0.0319 0.0655 0.043 Uiso 1 1 calc R U . . .
C23 C 0.57768(17) -0.10859(14) 0.15886(11) 0.0368(5) Uani 1 1 d . . . . .
C24 C 0.52427(18) -0.09696(15) 0.21941(11) 0.0393(5) Uani 1 1 d . . . . .
H24 H 0.5311 -0.1479 0.2565 0.047 Uiso 1 1 calc R U . . .
C25 C 0.46444(17) -0.01440(14) 0.22420(10) 0.0337(4) Uani 1 1 d . . . . .
H25 H 0.4299 -0.0086 0.2650 0.040 Uiso 1 1 calc R U . . .
C26 C 0.6909(2) -0.19755(18) 0.08888(13) 0.0545(6) Uani 1 1 d . . . . .
H26A H 0.7381 -0.2593 0.0949 0.065 Uiso 1 1 calc R U . . .
H26B H 0.7319 -0.1535 0.0768 0.065 Uiso 1 1 calc R U . . .
H26C H 0.6386 -0.1860 0.0529 0.065 Uiso 1 1 calc R U . . .
C27 C 0.6507(4) -0.2715(2) 0.20340(18) 0.1007(15) Uani 1 1 d . . . . .
H27A H 0.7076 -0.3198 0.1916 0.121 Uiso 1 1 calc R U . . .
H27B H 0.5852 -0.2892 0.2069 0.121 Uiso 1 1 calc R U . . .
H27C H 0.6682 -0.2620 0.2466 0.121 Uiso 1 1 calc R U . . .
C31 C 0.36896(16) 0.28630(14) 0.06390(10) 0.0329(4) Uani 1 1 d . . . . .
H31 H 0.3017 0.2817 0.0539 0.040 Uiso 1 1 calc R U . . .
C32 C 0.41434(17) 0.33909(14) 0.01764(10) 0.0348(4) Uani 1 1 d . . . . .
H32 H 0.3784 0.3708 -0.0243 0.042 Uiso 1 1 calc R U . . .
C33 C 0.51494(16) 0.34819(13) 0.03035(10) 0.0324(4) Uani 1 1 d . . . . .
C34 C 0.56003(16) 0.30383(14) 0.09628(10) 0.0335(4) Uani 1 1 d . . . . .
H34 H 0.6247 0.3111 0.1089 0.040 Uiso 1 1 calc R U . . .
C35 C 0.51146(15) 0.25153(13) 0.14094(10) 0.0308(4) Uani 1 1 d . . . . .
H35 H 0.5431 0.2226 0.1844 0.037 Uiso 1 1 calc R U . . .
C36 C 0.5230(2) 0.43188(18) -0.08546(12) 0.0518(6) Uani 1 1 d . . . . .
H36A H 0.5713 0.4619 -0.1124 0.062 Uiso 1 1 calc R U . . .
H36B H 0.4539 0.4760 -0.0865 0.062 Uiso 1 1 calc R U . . .
H36C H 0.5163 0.3820 -0.1041 0.062 Uiso 1 1 calc R U . . .
C37 C 0.6688(2) 0.40232(19) -0.00295(14) 0.0540(6) Uani 1 1 d . . . . .
H37A H 0.6858 0.4485 -0.0395 0.065 Uiso 1 1 calc R U . . .
H37B H 0.7207 0.3434 -0.0004 0.065 Uiso 1 1 calc R U . . .
H37C H 0.6700 0.4196 0.0398 0.065 Uiso 1 1 calc R U . . .
P2 P 0.61721(4) 0.32942(3) 0.30659(3) 0.02970(12) Uani 1 1 d . . . . .
N41 N 0.57938(13) 0.24662(11) 0.36834(8) 0.0297(3) Uani 1 1 d . . . . .
N42 N 0.42850(14) 0.10168(11) 0.51508(9) 0.0344(4) Uani 1 1 d . . . . .
N51 N 0.53558(13) 0.42458(11) 0.33081(8) 0.0302(3) Uani 1 1 d . . . . .
N52 N 0.35115(17) 0.66192(14) 0.37386(12) 0.0535(5) Uani 1 1 d . . . . .
N61 N 0.73573(13) 0.32464(11) 0.34495(8) 0.0303(3) Uani 1 1 d . . . . .
N62 N 1.02990(14) 0.33918(13) 0.39164(10) 0.0414(4) Uani 1 1 d . . . . .
C41 C 0.48680(15) 0.23160(13) 0.35369(10) 0.0307(4) Uani 1 1 d . . . . .
H41 H 0.4564 0.2571 0.3095 0.037 Uiso 1 1 calc R U . . .
C42 C 0.43727(16) 0.18206(13) 0.39950(10) 0.0317(4) Uani 1 1 d . . . . .
H42 H 0.3739 0.1724 0.3870 0.038 Uiso 1 1 calc R U . . .
C43 C 0.47945(16) 0.14394(12) 0.46685(10) 0.0312(4) Uani 1 1 d . . . . .
C44 C 0.58047(16) 0.15399(13) 0.47915(10) 0.0329(4) Uani 1 1 d . . . . .
H44 H 0.6153 0.1252 0.5218 0.040 Uiso 1 1 calc R U . . .
C45 C 0.62695(16) 0.20372(13) 0.43120(10) 0.0320(4) Uani 1 1 d . . . . .
H45 H 0.6939 0.2094 0.4408 0.038 Uiso 1 1 calc R U . . .
C46 C 0.32356(18) 0.09602(17) 0.50313(13) 0.0472(6) Uani 1 1 d . . . . .
H46A H 0.3062 0.0507 0.5402 0.057 Uiso 1 1 calc R U . . .
H46B H 0.3212 0.0780 0.4608 0.057 Uiso 1 1 calc R U . . .
H46C H 0.2725 0.1555 0.5003 0.057 Uiso 1 1 calc R U . . .
C47 C 0.46730(19) 0.07191(16) 0.58508(11) 0.0435(5) Uani 1 1 d . . . . .
H47A H 0.4206 0.0406 0.6126 0.052 Uiso 1 1 calc R U . . .
H47B H 0.4689 0.1249 0.6015 0.052 Uiso 1 1 calc R U . . .
H47C H 0.5384 0.0302 0.5881 0.052 Uiso 1 1 calc R U . . .
C51 C 0.48873(16) 0.42442(14) 0.39172(10) 0.0335(4) Uani 1 1 d . . . . .
H51 H 0.4994 0.3683 0.4243 0.040 Uiso 1 1 calc R U . . .
C52 C 0.42857(17) 0.50061(15) 0.40679(11) 0.0387(5) Uani 1 1 d . . . . .
H52 H 0.3983 0.4975 0.4497 0.046 Uiso 1 1 calc R U . . .
C53 C 0.40950(17) 0.58589(15) 0.35945(12) 0.0399(5) Uani 1 1 d . . . . .
C54 C 0.45546(19) 0.58402(15) 0.29565(12) 0.0427(5) Uani 1 1 d . . . . .
H54 H 0.4431 0.6387 0.2613 0.051 Uiso 1 1 calc R U . . .
C55 C 0.51587(18) 0.50597(14) 0.28351(11) 0.0371(5) Uani 1 1 d . . . . .
H55 H 0.5461 0.5070 0.2407 0.045 Uiso 1 1 calc R U . . .
C56 C 0.3269(3) 0.74900(18) 0.32366(17) 0.0741(9) Uani 1 1 d . . . . .
H56A H 0.2756 0.7953 0.3415 0.089 Uiso 1 1 calc R U . . .
H56B H 0.2975 0.7425 0.2826 0.089 Uiso 1 1 calc R U . . .
H56C H 0.3914 0.7675 0.3133 0.089 Uiso 1 1 calc R U . . .
C57 C 0.3128(3) 0.6634(2) 0.44077(17) 0.0776(10) Uani 1 1 d . . . . .
H57A H 0.2850 0.7265 0.4443 0.093 Uiso 1 1 calc R U . . .
H57B H 0.3706 0.6314 0.4740 0.093 Uiso 1 1 calc R U . . .
H57C H 0.2569 0.6331 0.4493 0.093 Uiso 1 1 calc R U . . .
C61 C 0.74717(16) 0.38584(14) 0.37990(10) 0.0348(4) Uani 1 1 d . . . . .
H61 H 0.6860 0.4267 0.3920 0.042 Uiso 1 1 calc R U . . .
C62 C 0.84205(17) 0.38958(15) 0.39735(11) 0.0379(5) Uani 1 1 d . . . . .
H62 H 0.8464 0.4320 0.4223 0.045 Uiso 1 1 calc R U . . .
C63 C 0.93630(16) 0.33136(14) 0.37933(10) 0.0327(4) Uani 1 1 d . . . . .
C64 C 0.92250(17) 0.26594(14) 0.34566(11) 0.0369(5) Uani 1 1 d . . . . .
H64 H 0.9822 0.2221 0.3352 0.044 Uiso 1 1 calc R U . . .
C65 C 0.82548(17) 0.26594(13) 0.32861(11) 0.0349(4) Uani 1 1 d . . . . .
H65 H 0.8188 0.2236 0.3043 0.042 Uiso 1 1 calc R U . . .
C66 C 1.12612(18) 0.28164(19) 0.37031(15) 0.0558(7) Uani 1 1 d . . . . .
H66A H 1.1873 0.2881 0.3919 0.067 Uiso 1 1 calc R U . . .
H66B H 1.1305 0.3003 0.3213 0.067 Uiso 1 1 calc R U . . .
H66C H 1.1250 0.2180 0.3834 0.067 Uiso 1 1 calc R U . . .
C67 C 1.0385(2) 0.4140(2) 0.42013(18) 0.0735(9) Uani 1 1 d . . . . .
H67A H 1.1127 0.4115 0.4241 0.088 Uiso 1 1 calc R U . . .
H67B H 1.0081 0.4080 0.4647 0.088 Uiso 1 1 calc R U . . .
H67C H 1.0004 0.4723 0.3906 0.088 Uiso 1 1 calc R U . . .
S1 S 0.29468(4) 0.41863(4) 0.20509(3) 0.03685(13) Uani 1 1 d . . . . .
F11 F 0.23865(16) 0.57848(12) 0.23169(14) 0.1051(8) Uani 1 1 d . . . . .
F12 F 0.12037(12) 0.50678(14) 0.25093(12) 0.0906(7) Uani 1 1 d . . . . .
F13 F 0.25405(15) 0.46846(16) 0.31769(10) 0.0855(6) Uani 1 1 d . . . . .
O11 O 0.26832(15) 0.33641(12) 0.23552(10) 0.0575(5) Uani 1 1 d . . . . .
O12 O 0.40258(13) 0.41282(12) 0.21685(9) 0.0506(4) Uani 1 1 d . . . . .
O13 O 0.25437(18) 0.45994(17) 0.13784(10) 0.0811(7) Uani 1 1 d . . . . .
C10 C 0.2229(2) 0.49701(18) 0.25349(17) 0.0568(7) Uani 1 1 d . . . . .
S2 S 0.70050(4) 0.07484(3) 0.28738(3) 0.03407(12) Uani 1 1 d . . . . .
F21 F 0.75948(15) -0.09025(11) 0.26984(13) 0.0989(8) Uani 1 1 d . . . . .
F22 F 0.87786(12) -0.01914(13) 0.24835(12) 0.0857(6) Uani 1 1 d . . . . .
F23 F 0.74792(15) 0.01349(14) 0.17936(10) 0.0822(6) Uani 1 1 d . . . . .
O21 O 0.72445(14) 0.15691(11) 0.25207(9) 0.0475(4) Uani 1 1 d . . . . .
O22 O 0.59332(12) 0.07693(11) 0.27658(8) 0.0435(4) Uani 1 1 d . . . . .
O23 O 0.73974(15) 0.04092(14) 0.35551(9) 0.0630(5) Uani 1 1 d . . . . .
C20 C 0.7756(2) -0.00957(17) 0.24403(17) 0.0558(7) Uani 1 1 d . . . . .
S3 S 0.21068(4) 0.02485(4) 0.34831(3) 0.03932(14) Uani 1 1 d . . . . .
F31 F 0.09402(13) -0.07429(10) 0.32510(8) 0.0578(4) Uani 1 1 d . . . . .
F32 F 0.03783(13) 0.06861(12) 0.27620(10) 0.0778(5) Uani 1 1 d . . . . .
F33 F 0.17089(17) -0.01722(15) 0.23924(8) 0.0858(6) Uani 1 1 d . . . . .
O31 O 0.24310(16) 0.09805(14) 0.30594(10) 0.0636(5) Uani 1 1 d . . . . .
O32 O 0.29147(16) -0.05851(13) 0.36892(12) 0.0710(6) Uani 1 1 d . . . . .
O33 O 0.14333(17) 0.05136(14) 0.40083(10) 0.0671(6) Uani 1 1 d . . . . .
C30 C 0.1242(2) -0.00110(17) 0.29530(13) 0.0484(6) Uani 1 1 d . . . . .
S4A S 0.7832(4) 0.4721(4) 0.1542(4) 0.0514(14) Uani 0.6 1 d D . P A 1
F41A F 0.9266(7) 0.5555(5) 0.1618(3) 0.124(4) Uani 0.6 1 d . . P A 1
F42A F 0.9660(4) 0.4120(4) 0.2159(3) 0.0860(18) Uani 0.6 1 d . . P A 1
F43A F 0.8576(4) 0.5158(3) 0.25053(19) 0.1115(15) Uani 0.6 1 d . . P A 1
O41A O 0.7489(4) 0.4076(5) 0.1978(3) 0.122(2) Uani 0.6 1 d . . P A 1
O42A O 0.7200(7) 0.5590(4) 0.1269(4) 0.102(3) Uani 0.6 1 d . . P A 1
O43A O 0.8424(4) 0.4338(4) 0.0997(3) 0.0964(14) Uani 0.6 1 d . . P A 1
C40A C 0.8897(5) 0.4929(4) 0.1952(3) 0.0497(18) Uiso 0.6 1 d D . P A 1
S4B S 0.7874(5) 0.4690(6) 0.1596(6) 0.0448(18) Uani 0.4 1 d D . P A 2
F41B F 0.9754(3) 0.4721(5) 0.1404(3) 0.0989(18) Uani 0.4 1 d . . P A 2
F42B F 0.9500(7) 0.4364(6) 0.2407(4) 0.114(4) Uani 0.4 1 d . . P A 2
F43B F 0.8959(9) 0.5667(7) 0.1857(8) 0.130(5) Uani 0.4 1 d . . P A 2
O41B O 0.7199(4) 0.4833(4) 0.2192(3) 0.0602(13) Uani 0.4 1 d . . P A 2
O42B O 0.7484(9) 0.5294(7) 0.1034(5) 0.123(5) Uani 0.4 1 d . . P A 2
O43B O 0.8152(5) 0.3775(5) 0.1606(5) 0.108(3) Uani 0.4 1 d . . P A 2
C40B C 0.9087(7) 0.4827(6) 0.1851(4) 0.044(2) Uiso 0.4 1 d D . P A 2
S5 S 0.33371(5) 0.86526(4) 0.03554(3) 0.05047(17) Uani 1 1 d . . . . .
F51 F 0.3272(2) 0.87183(18) 0.16081(10) 0.1162(8) Uani 1 1 d . . . . .
F52 F 0.3217(3) 0.74457(16) 0.14413(13) 0.1439(12) Uani 1 1 d . . . . .
F53 F 0.18877(18) 0.86056(18) 0.12410(13) 0.1112(8) Uani 1 1 d . . . . .
O51 O 0.28917(19) 0.81760(17) -0.00017(12) 0.0896(8) Uani 1 1 d . . . . .
O52 O 0.2918(3) 0.96053(15) 0.01897(13) 0.1165(11) Uani 1 1 d . . . . .
O53 O 0.44480(17) 0.8329(2) 0.04084(15) 0.1010(9) Uani 1 1 d . . . . .
C50 C 0.2917(3) 0.8334(2) 0.11965(15) 0.0670(8) Uani 1 1 d . . . . .
S6 S 0.36962(5) 0.34398(4) 0.57796(3) 0.04736(16) Uani 1 1 d . . . . .
F61 F 0.20343(16) 0.36703(16) 0.65127(11) 0.0981(7) Uani 1 1 d . . . . .
F62 F 0.16889(18) 0.40069(18) 0.54817(13) 0.1207(9) Uani 1 1 d . . . . .
F63 F 0.2254(2) 0.25921(17) 0.60055(16) 0.1306(10) Uani 1 1 d . . . . .
O61 O 0.3894(2) 0.31250(14) 0.51749(11) 0.0861(8) Uani 1 1 d . . . . .
O62 O 0.42673(16) 0.28297(14) 0.63667(11) 0.0741(6) Uani 1 1 d . . . . .
O63 O 0.36336(16) 0.43789(12) 0.57019(10) 0.0617(5) Uani 1 1 d . . . . .
C60 C 0.2356(3) 0.3420(2) 0.59513(17) 0.0692(8) Uani 1 1 d . . . . .
N1S N -0.1322(2) 0.17259(18) 0.49987(13) 0.0733(7) Uani 1 1 d . . . . .
C1S C -0.0511(2) 0.1291(2) 0.52181(14) 0.0685(8) Uani 1 1 d . . . . .
C2S C 0.0503(2) 0.0707(3) 0.54846(17) 0.1059(15) Uani 1 1 d . . . . .
H2SA H 0.0412 0.0226 0.5866 0.127 Uiso 1 1 calc R U . . .
H2SB H 0.0903 0.1064 0.5635 0.127 Uiso 1 1 calc R U . . .
H2SC H 0.0885 0.0432 0.5134 0.127 Uiso 1 1 calc R U . . .
loop_
_atom_site_aniso_label
_atom_site_aniso_U_11
_atom_site_aniso_U_22
_atom_site_aniso_U_33
_atom_site_aniso_U_23
_atom_site_aniso_U_13
_atom_site_aniso_U_12
P1 0.0307(3) 0.0316(3) 0.0264(2) -0.0069(2) 0.0021(2) -0.0101(2)
N11 0.0308(9) 0.0327(9) 0.0303(8) -0.0100(7) 0.0037(7) -0.0108(7)
N12 0.0329(9) 0.0455(11) 0.0431(10) -0.0131(8) -0.0006(8) -0.0117(8)
N21 0.0289(8) 0.0312(8) 0.0270(8) -0.0054(7) 0.0007(6) -0.0070(7)
N22 0.0541(12) 0.0365(10) 0.0477(12) -0.0127(9) -0.0031(9) -0.0001(9)
N31 0.0300(8) 0.0298(8) 0.0275(8) -0.0037(7) -0.0008(6) -0.0081(7)
N32 0.0415(10) 0.0366(9) 0.0370(10) 0.0004(8) 0.0032(8) -0.0153(8)
C11 0.0344(11) 0.0330(10) 0.0327(10) -0.0116(8) 0.0039(8) -0.0077(8)
C12 0.0324(11) 0.0335(10) 0.0363(11) -0.0111(9) 0.0023(8) -0.0048(8)
C13 0.0300(10) 0.0322(10) 0.0323(10) -0.0039(8) -0.0011(8) -0.0083(8)
C14 0.0361(11) 0.0411(12) 0.0398(11) -0.0197(10) 0.0000(9) -0.0066(9)
C15 0.0305(10) 0.0428(12) 0.0364(11) -0.0186(9) 0.0046(8) -0.0081(9)
C16 0.0294(12) 0.0721(18) 0.0632(16) -0.0236(14) 0.0039(11) -0.0141(11)
C17 0.0415(14) 0.0736(19) 0.090(2) -0.0446(17) -0.0047(14) -0.0187(13)
C21 0.0369(11) 0.0357(11) 0.0277(10) -0.0050(8) 0.0044(8) -0.0094(9)
C22 0.0338(11) 0.0422(12) 0.0336(11) -0.0113(9) 0.0033(8) -0.0106(9)
C23 0.0349(11) 0.0369(11) 0.0404(11) -0.0134(9) -0.0037(9) -0.0090(9)
C24 0.0474(13) 0.0340(11) 0.0357(11) -0.0035(9) -0.0020(9) -0.0137(10)
C25 0.0396(11) 0.0351(10) 0.0284(10) -0.0065(8) 0.0021(8) -0.0148(9)
C26 0.0516(15) 0.0528(15) 0.0553(15) -0.0243(12) 0.0057(12) 0.0001(12)
C27 0.162(4) 0.0423(17) 0.067(2) -0.0058(15) 0.026(2) 0.011(2)
C31 0.0307(10) 0.0363(11) 0.0308(10) -0.0053(8) -0.0048(8) -0.0094(8)
C32 0.0365(11) 0.0343(11) 0.0291(10) -0.0021(8) -0.0044(8) -0.0070(9)
C33 0.0356(11) 0.0276(10) 0.0322(10) -0.0063(8) 0.0028(8) -0.0072(8)
C34 0.0301(10) 0.0369(11) 0.0334(10) -0.0069(8) -0.0007(8) -0.0102(8)
C35 0.0307(10) 0.0302(10) 0.0293(10) -0.0054(8) -0.0029(8) -0.0063(8)
C36 0.0606(16) 0.0516(14) 0.0388(13) 0.0034(11) 0.0036(11) -0.0213(12)
C37 0.0457(14) 0.0570(15) 0.0570(16) 0.0061(12) -0.0014(12) -0.0270(12)
P2 0.0312(3) 0.0307(3) 0.0275(3) -0.0072(2) 0.0025(2) -0.0092(2)
N41 0.0311(9) 0.0269(8) 0.0301(8) -0.0049(7) 0.0000(7) -0.0078(7)
N42 0.0342(9) 0.0308(9) 0.0374(9) -0.0045(7) 0.0026(7) -0.0112(7)
N51 0.0292(8) 0.0286(8) 0.0309(8) -0.0060(7) 0.0008(7) -0.0063(7)
N52 0.0505(12) 0.0384(11) 0.0684(14) -0.0218(10) -0.0077(11) 0.0012(9)
N61 0.0297(8) 0.0311(8) 0.0314(8) -0.0092(7) 0.0043(7) -0.0098(7)
N62 0.0300(9) 0.0509(11) 0.0418(10) -0.0085(9) 0.0019(8) -0.0113(8)
C41 0.0308(10) 0.0303(10) 0.0303(10) -0.0082(8) -0.0022(8) -0.0065(8)
C42 0.0303(10) 0.0310(10) 0.0348(10) -0.0090(8) -0.0016(8) -0.0090(8)
C43 0.0347(10) 0.0224(9) 0.0336(10) -0.0050(8) -0.0007(8) -0.0049(8)
C44 0.0336(10) 0.0313(10) 0.0310(10) -0.0046(8) -0.0034(8) -0.0064(8)
C45 0.0297(10) 0.0301(10) 0.0341(10) -0.0053(8) -0.0031(8) -0.0069(8)
C46 0.0396(13) 0.0500(14) 0.0510(14) -0.0012(11) 0.0010(10) -0.0204(11)
C47 0.0463(13) 0.0441(13) 0.0374(12) -0.0011(10) 0.0025(10) -0.0159(10)
C51 0.0346(11) 0.0308(10) 0.0326(10) -0.0052(8) 0.0028(8) -0.0076(8)
C52 0.0346(11) 0.0406(12) 0.0417(12) -0.0159(10) 0.0037(9) -0.0070(9)
C53 0.0328(11) 0.0354(11) 0.0515(13) -0.0149(10) -0.0091(10) -0.0046(9)
C54 0.0504(14) 0.0301(11) 0.0456(13) -0.0030(9) -0.0083(10) -0.0122(10)
C55 0.0451(12) 0.0344(11) 0.0316(10) -0.0023(8) -0.0020(9) -0.0150(9)
C56 0.084(2) 0.0329(14) 0.091(2) -0.0130(14) -0.0212(18) 0.0081(14)
C57 0.071(2) 0.071(2) 0.084(2) -0.0455(18) 0.0013(17) 0.0124(16)
C61 0.0334(11) 0.0366(11) 0.0366(11) -0.0161(9) 0.0051(8) -0.0078(9)
C62 0.0349(11) 0.0444(12) 0.0398(11) -0.0184(10) 0.0030(9) -0.0132(9)
C63 0.0337(11) 0.0345(10) 0.0270(9) -0.0014(8) 0.0015(8) -0.0102(8)
C64 0.0309(10) 0.0337(11) 0.0414(12) -0.0083(9) 0.0069(9) -0.0030(8)
C65 0.0381(11) 0.0295(10) 0.0376(11) -0.0108(8) 0.0043(9) -0.0083(8)
C66 0.0302(12) 0.0585(16) 0.0738(19) -0.0136(14) 0.0017(12) -0.0068(11)
C67 0.0477(16) 0.108(3) 0.092(2) -0.057(2) 0.0097(15) -0.0394(17)
S1 0.0374(3) 0.0377(3) 0.0363(3) -0.0070(2) 0.0003(2) -0.0134(2)
F11 0.0730(13) 0.0432(10) 0.205(3) -0.0460(13) -0.0038(15) -0.0105(9)
F12 0.0317(8) 0.1074(15) 0.1511(19) -0.0772(14) 0.0044(10) -0.0104(9)
F13 0.0691(12) 0.1346(17) 0.0784(13) -0.0701(13) 0.0127(10) -0.0330(11)
O11 0.0695(12) 0.0452(10) 0.0701(12) -0.0210(9) 0.0164(10) -0.0315(9)
O12 0.0355(9) 0.0534(10) 0.0671(11) -0.0222(9) 0.0048(8) -0.0132(7)
O13 0.0750(15) 0.1129(19) 0.0413(11) 0.0017(11) -0.0106(10) -0.0201(13)
C10 0.0352(13) 0.0521(15) 0.092(2) -0.0336(15) 0.0007(13) -0.0122(11)
S2 0.0338(3) 0.0339(3) 0.0350(3) -0.0066(2) -0.0022(2) -0.0113(2)
F21 0.0760(13) 0.0376(9) 0.185(2) -0.0363(12) 0.0001(14) -0.0102(8)
F22 0.0334(8) 0.0909(13) 0.1455(18) -0.0657(13) 0.0021(10) -0.0062(8)
F23 0.0720(12) 0.1147(15) 0.0844(13) -0.0699(12) 0.0106(10) -0.0273(11)
O21 0.0579(10) 0.0405(9) 0.0520(10) -0.0150(8) 0.0107(8) -0.0244(8)
O22 0.0351(8) 0.0439(9) 0.0525(10) -0.0110(7) -0.0008(7) -0.0130(7)
O23 0.0602(12) 0.0819(14) 0.0383(9) -0.0011(9) -0.0118(8) -0.0161(10)
C20 0.0361(13) 0.0452(14) 0.092(2) -0.0303(14) -0.0047(13) -0.0091(11)
S3 0.0381(3) 0.0390(3) 0.0414(3) -0.0086(2) 0.0020(2) -0.0129(2)
F31 0.0646(10) 0.0510(8) 0.0624(9) -0.0048(7) -0.0047(8) -0.0303(8)
F32 0.0550(10) 0.0667(11) 0.0968(14) 0.0114(10) -0.0289(9) -0.0161(8)
F33 0.1179(16) 0.1122(15) 0.0456(9) -0.0320(10) 0.0132(10) -0.0516(13)
O31 0.0673(13) 0.0653(12) 0.0653(12) -0.0059(10) 0.0124(10) -0.0396(10)
O32 0.0605(12) 0.0561(12) 0.0879(15) -0.0113(11) -0.0299(11) -0.0044(10)
O33 0.0861(15) 0.0735(13) 0.0580(12) -0.0313(10) 0.0295(11) -0.0387(11)
C30 0.0508(14) 0.0469(14) 0.0452(13) -0.0016(11) -0.0050(11) -0.0176(11)
S4A 0.047(2) 0.048(2) 0.062(2) -0.0102(15) -0.0063(14) -0.0200(18)
F41A 0.167(8) 0.127(7) 0.089(3) 0.055(4) -0.063(4) -0.119(6)
F42A 0.054(2) 0.073(2) 0.120(5) -0.024(3) -0.040(2) 0.0049(17)
F43A 0.142(4) 0.124(3) 0.066(2) -0.046(2) -0.035(2) -0.010(3)
O41A 0.091(4) 0.159(5) 0.106(4) 0.060(4) -0.030(3) -0.091(4)
O42A 0.105(5) 0.049(2) 0.137(6) -0.026(3) -0.078(4) 0.014(2)
O43A 0.092(3) 0.122(4) 0.100(3) -0.073(3) 0.009(3) -0.032(3)
S4B 0.029(2) 0.043(3) 0.056(3) -0.015(2) -0.0096(16) 0.0050(18)
F41B 0.041(2) 0.166(6) 0.086(4) -0.027(4) 0.027(2) -0.030(3)
F42B 0.121(7) 0.140(8) 0.074(5) 0.075(5) -0.070(4) -0.101(7)
F43B 0.081(4) 0.069(5) 0.263(16) -0.049(8) 0.002(7) -0.048(4)
O41B 0.046(3) 0.081(4) 0.069(3) -0.032(3) 0.025(2) -0.034(3)
O42B 0.096(8) 0.163(11) 0.079(6) 0.075(7) -0.064(6) -0.067(8)
O43B 0.070(4) 0.083(4) 0.206(9) -0.092(6) 0.029(5) -0.031(3)
S5 0.0503(4) 0.0515(4) 0.0511(4) -0.0219(3) 0.0113(3) -0.0099(3)
F51 0.136(2) 0.166(2) 0.0658(13) -0.0607(14) -0.0027(12) -0.0453(17)
F52 0.227(3) 0.0690(14) 0.0944(18) 0.0123(12) 0.0399(19) -0.0075(17)
F53 0.0872(15) 0.140(2) 0.1219(19) -0.0464(16) 0.0564(14) -0.0497(14)
O51 0.0868(16) 0.1111(19) 0.0798(15) -0.0609(14) -0.0178(12) -0.0076(14)
O52 0.183(3) 0.0501(13) 0.0932(18) -0.0156(12) 0.0804(19) -0.0074(15)
O53 0.0480(13) 0.144(2) 0.131(2) -0.0779(19) 0.0208(13) -0.0241(14)
C50 0.079(2) 0.0670(19) 0.0563(17) -0.0160(15) 0.0092(15) -0.0236(17)
S6 0.0548(4) 0.0393(3) 0.0493(4) -0.0157(3) 0.0132(3) -0.0126(3)
F61 0.0733(13) 0.1234(18) 0.0919(15) -0.0333(13) 0.0339(11) -0.0162(12)
F62 0.0797(15) 0.148(2) 0.126(2) -0.0256(17) -0.0420(14) -0.0194(14)
F63 0.1174(19) 0.1123(18) 0.202(3) -0.0618(19) 0.0397(19) -0.0795(16)
O61 0.143(2) 0.0546(12) 0.0661(14) -0.0304(10) 0.0445(14) -0.0279(13)
O62 0.0639(13) 0.0691(13) 0.0740(14) -0.0004(11) -0.0084(11) -0.0073(10)
O63 0.0733(13) 0.0462(10) 0.0712(13) -0.0240(9) 0.0128(10) -0.0189(9)
C60 0.064(2) 0.075(2) 0.072(2) -0.0141(17) -0.0070(16) -0.0267(16)
N1S 0.0657(17) 0.0721(17) 0.0644(16) 0.0008(13) -0.0010(13) -0.0055(13)
C1S 0.0577(18) 0.088(2) 0.0461(15) -0.0034(15) 0.0084(13) -0.0110(16)
C2S 0.0416(17) 0.198(5) 0.0530(18) -0.014(2) 0.0062(14) -0.009(2)
loop_
_atom_type_symbol
_atom_type_description
_atom_type_scat_dispersion_real
_atom_type_scat_dispersion_imag
_atom_type_scat_source
C C 0.0033 0.0016 'International Tables Vol C Tables 4.2.6.8 and 6.1.1.4'
H H 0.0000 0.0000 'International Tables Vol C Tables 4.2.6.8 and 6.1.1.4'
N N 0.0061 0.0033 'International Tables Vol C Tables 4.2.6.8 and 6.1.1.4'
O O 0.0106 0.0060 'International Tables Vol C Tables 4.2.6.8 and 6.1.1.4'
F F 0.0171 0.0103 'International Tables Vol C Tables 4.2.6.8 and 6.1.1.4'
P P 0.1023 0.0942 'International Tables Vol C Tables 4.2.6.8 and 6.1.1.4'
S S 0.1246 0.1234 'International Tables Vol C Tables 4.2.6.8 and 6.1.1.4'
loop_
_geom_angle_atom_site_label_1
_geom_angle_atom_site_label_2
_geom_angle_atom_site_label_3
_geom_angle
N21 P1 N31 97.40(8)
N21 P1 N11 98.42(8)
N31 P1 N11 99.24(8)
N21 P1 O31 103.15(7)
N31 P1 O31 159.42(7)
N11 P1 O31 77.03(7)
N21 P1 O11 169.30(7)
N31 P1 O11 82.77(6)
N11 P1 O11 92.09(7)
O31 P1 O11 77.20(5)
N21 P1 O22 65.40(6)
N31 P1 O22 95.85(6)
N11 P1 O22 159.25(6)
O31 P1 O22 93.51(5)
O11 P1 O22 103.91(5)
C11 N11 C15 117.57(17)
C11 N11 P1 117.25(13)
C15 N11 P1 124.59(14)
C13 N12 C16 121.48(19)
C13 N12 C17 121.07(19)
C16 N12 C17 117.15(19)
C25 N21 C21 118.19(17)
C25 N21 P1 115.64(13)
C21 N21 P1 126.11(14)
C23 N22 C27 123.1(2)
C23 N22 C26 121.0(2)
C27 N22 C26 115.8(2)
C35 N31 C31 118.39(16)
C35 N31 P1 114.59(13)
C31 N31 P1 127.01(14)
C33 N32 C37 121.94(19)
C33 N32 C36 121.19(19)
C37 N32 C36 116.23(19)
C12 C11 N11 123.10(18)
C11 C12 C13 119.94(18)
N12 C13 C14 121.67(19)
N12 C13 C12 122.32(19)
C14 C13 C12 115.99(18)
C15 C14 C13 120.76(19)
C14 C15 N11 122.34(18)
C22 C21 N21 121.75(19)
C21 C22 C23 121.26(19)
N22 C23 C22 121.6(2)
N22 C23 C24 122.6(2)
C22 C23 C24 115.74(19)
C25 C24 C23 120.5(2)
C24 C25 N21 122.53(19)
C32 C31 N31 121.60(19)
C31 C32 C33 121.27(19)
N32 C33 C32 122.43(19)
N32 C33 C34 121.77(19)
C32 C33 C34 115.80(18)
C35 C34 C33 120.56(19)
C34 C35 N31 122.06(18)
N51 P2 N41 96.73(8)
N51 P2 N61 98.61(8)
N41 P2 N61 98.93(8)
N51 P2 O41A 104.41(16)
N41 P2 O41A 158.04(15)
N61 P2 O41A 72.37(10)
N51 P2 O21 169.31(7)
N41 P2 O21 80.62(6)
N61 P2 O21 92.04(6)
O41A P2 O21 79.62(16)
N51 P2 O12 68.68(6)
N41 P2 O12 98.85(7)
N61 P2 O12 159.24(7)
O41A P2 O12 94.34(9)
O21 P2 O12 101.36(5)
N51 P2 O41B 81.35(10)
N41 P2 O41B 167.32(11)
N61 P2 O41B 69.15(11)
O21 P2 O41B 103.47(9)
O12 P2 O41B 92.15(10)
C41 N41 C45 118.23(16)
C41 N41 P2 114.66(13)
C45 N41 P2 126.74(14)
C43 N42 C46 121.62(18)
C43 N42 C47 121.55(18)
C46 N42 C47 116.09(18)
C55 N51 C51 117.76(17)
C55 N51 P2 116.19(14)
C51 N51 P2 126.03(14)
C53 N52 C57 121.5(2)
C53 N52 C56 121.4(2)
C57 N52 C56 117.0(2)
C65 N61 C61 117.67(17)
C65 N61 P2 116.76(13)
C61 N61 P2 124.52(14)
C63 N62 C66 121.6(2)
C63 N62 C67 120.0(2)
C66 N62 C67 118.1(2)
C42 C41 N41 122.56(18)
C41 C42 C43 120.43(18)
N42 C43 C42 122.35(18)
N42 C43 C44 121.94(18)
C42 C43 C44 115.71(18)
C45 C44 C43 121.08(19)
C44 C45 N41 121.52(18)
C52 C51 N51 122.39(19)
C51 C52 C53 120.9(2)
N52 C53 C52 121.6(2)
N52 C53 C54 122.6(2)
C52 C53 C54 115.84(19)
C55 C54 C53 120.8(2)
C54 C55 N51 122.3(2)
C62 C61 N61 122.02(18)
C61 C62 C63 121.44(19)
N62 C63 C62 121.96(19)
N62 C63 C64 122.55(19)
C62 C63 C64 115.48(18)
C65 C64 C63 120.49(19)
C64 C65 N61 122.75(18)
O13 S1 O11 114.69(14)
O13 S1 O12 115.72(12)
O11 S1 O12 113.20(11)
O13 S1 C10 104.36(15)
O11 S1 C10 103.06(12)
O12 S1 C10 103.80(11)
S1 O11 P1 119.76(10)
S1 O12 P2 151.23(11)
F13 C10 F12 107.3(3)
F13 C10 F11 106.4(2)
F12 C10 F11 108.5(2)
F13 C10 S1 111.37(19)
F12 C10 S1 111.78(18)
F11 C10 S1 111.3(2)
O23 S2 O22 115.48(11)
O23 S2 O21 114.86(11)
O22 S2 O21 113.01(10)
O23 S2 C20 104.60(13)
O22 S2 C20 103.63(10)
O21 S2 C20 103.32(12)
S2 O21 P2 115.11(9)
S2 O22 P1 150.26(9)
F23 C20 F22 107.4(3)
F23 C20 F21 107.2(2)
F22 C20 F21 108.2(2)
F23 C20 S2 111.42(18)
F22 C20 S2 111.48(18)
F21 C20 S2 110.9(2)
O32 S3 O31 115.30(14)
O32 S3 O33 115.00(14)
O31 S3 O33 113.48(12)
O32 S3 C30 103.64(12)
O31 S3 C30 104.56(12)
O33 S3 C30 102.80(13)
S3 O31 P1 148.86(12)
F33 C30 F31 106.9(2)
F33 C30 F32 106.6(2)
F31 C30 F32 108.0(2)
F33 C30 S3 110.97(18)
F31 C30 S3 112.70(17)
F32 C30 S3 111.38(18)
O41A S4A O42A 123.5(6)
O41A S4A O43A 110.3(5)
O42A S4A O43A 109.4(7)
O41A S4A C40A 108.5(5)
O42A S4A C40A 102.8(5)
O43A S4A C40A 99.4(4)
S4A O41A P2 157.9(6)
F41A C40A F43A 106.2(6)
F41A C40A F42A 112.2(7)
F43A C40A F42A 104.2(5)
F41A C40A S4A 115.9(5)
F43A C40A S4A 109.5(5)
F42A C40A S4A 108.3(5)
O42B S4B O43B 119.2(10)
O42B S4B O41B 112.8(7)
O43B S4B O41B 108.2(9)
O42B S4B C40B 110.8(8)
O43B S4B C40B 102.0(6)
O41B S4B C40B 101.9(6)
S4B O41B P2 122.6(4)
F42B C40B F41B 109.1(9)
F42B C40B F43B 106.2(10)
F41B C40B F43B 101.8(9)
F42B C40B S4B 118.4(8)
F41B C40B S4B 110.3(6)
F43B C40B S4B 109.6(8)
O52 S5 O51 115.90(19)
O52 S5 O53 115.49(18)
O51 S5 O53 112.47(14)
O52 S5 C50 102.63(14)
O51 S5 C50 103.64(16)
O53 S5 C50 104.67(17)
F52 C50 F53 107.1(3)
F52 C50 F51 108.4(3)
F53 C50 F51 104.1(3)
F52 C50 S5 112.0(2)
F53 C50 S5 112.7(2)
F51 C50 S5 112.0(2)
O62 S6 O63 115.56(13)
O62 S6 O61 115.16(14)
O63 S6 O61 114.84(12)
O62 S6 C60 102.86(14)
O63 S6 C60 102.57(14)
O61 S6 C60 103.18(16)
F62 C60 F61 104.3(3)
F62 C60 F63 109.2(3)
F61 C60 F63 108.1(3)
F62 C60 S6 111.8(2)
F61 C60 S6 112.2(2)
F63 C60 S6 110.9(2)
N1S C1S C2S 177.2(4)
loop_
_geom_bond_atom_site_label_1
_geom_bond_atom_site_label_2
_geom_bond_distance
P1 N21 1.7578(16)
P1 N31 1.7588(17)
P1 N11 1.7635(17)
P1 O31 3.0395(19)
P1 O11 3.0462(18)
P1 O22 3.2615(17)
N11 C11 1.364(2)
N11 C15 1.379(2)
N12 C13 1.321(3)
N12 C16 1.470(3)
N12 C17 1.477(3)
N21 C25 1.371(3)
N21 C21 1.375(2)
N22 C23 1.320(3)
N22 C27 1.444(4)
N22 C26 1.471(3)
N31 C35 1.373(2)
N31 C31 1.377(2)
N32 C33 1.333(3)
N32 C37 1.460(3)
N32 C36 1.464(3)
C11 C12 1.350(3)
C12 C13 1.427(3)
C13 C14 1.425(3)
C14 C15 1.342(3)
C21 C22 1.349(3)
C22 C23 1.420(3)
C23 C24 1.431(3)
C24 C25 1.345(3)
C31 C32 1.348(3)
C32 C33 1.422(3)
C33 C34 1.428(3)
C34 C35 1.352(3)
P2 N51 1.7541(16)
P2 N41 1.7577(17)
P2 N61 1.7582(17)
P2 O41A 3.026(5)
P2 O21 3.1387(16)
P2 O12 3.2120(18)
P2 O41B 3.250(5)
N41 C41 1.372(3)
N41 C45 1.383(3)
N42 C43 1.330(3)
N42 C46 1.454(3)
N42 C47 1.461(3)
N51 C55 1.374(3)
N51 C51 1.374(3)
N52 C53 1.325(3)
N52 C57 1.448(4)
N52 C56 1.464(4)
N61 C65 1.373(2)
N61 C61 1.376(2)
N62 C63 1.321(3)
N62 C66 1.463(3)
N62 C67 1.471(3)
C41 C42 1.348(3)
C42 C43 1.430(3)
C43 C44 1.432(3)
C44 C45 1.349(3)
C51 C52 1.341(3)
C52 C53 1.419(3)
C53 C54 1.426(3)
C54 C55 1.341(3)
C61 C62 1.342(3)
C62 C63 1.423(3)
C63 C64 1.427(3)
C64 C65 1.346(3)
S1 O13 1.426(2)
S1 O11 1.4306(17)
S1 O12 1.4342(17)
S1 C10 1.811(3)
F11 C10 1.329(3)
F12 C10 1.326(3)
F13 C10 1.324(4)
S2 O23 1.4290(18)
S2 O22 1.4372(16)
S2 O21 1.4378(16)
S2 C20 1.821(3)
F21 C20 1.330(3)
F22 C20 1.326(3)
F23 C20 1.323(4)
S3 O32 1.423(2)
S3 O31 1.4299(18)
S3 O33 1.4383(19)
S3 C30 1.799(3)
F31 C30 1.331(3)
F32 C30 1.338(3)
F33 C30 1.330(3)
S4A O41A 1.355(8)
S4A O42A 1.383(9)
S4A O43A 1.492(8)
S4A C40A 1.815(5)
F41A C40A 1.269(9)
F42A C40A 1.369(8)
F43A C40A 1.293(7)
S4B O42B 1.318(14)
S4B O43B 1.382(10)
S4B O41B 1.512(11)
S4B C40B 1.795(6)
F41B C40B 1.258(10)
F42B C40B 1.246(11)
F43B C40B 1.292(14)
S5 O52 1.407(2)
S5 O51 1.414(2)
S5 O53 1.416(2)
S5 C50 1.790(3)
F51 C50 1.319(4)
F52 C50 1.318(4)
F53 C50 1.318(4)
S6 O62 1.430(2)
S6 O63 1.4310(18)
S6 O61 1.432(2)
S6 C60 1.807(3)
F61 C60 1.323(4)
F62 C60 1.318(4)
F63 C60 1.330(4)
N1S C1S 1.140(4)
C1S C2S 1.438(4)
loop_
_geom_torsion_atom_site_label_1
_geom_torsion_atom_site_label_2
_geom_torsion_atom_site_label_3
_geom_torsion_atom_site_label_4
_geom_torsion
N21 P1 N11 C11 158.99(15)
N31 P1 N11 C11 -102.03(15)
O31 P1 N11 C11 57.34(15)
O11 P1 N11 C11 -19.01(15)
O22 P1 N11 C11 121.84(18)
N21 P1 N11 C15 -11.96(18)
N31 P1 N11 C15 87.02(18)
O31 P1 N11 C15 -113.61(17)
O11 P1 N11 C15 170.04(17)
O22 P1 N11 C15 -49.1(3)
N31 P1 N21 C25 159.97(15)
N11 P1 N21 C25 -99.49(15)
O31 P1 N21 C25 -20.93(15)
O11 P1 N21 C25 69.7(4)
O22 P1 N21 C25 66.89(14)
N31 P1 N21 C21 -17.32(18)
N11 P1 N21 C21 83.22(17)
O31 P1 N21 C21 161.77(16)
O11 P1 N21 C21 -107.6(4)
O22 P1 N21 C21 -110.40(18)
N21 P1 N31 C35 -80.48(14)
N11 P1 N31 C35 179.69(13)
O31 P1 N31 C35 102.0(2)
O11 P1 N31 C35 88.74(13)
O22 P1 N31 C35 -14.60(14)
N21 P1 N31 C31 100.93(17)
N11 P1 N31 C31 1.10(18)
O31 P1 N31 C31 -76.6(3)
O11 P1 N31 C31 -89.86(16)
O22 P1 N31 C31 166.81(16)
C15 N11 C11 C12 2.2(3)
P1 N11 C11 C12 -169.41(17)
N11 C11 C12 C13 2.4(3)
C16 N12 C13 C14 177.8(2)
C17 N12 C13 C14 4.2(3)
C16 N12 C13 C12 -0.8(3)
C17 N12 C13 C12 -174.4(2)
C11 C12 C13 N12 172.8(2)
C11 C12 C13 C14 -5.9(3)
N12 C13 C14 C15 -173.6(2)
C12 C13 C14 C15 5.1(3)
C13 C14 C15 N11 -0.7(3)
C11 N11 C15 C14 -3.1(3)
P1 N11 C15 C14 167.86(17)
C25 N21 C21 C22 1.7(3)
P1 N21 C21 C22 178.89(16)
N21 C21 C22 C23 -0.5(3)
C27 N22 C23 C22 -178.4(3)
C26 N22 C23 C22 -1.4(3)
C27 N22 C23 C24 2.9(4)
C26 N22 C23 C24 179.9(2)
C21 C22 C23 N22 -179.6(2)
C21 C22 C23 C24 -0.8(3)
N22 C23 C24 C25 179.8(2)
C22 C23 C24 C25 1.0(3)
C23 C24 C25 N21 0.1(3)
C21 N21 C25 C24 -1.4(3)
P1 N21 C25 C24 -178.94(17)
C35 N31 C31 C32 4.6(3)
P1 N31 C31 C32 -176.81(16)
N31 C31 C32 C33 0.0(3)
C37 N32 C33 C32 -178.2(2)
C36 N32 C33 C32 -7.7(3)
C37 N32 C33 C34 2.4(3)
C36 N32 C33 C34 172.9(2)
C31 C32 C33 N32 176.0(2)
C31 C32 C33 C34 -4.5(3)
N32 C33 C34 C35 -175.91(19)
C32 C33 C34 C35 4.6(3)
C33 C34 C35 N31 -0.2(3)
C31 N31 C35 C34 -4.5(3)
P1 N31 C35 C34 176.73(15)
N51 P2 N41 C41 80.83(14)
N61 P2 N41 C41 -179.32(13)
O41A P2 N41 C41 -114.8(3)
O21 P2 N41 C41 -88.71(13)
O12 P2 N41 C41 11.45(14)
O41B P2 N41 C41 161.3(4)
N51 P2 N41 C45 -92.06(17)
N61 P2 N41 C45 7.80(17)
O41A P2 N41 C45 72.3(4)
O21 P2 N41 C45 98.40(16)
O12 P2 N41 C45 -161.44(15)
O41B P2 N41 C45 -11.6(5)
N41 P2 N51 C55 -160.88(15)
N61 P2 N51 C55 98.99(15)
O41A P2 N51 C55 25.09(18)
O21 P2 N51 C55 -85.9(4)
O12 P2 N51 C55 -63.97(14)
O41B P2 N51 C55 31.77(17)
N41 P2 N51 C51 17.85(18)
N61 P2 N51 C51 -82.29(18)
O41A P2 N51 C51 -156.19(18)
O21 P2 N51 C51 92.8(4)
O12 P2 N51 C51 114.75(18)
O41B P2 N51 C51 -149.51(19)
N51 P2 N61 C65 -169.94(15)
N41 P2 N61 C65 91.80(15)
O41A P2 N61 C65 -67.5(2)
O21 P2 N61 C65 10.97(15)
O12 P2 N61 C65 -119.58(19)
O41B P2 N61 C65 -92.67(17)
N51 P2 N61 C61 -1.98(18)
N41 P2 N61 C61 -100.25(17)
O41A P2 N61 C61 100.5(2)
O21 P2 N61 C61 178.93(16)
O12 P2 N61 C61 48.4(3)
O41B P2 N61 C61 75.28(18)
C45 N41 C41 C42 4.7(3)
P2 N41 C41 C42 -168.85(15)
N41 C41 C42 C43 1.2(3)
C46 N42 C43 C42 -3.5(3)
C47 N42 C43 C42 -173.25(18)
C46 N42 C43 C44 176.64(19)
C47 N42 C43 C44 6.9(3)
C41 C42 C43 N42 173.83(18)
C41 C42 C43 C44 -6.3(3)
N42 C43 C44 C45 -174.28(19)
C42 C43 C44 C45 5.8(3)
C43 C44 C45 N41 -0.2(3)
C41 N41 C45 C44 -5.1(3)
P2 N41 C45 C44 167.53(15)
C55 N51 C51 C52 -2.4(3)
P2 N51 C51 C52 178.88(16)
N51 C51 C52 C53 0.7(3)
C57 N52 C53 C52 6.4(4)
C56 N52 C53 C52 -176.6(2)
C57 N52 C53 C54 -174.6(2)
C56 N52 C53 C54 2.4(4)
C51 C52 C53 N52 -179.3(2)
C51 C52 C53 C54 1.7(3)
N52 C53 C54 C55 178.6(2)
C52 C53 C54 C55 -2.4(3)
C53 C54 C55 N51 0.8(3)
C51 N51 C55 C54 1.7(3)
P2 N51 C55 C54 -179.49(18)
C65 N61 C61 C62 0.6(3)
P2 N61 C61 C62 -167.30(17)
N61 C61 C62 C63 1.3(3)
C66 N62 C63 C62 -177.3(2)
C67 N62 C63 C62 -4.7(3)
C66 N62 C63 C64 1.0(3)
C67 N62 C63 C64 173.6(2)
C61 C62 C63 N62 174.7(2)
C61 C62 C63 C64 -3.8(3)
N62 C63 C64 C65 -173.8(2)
C62 C63 C64 C65 4.6(3)
C63 C64 C65 N61 -3.1(3)
C61 N61 C65 C64 0.4(3)
P2 N61 C65 C64 169.17(17)
O13 S1 O11 P1 71.80(16)
O12 S1 O11 P1 -63.99(14)
C10 S1 O11 P1 -175.45(12)
O13 S1 O12 P2 -163.11(19)
O11 S1 O12 P2 -27.8(2)
C10 S1 O12 P2 83.2(2)
O13 S1 C10 F13 -178.45(19)
O11 S1 C10 F13 61.4(2)
O12 S1 C10 F13 -56.8(2)
O13 S1 C10 F12 61.6(3)
O11 S1 C10 F12 -58.5(3)
O12 S1 C10 F12 -176.8(2)
O13 S1 C10 F11 -59.9(2)
O11 S1 C10 F11 179.9(2)
O12 S1 C10 F11 61.7(2)
O23 S2 O21 P2 -65.99(13)
O22 S2 O21 P2 69.41(11)
C20 S2 O21 P2 -179.27(11)
O23 S2 O22 P1 153.53(17)
O21 S2 O22 P1 18.4(2)
C20 S2 O22 P1 -92.7(2)
O23 S2 C20 F23 -179.49(18)
O22 S2 C20 F23 59.1(2)
O21 S2 C20 F23 -59.0(2)
O23 S2 C20 F22 -59.5(2)
O22 S2 C20 F22 179.1(2)
O21 S2 C20 F22 61.1(2)
O23 S2 C20 F21 61.2(2)
O22 S2 C20 F21 -60.2(2)
O21 S2 C20 F21 -178.25(19)
O32 S3 O31 P1 41.3(3)
O33 S3 O31 P1 177.0(2)
C30 S3 O31 P1 -71.8(2)
O32 S3 C30 F33 -67.1(2)
O31 S3 C30 F33 54.1(2)
O33 S3 C30 F33 172.85(19)
O32 S3 C30 F31 52.8(2)
O31 S3 C30 F31 174.00(18)
O33 S3 C30 F31 -67.2(2)
O32 S3 C30 F32 174.39(19)
O31 S3 C30 F32 -64.5(2)
O33 S3 C30 F32 54.3(2)
O42A S4A O41A P2 -28.4(15)
O43A S4A O41A P2 -160.5(8)
C40A S4A O41A P2 91.6(10)
O41A S4A C40A F41A -176.4(8)
O42A S4A C40A F41A -44.1(9)
O43A S4A C40A F41A 68.4(8)
O41A S4A C40A F43A -56.4(7)
O42A S4A C40A F43A 75.9(7)
O43A S4A C40A F43A -171.6(5)
O41A S4A C40A F42A 56.6(7)
O42A S4A C40A F42A -171.1(6)
O43A S4A C40A F42A -58.7(6)
O42B S4B O41B P2 120.4(7)
O43B S4B O41B P2 -13.7(8)
C40B S4B O41B P2 -120.8(5)
O42B S4B C40B F42B 173.1(11)
O43B S4B C40B F42B -58.9(13)
O41B S4B C40B F42B 52.9(11)
O42B S4B C40B F41B -60.2(11)
O43B S4B C40B F41B 67.8(10)
O41B S4B C40B F41B 179.6(7)
O42B S4B C40B F43B 51.1(13)
O43B S4B C40B F43B 179.1(11)
O41B S4B C40B F43B -69.1(11)
O52 S5 C50 F52 178.5(3)
O51 S5 C50 F52 57.5(3)
O53 S5 C50 F52 -60.5(3)
O52 S5 C50 F53 57.6(3)
O51 S5 C50 F53 -63.4(3)
O53 S5 C50 F53 178.6(2)
O52 S5 C50 F51 -59.4(3)
O51 S5 C50 F51 179.6(2)
O53 S5 C50 F51 61.6(3)
O62 S6 C60 F62 175.0(2)
O63 S6 C60 F62 54.7(3)
O61 S6 C60 F62 -64.9(3)
O62 S6 C60 F61 58.1(3)
O63 S6 C60 F61 -62.1(3)
O61 S6 C60 F61 178.2(2)
O62 S6 C60 F63 -62.9(3)
O63 S6 C60 F63 176.8(2)
O61 S6 C60 F63 57.2(3)
loop_
_platon_squeeze_void_nr
_platon_squeeze_void_average_x
_platon_squeeze_void_average_y
_platon_squeeze_void_average_z
_platon_squeeze_void_volume
_platon_squeeze_void_count_electrons
_platon_squeeze_void_content
1 0.000 0.500 1.000 489 101 ' '
