#------------------------------------------------------------------------------
#$Date: 2015-09-06 04:04:04 +0300 (Sun, 06 Sep 2015) $
#$Revision: 154765 $
#$URL: svn://www.crystallography.net/cod/cif/1/52/92/1529281.cif $
#------------------------------------------------------------------------------
#
# This file is available in the Crystallography Open Database (COD),
# http://www.crystallography.net/
#
# All data on this site have been placed in the public domain by the
# contributors.
#
data_1529281
loop_
_publ_author_name
'Kuppusamy, Ramajayam'
'Gandeepan, Parthasarathy'
'Cheng, Chien-Hong'
_publ_section_title
;
 Rh(III)-Catalyzed [4 + 1] Annulations of 2-Hydroxy- and
 2-Aminobenzaldehydes with Allenes: A Simple Method toward 3-Coumaranones
 and 3-Indolinones.
;
_journal_issue                   15
_journal_name_full               'Organic letters'
_journal_page_first              3846
_journal_page_last               3849
_journal_paper_doi               10.1021/acs.orglett.5b01825
_journal_volume                  17
_journal_year                    2015
_chemical_formula_sum            'C24 H21 N O4 S'
_chemical_formula_weight         419.48
_space_group_crystal_system      monoclinic
_space_group_IT_number           14
_space_group_name_Hall           '-P 2ybc'
_space_group_name_H-M_alt        'P 1 21/c 1'
_symmetry_space_group_name_Hall  '-P 2ybc'
_symmetry_space_group_name_H-M   'P 1 21/c 1'
_atom_sites_solution_hydrogens   geom
_audit_creation_method           SHELXL-2014/6
_cell_angle_alpha                90
_cell_angle_beta                 103.1890(10)
_cell_angle_gamma                90
_cell_formula_units_Z            4
_cell_length_a                   17.7457(8)
_cell_length_b                   5.8725(3)
_cell_length_c                   20.1502(9)
_cell_measurement_reflns_used    5453
_cell_measurement_temperature    100(2)
_cell_measurement_theta_max      26.3689
_cell_measurement_theta_min      2.6112
_cell_volume                     2044.50(17)
_computing_cell_refinement       'SAINT V8.34A (Bruker AXS Inc., 2013)'
_computing_data_collection       'APEX2 (Bruker AXS, 2010)'
_computing_data_reduction        'SAINT V8.34A (Bruker AXS Inc., 2013)'
_computing_molecular_graphics    'SHELXTL (Sheldrick, 2008)'
_computing_publication_material  SHELXTL
_computing_structure_refinement  'SHELXL-2014/6 (Sheldrick, 2014)'
_diffrn_ambient_temperature      100(2)
_diffrn_detector_area_resol_mean 8.3333
_diffrn_measured_fraction_theta_full 0.989
_diffrn_measured_fraction_theta_max 0.986
_diffrn_measurement_device_type  'Bruker APEX-II CCD'
_diffrn_measurement_method       '\f and \w scans'
_diffrn_radiation_type           MoK\a
_diffrn_radiation_wavelength     0.71073
_diffrn_reflns_av_R_equivalents  0.0280
_diffrn_reflns_av_unetI/netI     0.0243
_diffrn_reflns_laue_measured_fraction_full 0.989
_diffrn_reflns_laue_measured_fraction_max 0.986
_diffrn_reflns_limit_h_max       22
_diffrn_reflns_limit_h_min       -22
_diffrn_reflns_limit_k_max       3
_diffrn_reflns_limit_k_min       -7
_diffrn_reflns_limit_l_max       25
_diffrn_reflns_limit_l_min       -25
_diffrn_reflns_number            16884
_diffrn_reflns_point_group_measured_fraction_full 0.989
_diffrn_reflns_point_group_measured_fraction_max 0.986
_diffrn_reflns_theta_full        25.242
_diffrn_reflns_theta_max         26.464
_diffrn_reflns_theta_min         2.141
_exptl_absorpt_coefficient_mu    0.190
_exptl_absorpt_correction_T_max  0.9485
_exptl_absorpt_correction_T_min  0.8841
_exptl_absorpt_correction_type   multi-scan
_exptl_absorpt_process_details   'SADABS V2014/4 (Bruker AXS Inc.)'
_exptl_crystal_colour            Colorless
_exptl_crystal_density_diffrn    1.363
_exptl_crystal_density_meas      ?
_exptl_crystal_density_method    'not measured'
_exptl_crystal_description       Lump
_exptl_crystal_F_000             880
_exptl_crystal_size_max          0.25
_exptl_crystal_size_mid          0.20
_exptl_crystal_size_min          0.20
_refine_diff_density_max         0.240
_refine_diff_density_min         -0.296
_refine_diff_density_rms         0.034
_refine_ls_extinction_method     none
_refine_ls_goodness_of_fit_ref   1.028
_refine_ls_hydrogen_treatment    constr
_refine_ls_matrix_type           full
_refine_ls_number_parameters     273
_refine_ls_number_reflns         4171
_refine_ls_number_restraints     0
_refine_ls_restrained_S_all      1.028
_refine_ls_R_factor_all          0.0505
_refine_ls_R_factor_gt           0.0360
_refine_ls_shift/su_max          0.000
_refine_ls_shift/su_mean         0.000
_refine_ls_structure_factor_coef Fsqd
_refine_ls_weighting_details
'w=1/[\s^2^(Fo^2^)+(0.0375P)^2^+0.7013P] where P=(Fo^2^+2Fc^2^)/3'
_refine_ls_weighting_scheme      calc
_refine_ls_wR_factor_gt          0.0841
_refine_ls_wR_factor_ref         0.0929
_reflns_Friedel_coverage         0.000
_reflns_number_gt                3265
_reflns_number_total             4171
_reflns_threshold_expression     'I > 2\s(I)'
_cod_data_source_file            ol5b01825_si_003.cif
_cod_data_source_block           mo_150509LT_0m
_cod_depositor_comments
;
The following automatic conversions were performed:

'_exptl_crystal_density_meas' value 'not measured' was changed to '?'
- the value is perceived as not measured.

Automatic conversion script
Id: cif_fix_values 3271 2015-04-21 07:52:19Z andrius 

 Adding full bibliography for 1529281--1529282.cif.
;
_cod_database_code               1529281
_shelx_space_group_comment
;
The symmetry employed for this shelxl refinement is uniquely defined
by the following loop, which should always be used as a source of
symmetry information in preference to the above space-group names.
They are only intended as comments.
;
_shelxl_version_number           2014/6
_shelx_res_file
;
TITL mo_150509LT_0m in P2(1)/c
CELL 0.71073 17.7457 5.8725 20.1502 90.000 103.189 90.000
ZERR 4.00 0.0008 0.0003 0.0009 0.000 0.001 0.000
LATT 1
SYMM -x, y+1/2, -z+1/2
SFAC C  H  N  O  S
UNIT 96  84  4  16  4
L.S. 4
ACTA
BOND $H
FMAP 2
PLAN 5
TEMP -173.000
WGHT    0.037500    0.701300
FVAR       0.87201
S1    5    0.151471    0.904053    0.234006    11.00000    0.04985    0.03513 =
         0.03344   -0.00053    0.01289    0.00847
O1    4    0.332155    0.712456    0.465768    11.00000    0.05551    0.07669 =
         0.03996    0.00782    0.00148   -0.00496
O2    4    0.251202    0.424793    0.061907    11.00000    0.05838    0.05093 =
         0.05426   -0.00796    0.02940    0.00443
O3    4    0.207592    1.080024    0.236648    11.00000    0.07205    0.03210 =
         0.04540   -0.00150    0.01749   -0.00366
O4    4    0.071995    0.960594    0.227667    11.00000    0.05512    0.06232 =
         0.04753   -0.00155    0.01692    0.02426
N1    3    0.155730    0.742545    0.168093    11.00000    0.03777    0.03879 =
         0.03216   -0.00236    0.01127    0.00376
C1    1    0.374983    0.913411    0.460587    11.00000    0.05694    0.07939 =
         0.05474   -0.00756    0.00274   -0.01168
AFIX 137
H21   2    0.396275    0.904726    0.419859    11.00000   -1.50000
H1    2    0.417380    0.928016    0.501132    11.00000   -1.50000
H3    2    0.340843    1.046144    0.457195    11.00000   -1.50000
AFIX   0
C2    1    0.269252    0.666775    0.414690    11.00000    0.04439    0.05225 =
         0.03096   -0.00100    0.01212    0.00455
C3    1    0.246178    0.798525    0.356288    11.00000    0.04585    0.04227 =
         0.03516   -0.00069    0.01541   -0.00192
AFIX  43
H4    2    0.274274    0.931170    0.349768    11.00000   -1.20000
AFIX   0
C4    1    0.181189    0.732033    0.307708    11.00000    0.04498    0.03718 =
         0.03038   -0.00227    0.01347    0.00334
C5    1    0.230889    0.698457    0.146920    11.00000    0.03743    0.03317 =
         0.03525    0.00389    0.01359    0.00401
C6    1    0.291975    0.615729    0.206944    11.00000    0.04004    0.03263 =
         0.03661    0.00470    0.01372    0.00242
AFIX  43
H11   2    0.281372    0.480755    0.229160    11.00000   -1.20000
AFIX   0
C7    1    0.359060    0.717048    0.230868    11.00000    0.04282    0.04039 =
         0.04073    0.00650    0.01478   -0.00032
AFIX  43
H16   2    0.369862    0.846105    0.206163    11.00000   -1.20000
AFIX   0
C8    1    0.419099    0.653573    0.291325    11.00000    0.03675    0.04408 =
         0.04146    0.00050    0.01383    0.00167
C9    1    0.484017    0.790943    0.310292    11.00000    0.04635    0.05595 =
         0.05144    0.00118    0.01573   -0.00623
AFIX  43
H15   2    0.488510    0.922186    0.283902    11.00000   -1.20000
AFIX   0
C10   1    0.542570    0.741215    0.366911    11.00000    0.04072    0.07741 =
         0.06087   -0.00801    0.00819   -0.00825
AFIX  43
H12   2    0.586884    0.836517    0.378572    11.00000   -1.20000
AFIX   0
C11   1    0.536299    0.555308    0.405714    11.00000    0.04826    0.08489 =
         0.05737    0.00478   -0.00146    0.00935
AFIX  43
H2    2    0.575882    0.521483    0.444871    11.00000   -1.20000
AFIX   0
C12   1    0.098378    0.586168    0.135849    11.00000    0.03807    0.03806 =
         0.02974    0.00492    0.00649    0.00520
C13   1    0.022306    0.560504    0.142207    11.00000    0.04083    0.05832 =
         0.04370   -0.00108    0.01226    0.00484
AFIX  43
H5    2    0.001856    0.653648    0.172425    11.00000   -1.20000
AFIX   0
C14   1   -0.022185    0.395952    0.103309    11.00000    0.04112    0.06202 =
         0.06492    0.00182    0.01244   -0.00400
AFIX  43
H6    2   -0.073882    0.374535    0.107715    11.00000   -1.20000
AFIX   0
C15   1    0.005589    0.259765    0.057795    11.00000    0.05081    0.05202 =
         0.07156   -0.01058    0.00380   -0.00823
AFIX  43
H7    2   -0.027074    0.149116    0.031269    11.00000   -1.20000
AFIX   0
C16   1    0.080625    0.285900    0.051317    11.00000    0.05174    0.04608 =
         0.05203   -0.00906    0.00702    0.00291
AFIX  43
H17   2    0.100315    0.194602    0.020206    11.00000   -1.20000
AFIX   0
C17   1    0.126893    0.447687    0.090973    11.00000    0.04077    0.03627 =
         0.03233    0.00254    0.00650    0.00486
C18   1    0.207419    0.505090    0.094345    11.00000    0.04635    0.03402 =
         0.03202    0.00421    0.01202    0.00626
C19   1    0.254135    0.902288    0.109157    11.00000    0.05519    0.04091 =
         0.04229    0.01153    0.01643    0.00161
AFIX 137
H8    2    0.268477    1.029768    0.140914    11.00000   -1.50000
H9    2    0.210499    0.947137    0.072201    11.00000   -1.50000
H10   2    0.298369    0.860955    0.090086    11.00000   -1.50000
AFIX   0
C20   1    0.472259    0.416586    0.387884    11.00000    0.06177    0.06874 =
         0.06841    0.02437    0.00157    0.00379
AFIX  43
H14   2    0.468034    0.286912    0.414988    11.00000   -1.20000
AFIX   0
C21   1    0.414070    0.463310    0.331141    11.00000    0.04634    0.05318 =
         0.05935    0.01198    0.00456   -0.00399
AFIX  43
H13   2    0.370514    0.365140    0.319312    11.00000   -1.20000
AFIX   0
C22   1    0.139250    0.540034    0.315532    11.00000    0.05556    0.04777 =
         0.04003   -0.00233    0.00988   -0.00886
AFIX  43
H20   2    0.094580    0.498096    0.281932    11.00000   -1.20000
AFIX   0
C23   1    0.164146    0.410334    0.373745    11.00000    0.06832    0.04399 =
         0.04775    0.00309    0.01759   -0.01058
AFIX  43
H18   2    0.136580    0.276140    0.379806    11.00000   -1.20000
AFIX   0
C24   1    0.228026    0.472277    0.422914    11.00000    0.06259    0.04849 =
         0.03618    0.00763    0.01806    0.00577
AFIX  43
H19   2    0.244014    0.381583    0.462680    11.00000   -1.20000
AFIX   0
HKLF 4 1 1 0 0 0 1 0 0 0 1

REM  mo_150509LT_0m in P2(1)/c
REM R1 =  0.0360 for    3265 Fo > 4sig(Fo)  and  0.0505 for all    4171 data
REM    273 parameters refined using      0 restraints

END

WGHT      0.0375      0.7013

REM Highest difference peak  0.240,  deepest hole -0.296,  1-sigma level  0.034
Q1    1   0.1756  0.7968  0.2729  11.00000  0.05    0.24
Q2    1   0.1976  0.7241  0.1594  11.00000  0.05    0.21
Q3    1   0.2609  0.6495  0.1724  11.00000  0.05    0.19
Q4    1   0.2452  0.7961  0.1343  11.00000  0.05    0.18
Q5    1   0.4041  0.6056  0.3189  11.00000  0.05    0.18
;
_shelx_res_checksum              91206
_shelx_hkl_file
;
  -2   0   0 3974.97 55.6873   1
  -4   0   0 1396.78 22.4378   1
   4   0   0 1365.53 22.5021   1
   4   0   0 1332.66 21.2304   3
   5   0   0 836.127 14.7158   3
   5   0   0 852.272 16.2311   1
  -5   0   0 815.782 15.8716   1
  -5   0   0 869.330 15.0056   3
  -6   0   0 23.6325 3.03138   1
   6   0   0 20.1756 2.94978   1
  -6   0   0 25.3035 2.49922   3
  -7   0   0 533.662 11.6659   3
  -7   0   0 565.224 13.1854   1
   7   0   0 542.282 13.3427   1
   7   0   0 519.485 11.3723   3
  -8   0   0 2130.33 36.2602   1
   8   0   0 2062.53 33.9368   3
   8   0   0 2126.28 36.7527   1
  -8   0   0 2147.14 34.4370   3
  -9   0   0 -0.3421 1.51803   3
  -9   0   0 2.08283 2.57743   1
   9   0   0 0.54935 1.61652   3
   9   0   0 3.32553 2.78483   1
  10   0   0 1554.51 27.7692   3
 -10   0   0 1554.63 30.3331   1
  10   0   0 1577.25 30.8486   1
  11   0   0 8.40132 3.57967   1
  11   0   0 7.37319 2.37281   3
 -11   0   0 6.66713 2.51225   3
 -11   0   0 10.4775 3.41698   1
  12   0   0 849.231 21.8350   1
  12   0   0 837.871 18.4604   3
 -12   0   0 796.922 18.7224   3
 -12   0   0 839.693 21.2005   1
  13   0   0 989.609 21.5136   3
 -13   0   0 1005.34 22.1985   3
  13   0   0 982.900 25.1018   1
 -13   0   0 1017.70 24.6098   1
  14   0   0 219.109 9.29419   3
  14   0   0 201.426 11.6280   1
 -14   0   0 211.594 9.76392   3
 -14   0   0 184.124 10.7769   1
 -15   0   0 31.6212 4.87894   3
  15   0   0 25.5508 6.14939   1
 -15   0   0 37.6318 6.44062   1
 -16   0   0 423.792 16.9776   1
  16   0   0 413.707 17.4595   1
 -16   0   0 427.537 18.7866   3
 -17   0   0 25.9824 6.22809   1
  17   0   0 23.4575 6.78179   1
  18   0   0 232.187 14.5892   1
 -18   0   0 248.753 14.1476   1
  19   0   0 65.3895 9.78239   1
 -19   0   0 76.2011 9.82340   1
  20   0   0 2.27618 5.98284   1
  21   0   0 -8.8895 5.93100   1
   0  -1   0 -0.0812 1.44831   2
   2  -1   0 39.5593 3.56849   2
   2  -1   0 40.1659 1.71174   1
  -2  -1   0 41.7669 2.42382   1
   2  -1   0 39.7842 1.71923   1
  -2  -1   0 43.2328 3.98666   2
  -2  -1   0 40.3390 2.39271   1
  -3  -1   0 604.418 11.2441   1
  -3  -1   0 568.391 13.7063   2
  -3  -1   0 597.954 9.49886   3
   3  -1   0 590.327 10.3831   1
   3   1   0 578.530 10.8443   1
   4  -1   0 382.783 8.47302   1
  -4  -1   0 389.177 9.10032   1
  -4  -1   0 383.323 7.62054   3
  -4  -1   0 410.645 11.7387   2
   4   1   0 392.150 8.87011   1
  -4   1   0 398.155 8.82176   1
  -5  -1   0 2156.93 38.9961   2
   5  -1   0 2205.24 34.5785   1
  -5  -1   0 2242.01 33.3842   3
  -5  -1   0 2291.79 35.5238   1
   5   1   0 2177.25 34.9566   1
  -5   1   0 2228.01 33.8823   1
  -6  -1   0 114.939 4.45227   3
  -6  -1   0 125.948 8.50008   2
   6  -1   0 120.012 5.41481   1
   6  -1   0 114.958 3.51807   3
  -6  -1   0 110.261 5.51063   1
  -6   1   0 114.883 4.74802   1
   6   1   0 107.257 5.27990   1
   7  -1   0 15.8188 2.99871   1
  -7  -1   0 20.1865 2.45933   3
   7  -1   0 22.9446 2.14281   3
  -7  -1   0 17.9602 3.31524   1
   7   1   0 21.2845 3.38086   1
  -7   1   0 19.8887 2.84262   1
  -8  -1   0 1740.78 31.6384   1
   8  -1   0 1756.01 27.3517   3
  -8  -1   0 1697.41 28.7062   3
   8  -1   0 1733.50 31.1312   1
  -8   1   0 1726.42 29.9235   1
   8   1   0 1693.11 31.0698   1
   9  -1   0 793.263 14.8885   3
  -9  -1   0 781.608 16.1852   3
   9  -1   0 777.563 18.3641   1
  -9  -1   0 751.286 18.3710   1
   9   1   0 760.552 18.2345   1
  -9   1   0 774.218 17.2477   1
 -10  -1   0 7.47935 3.32277   1
 -10  -1   0 12.0272 2.60255   3
  10  -1   0 7.91711 2.07048   3
  10  -1   0 4.19596 3.16330   1
  10   1   0 11.0283 3.68256   1
 -10   1   0 7.07431 2.94278   1
 -11  -1   0 614.271 17.3772   1
  11  -1   0 580.359 17.0613   1
 -11  -1   0 579.447 14.4090   3
  11  -1   0 579.097 13.0840   3
  11   1   0 578.440 16.8200   1
 -11   1   0 590.600 15.7835   1
  12  -1   0 24.4244 3.20579   3
  12  -1   0 30.3014 5.29537   1
 -12  -1   0 28.3890 3.78520   3
 -12  -1   0 15.4472 4.39734   1
  12   1   0 28.5155 5.01910   1
 -12   1   0 24.8299 4.38359   1
  13  -1   0 92.9408 8.81007   1
 -13  -1   0 99.9690 8.96467   1
  13  -1   0 85.5626 5.54744   3
 -13  -1   0 106.424 6.69052   3
  13   1   0 101.597 8.73253   1
 -13   1   0 84.1691 7.30045   1
 -13   1   0 109.504 6.84243   3
  14  -1   0 16.9732 3.39516   3
  14  -1   0 23.0413 5.53216   1
 -14  -1   0 21.1253 5.29913   1
 -14  -1   0 13.7426 3.48005   3
 -14   1   0 18.4878 4.73718   1
  14   1   0 14.2084 5.12573   1
 -15  -1   0 224.288 12.9214   1
  15  -1   0 203.325 12.5543   1
  15  -1   0 231.342 8.93261   3
 -15  -1   0 239.728 10.5265   3
  15   1   0 211.388 12.5258   1
 -15   1   0 214.737 11.5568   1
 -16  -1   0 97.2337 10.3795   1
 -16  -1   0 91.4863 7.78533   3
  16  -1   0 110.638 6.69755   3
  16  -1   0 81.9510 9.50819   1
  16   1   0 92.1549 9.81534   1
 -16   1   0 83.2794 9.61212   1
 -17  -1   0 5.87164 5.16994   1
 -17  -1   0 0.49583 3.30108   3
  17  -1   0 -2.9236 4.82421   1
  17  -1   0 4.21154 3.03143   3
  17   1   0 -1.1822 4.77410   1
 -18  -1   0 86.9631 9.95445   1
  18  -1   0 79.6608 6.59581   3
 -18  -1   0 92.6849 8.30380   3
  18  -1   0 80.5171 10.4825   1
  18   1   0 71.6068 9.62199   1
  19  -1   0 -5.6400 5.36341   1
 -19  -1   0 -2.7376 3.08741   3
 -19  -1   0 0.00086 5.20633   1
 -19  -1   0 -17.195 11.2783   2
  19  -1   0 1.58698 2.77143   3
  19   1   0 8.43954 5.98363   1
 -20  -1   0 -6.4225 12.0180   2
 -20  -1   0 15.3050 7.09660   1
  20  -1   0 17.0901 7.47801   1
 -20  -1   0 12.8229 4.74624   3
  20   1   0 11.6210 6.71625   1
 -21  -1   0 32.0242 8.08146   1
  21  -1   0 30.9196 8.95405   1
 -21  -1   0 17.2502 12.7700   2
  21   1   0 18.8491 8.01246   1
   0  -2   0 969.968 20.6091   2
   1  -2   0 1193.93 23.7943   2
  -1  -2   0 1209.82 24.2583   2
  -2  -2   0 130.409 3.70004   1
   2  -2   0 134.944 6.85036   2
  -2  -2   0 125.577 3.61478   1
  -2  -2   0 117.720 6.64902   2
   3  -2   0 1221.43 24.7018   2
  -3  -2   0 1215.22 19.8614   1
   3  -2   0 1204.38 17.6122   1
   3  -2   0 1205.34 17.6376   1
  -3  -2   0 1201.87 25.4446   2
  -3  -2   0 1212.15 19.8240   1
  -3  -2   0 1164.52 21.2263   1
   4  -2   0 37.2391 2.61059   1
  -4  -2   0 41.3815 3.30671   1
  -4  -2   0 47.5626 5.51234   2
   4  -2   0 36.3985 2.45546   1
  -5  -2   0 61.7111 5.92735   2
   5  -2   0 77.4033 4.16001   1
   5  -2   0 78.2063 3.91944   1
  -5  -2   0 68.1566 4.46881   1
   5   2   0 74.1397 6.36099   1
  -6  -2   0 1330.92 30.0284   2
  -6  -2   0 1338.04 24.8473   1
   6  -2   0 1372.42 23.6124   1
   6   2   0 1375.28 23.9061   1
  -7  -2   0 24.8536 3.78112   1
   7  -2   0 15.6877 2.91086   1
  -7  -2   0 18.7700 1.96797   3
  -7  -2   0 18.4043 4.83845   2
   7   2   0 21.0646 3.19146   1
  -8  -2   0 6.77562 4.06075   2
  -8  -2   0 7.74802 3.03362   1
  -8  -2   0 8.67510 1.87228   3
   8  -2   0 13.4821 3.07862   1
   8   2   0 12.5965 3.06418   1
   9  -2   0 9.93391 3.28099   1
  -9  -2   0 9.34444 3.54774   1
  -9  -2   0 11.4776 4.37596   2
  -9  -2   0 9.24572 1.95774   3
   9   2   0 3.88857 2.78017   1
 -10  -2   0 35.3642 5.23610   1
  10  -2   0 44.6116 5.47521   1
 -10  -2   0 38.1355 6.65382   2
 -10  -2   0 40.2928 3.63110   3
  10   2   0 58.5933 6.05430   1
 -10   2   0 51.4231 4.68950   1
 -11  -2   0 255.178 14.7659   2
 -11  -2   0 264.354 8.68867   3
  11  -2   0 275.923 11.6661   1
 -11  -2   0 283.783 12.1369   1
 -11   2   0 275.352 9.69960   1
  11   2   0 267.510 11.0779   1
  12  -2   0 329.603 13.4352   1
 -12  -2   0 337.507 17.9152   2
 -12  -2   0 349.254 14.4042   1
 -12  -2   0 350.038 10.5192   3
 -12   2   0 333.088 11.6916   1
  12   2   0 338.435 13.2791   1
 -13  -2   0 -0.2710 2.16457   3
 -13  -2   0 -6.4102 3.91649   1
 -13  -2   0 0.17202 5.80799   2
  13  -2   0 -4.2948 3.78781   1
  13   2   0 -5.2575 3.44918   1
 -14  -2   0 40.0853 8.84278   2
 -14  -2   0 38.9921 4.76915   3
 -14  -2   0 38.6786 6.88158   1
  14  -2   0 43.8177 7.26228   1
  14   2   0 46.9952 6.93537   1
  15  -2   0 26.1588 6.26859   1
 -15  -2   0 34.7971 6.88837   1
 -15  -2   0 27.2332 4.19614   3
 -15  -2   0 31.1731 8.81911   2
  15   2   0 37.7808 6.73541   1
 -16  -2   0 35.4338 7.23242   1
 -16  -2   0 28.4787 8.42685   2
  16  -2   0 34.2107 7.21876   1
 -16  -2   0 45.9216 5.68747   3
  16   2   0 37.6949 7.21849   1
 -17  -2   0 78.2637 12.9863   2
  17  -2   0 73.5667 9.48887   1
 -17  -2   0 54.6893 6.08491   3
 -17  -2   0 61.7528 9.21170   1
  18  -2   0 48.8306 8.72585   1
 -18  -2   0 38.2335 5.52109   3
 -18  -2   0 30.2515 7.32991   1
 -18  -2   0 40.7203 9.98433   2
  19  -2   0 22.2364 7.46052   1
 -19  -2   0 8.23882 3.81033   3
 -19  -2   0 9.70313 7.06470   2
 -19  -2   0 10.3970 6.17098   1
 -20  -2   0 4.14300 6.03780   2
 -20  -2   0 -1.2803 3.40571   3
 -20  -2   0 -0.4082 6.05991   1
  20  -2   0 -2.3695 6.08266   1
   0  -3   0 -6.4682 2.33567   2
   1  -3   0 460.324 15.1344   2
  -1  -3   0 444.724 15.1133   2
  -2  -3   0 602.956 18.3578   2
  -2  -3   0 651.339 11.2087   1
   2  -3   0 638.776 18.4093   2
  -2  -3   0 628.941 11.0520   1
  -3  -3   0 2680.02 40.1004   1
  -3  -3   0 2672.29 39.9891   1
   3  -3   0 2667.83 48.6484   2
  -3  -3   0 2638.42 49.7059   2
  -3  -3   0 2624.85 39.9361   1
   4  -3   0 1941.03 28.3785   1
   4  -3   0 1943.21 38.9897   2
  -4  -3   0 1930.04 31.5257   1
  -4  -3   0 1925.04 31.3749   1
  -4  -3   0 1956.65 40.3013   2
   4  -3   0 1945.55 28.4241   1
  -5  -3   0 -0.2923 3.26180   2
   5  -3   0 -1.3083 2.61686   2
   5  -3   0 -1.1749 1.35097   1
   5  -3   0 -0.1372 1.18128   1
  -5  -3   0 -0.8813 1.85005   1
   6  -3   0 171.010 6.22663   1
  -6  -3   0 181.622 7.74602   1
   6  -3   0 187.456 6.14658   1
  -6  -3   0 181.634 11.4441   2
  -7  -3   0 13.7139 3.19938   1
  -7  -3   0 14.9439 5.16806   2
   7  -3   0 22.3199 2.93135   1
   7  -3   0 13.6890 2.79305   1
   8  -3   0 1282.94 24.2527   1
  -8  -3   0 1266.58 26.2132   1
  -8  -3   0 1210.33 32.3327   2
  -9  -3   0 1.88002 3.04644   1
  -9  -3   0 3.48005 4.65041   2
   9  -3   0 3.14037 2.93717   1
   9   3   0 -0.0595 2.44517   1
 -10  -3   0 9.77265 5.74971   2
  10  -3   0 5.82849 3.56692   1
 -10  -3   0 17.7480 4.69819   1
  10   3   0 11.1991 4.10217   1
 -11  -3   0 -4.6738 4.62186   2
  11  -3   0 1.44549 3.41452   1
 -11  -3   0 -2.1103 3.67067   1
 -12  -3   0 0.37761 1.33826   3
 -12  -3   0 -0.4978 5.39026   2
 -12  -3   0 -0.6210 4.28906   1
  12  -3   0 -1.6780 3.67189   1
 -13  -3   0 48.1400 7.60307   1
 -13  -3   0 52.5643 9.79119   2
  13  -3   0 49.8245 6.94316   1
 -13  -3   0 44.7139 3.48480   3
 -14  -3   0 416.793 17.5358   1
  14  -3   0 400.021 16.2130   1
 -14  -3   0 389.662 21.6845   2
 -14  -3   0 399.757 10.1673   3
 -15  -3   0 198.025 7.44603   3
  15  -3   0 195.588 12.2760   1
 -15  -3   0 184.097 16.3699   2
 -15  -3   0 199.039 13.1473   1
 -16  -3   0 243.916 14.7827   1
 -16  -3   0 257.106 18.9302   2
 -16  -3   0 225.775 8.52808   3
  16  -3   0 249.315 14.4723   1
 -17  -3   0 2.79173 5.75554   1
  17  -3   0 7.10358 5.62492   1
 -17  -3   0 1.55742 6.31891   2
 -17  -3   0 4.52884 2.56376   3
 -18  -3   0 19.4287 7.18314   1
  18  -3   0 24.4016 7.34419   1
 -18  -3   0 16.0723 3.62862   3
 -18  -3   0 14.0662 8.00634   2
 -19  -3   0 8.36755 3.27883   3
 -19  -3   0 18.4374 7.16386   1
 -19  -3   0 15.5459 8.25905   2
  19  -3   0 5.99621 6.34444   1
   0  -4   0 16.0507 5.04558   2
   1  -4   0 3.26938 3.83224   2
  -1  -4   0 -0.9393 3.59066   2
  -2  -4   0 72.9342 3.42434   1
  -2  -4   0 80.5771 9.07045   2
   2  -4   0 79.7639 8.73109   2
  -2  -4   0 78.3785 3.58437   1
  -3  -4   0 3.77313 4.20887   2
  -3  -4   0 6.63604 1.97454   1
  -3  -4   0 1.49165 1.65547   1
   3  -4   0 5.20555 4.47562   2
   4  -4   0 10.3389 4.87937   2
  -4  -4   0 4.73848 2.28880   1
  -4  -4   0 8.50204 2.31794   1
  -4  -4   0 5.23691 4.29936   2
   5  -4   0 39.1808 7.16764   2
   5  -4   0 28.4421 2.47194   1
  -5  -4   0 26.7708 6.30032   2
  -5  -4   0 32.3284 3.93732   1
  -5  -4   0 24.1167 3.57199   1
   5  -4   0 27.8242 2.55677   1
   6  -4   0 10.8991 2.21091   1
   6  -4   0 10.6924 2.44886   1
  -6  -4   0 15.5799 3.48240   1
  -6  -4   0 10.0329 5.07208   2
  -7  -4   0 571.159 22.5281   2
   7  -4   0 553.085 13.0017   1
  -7  -4   0 541.429 15.3267   1
   7  -4   0 538.584 12.6348   1
  -8  -4   0 51.2393 8.89841   2
   8  -4   0 55.1876 5.05869   1
  -8  -4   0 55.8374 6.14186   1
   9  -4   0 215.006 9.27490   1
  -9  -4   0 238.365 16.2599   2
  -9  -4   0 207.581 10.7643   1
 -10  -4   0 41.6725 9.12391   2
 -10  -4   0 21.8802 5.45690   1
  10  -4   0 28.1244 4.89276   1
 -11  -4   0 20.8599 7.98626   2
 -11  -4   0 25.0736 5.72619   1
  11  -4   0 26.6164 5.13255   1
  12  -4   0 8.17207 4.24826   1
 -12  -4   0 13.3750 7.20650   2
 -12  -4   0 3.33999 4.93571   1
 -13  -4   0 2.23816 4.59592   1
 -13  -4   0 11.6255 7.53355   2
  13  -4   0 6.44270 4.40957   1
  14  -4   0 -6.6025 3.98212   1
 -14  -4   0 -4.9071 4.40855   1
 -14  -4   0 -1.4435 6.12574   2
  15  -4   0 24.2459 6.31404   1
 -15  -4   0 20.6534 6.33869   1
 -15  -4   0 25.2935 9.34593   2
 -16  -4   0 24.4525 9.44685   2
  16  -4   0 22.5161 6.54272   1
 -16  -4   0 33.8697 8.04081   1
 -17  -4   0 25.7733 7.49000   1
 -17  -4   0 31.4681 10.3180   2
  17  -4   0 32.7010 7.61768   1
  18  -4   0 7.38215 6.17693   1
 -18  -4   0 1.41726 6.93025   2
 -18  -4   0 8.36478 6.72031   1
   0  -5   0 3.08891 5.42776   2
   1  -5   0 23.8927 6.75495   2
  -1  -5   0 29.7870 2.53235   1
  -1  -5   0 26.6079 2.39400   1
  -1  -5   0 34.2026 8.49034   2
  -2  -5   0 158.101 5.64858   1
   2  -5   0 177.511 13.4820   2
  -2  -5   0 186.785 14.4123   2
  -2  -5   0 162.790 5.88249   1
  -3  -5   0 32.1103 8.35860   2
   3  -5   0 32.1308 7.51768   2
  -3  -5   0 28.4161 3.46563   1
  -3  -5   0 29.8403 4.42768   1
   4  -5   0 56.4321 9.43095   2
  -4  -5   0 50.9721 9.42598   2
  -4  -5   0 48.1777 4.56529   1
   5  -5   0 375.372 8.36665   1
   5  -5   0 394.646 8.61395   1
  -5  -5   0 419.489 20.7896   2
  -5  -5   0 383.624 11.8351   1
   5  -5   0 378.021 19.5085   2
  -6  -5   0 80.3931 11.0128   2
   6  -5   0 100.849 12.6510   2
   6  -5   0 86.4062 4.85901   1
  -6  -5   0 64.7057 6.07815   1
  -7  -5   0 112.220 13.3535   2
   7  -5   0 93.0988 5.68553   1
  -7  -5   0 112.699 7.94863   1
  -8  -5   0 5.30556 3.95217   1
  -8  -5   0 1.95170 5.94377   2
   8  -5   0 5.35899 3.05652   1
  -9  -5   0 -1.5894 3.85051   1
  -9  -5   0 -3.6987 5.55765   2
   9  -5   0 -0.3125 3.02308   1
  10  -5   0 82.8447 7.07821   1
 -10  -5   0 87.0734 13.2291   2
 -10  -5   0 79.4753 8.55936   1
 -11  -5   0 37.7591 6.76159   1
 -11  -5   0 28.7449 9.46693   2
  11  -5   0 45.7414 6.05252   1
 -12  -5   0 0.96953 4.49159   1
 -12  -5   0 8.34454 7.38022   2
  12  -5   0 1.33122 4.10548   1
 -13  -5   0 9.82777 5.26522   1
  13  -5   0 2.67796 4.37428   1
 -13  -5   0 5.86736 6.99069   2
  14  -5   0 55.9019 7.73567   1
 -14  -5   0 62.8731 9.02768   1
 -15  -5   0 -3.2890 7.08840   2
 -15  -5   0 1.24532 5.61142   1
  15  -5   0 -0.1238 5.13281   1
   0  -6   0 1039.89 34.7407   2
  -1  -6   0 190.671 6.33388   1
  -1  -6   0 178.551 16.5162   2
   1  -6   0 181.747 16.4419   2
  -2  -6   0 9.77197 7.81253   2
   2  -6   0 2.69106 7.74393   2
  -2  -6   0 7.65413 2.59595   1
   3  -6   0 205.071 17.9793   2
  -3  -6   0 201.158 8.00495   1
  -3  -6   0 183.060 16.4158   2
  -4  -6   0 54.8824 5.34794   1
  -4  -6   0 70.1111 11.9692   2
   4  -6   0 58.2833 11.5643   2
  -5  -6   0 1.29292 3.17470   1
   5  -6   0 4.71465 2.03580   1
   5  -6   0 1.86573 7.75451   2
  -5  -6   0 5.49114 7.64786   2
  -6  -6   0 283.526 11.7685   1
  -6  -6   0 325.483 21.0419   2
   6  -6   0 277.549 8.41368   1
   6  -6   0 292.411 20.0067   2
   7  -6   0 96.9724 6.08200   1
  -7  -6   0 89.1042 7.97266   1
  -7  -6   0 114.676 16.0851   2
  -8  -6   0 24.6026 5.42073   1
   8  -6   0 16.8028 3.77486   1
  -8  -6   0 28.6897 9.38443   2
   9  -6   0 54.4653 5.77349   1
  -9  -6   0 50.6061 7.08409   1
  -9  -6   0 69.7771 13.2450   2
 -10  -6   0 109.742 9.96844   1
  10  -6   0 85.2861 7.48751   1
 -10  -6   0 139.850 17.7415   2
  11  -6   0 20.7223 5.13976   1
 -11  -6   0 17.2325 9.07528   2
 -11  -6   0 11.5189 5.37825   1
 -12  -6   0 6.88203 7.96850   2
 -12  -6   0 20.2012 6.49594   1
  12  -6   0 11.3331 4.90516   1
   0  -7   0 -5.7995 6.72739   2
  -1  -7   0 72.3897 4.73480   1
   1  -7   0 96.8329 15.8086   2
  -1  -7   0 62.0443 13.1517   2
  -2  -7   0 46.3130 4.47850   1
  -2  -7   0 49.4860 11.8277   2
   2  -7   0 45.2545 11.7056   2
  -3  -7   0 12.2175 3.33249   1
   3  -7   0 16.3014 10.5260   2
  -3  -7   0 12.4557 8.82264   2
  -4  -7   0 3.31419 3.32502   1
   4  -7   0 3.08027 9.16369   2
  -4  -7   0 4.51981 8.87812   2
  -5  -7   0 107.079 8.35579   1
   5  -7   0 120.999 16.7548   2
  -5  -7   0 135.967 18.1607   2
  -6  -7   0 51.3750 13.3827   2
  -6  -7   0 43.7758 6.28261   1
   6  -7   0 37.8392 3.82168   1
  21   0  -1 -4.6500 5.74710   1
  20   0  -1 -2.8680 5.61813   1
 -19   0   1 5.89516 5.34185   1
  19   0  -1 -0.0169 5.57731   1
 -18   0   1 6.06284 4.88624   1
  18   0  -1 0.95776 5.40449   1
 -17   0   1 -2.3090 4.21606   1
  17   0  -1 -3.0412 4.36485   1
 -16   0   1 -0.6487 2.98268   3
 -16   0   1 -0.5446 4.27366   1
  16   0  -1 -4.0867 4.34202   1
 -15   0   1 0.58847 3.72568   1
  15   0  -1 -4.1857 2.90132   3
 -15   0   1 4.27524 2.93820   3
  15   0  -1 4.10213 4.60909   1
  14   0  -1 -1.2905 3.57835   1
  14   0  -1 -3.0616 2.16123   3
 -14   0   1 -0.0908 2.40087   3
 -14   0   1 2.39592 3.94846   1
 -13   0   1 -2.1436 2.02708   3
 -13   0   1 -4.4789 2.97477   1
  13   0  -1 2.56508 3.72382   1
  13   0  -1 -1.4581 2.16307   3
  12   0  -1 -0.1110 3.02777   1
 -12   0   1 -1.0692 2.78121   1
  12   0  -1 0.69346 1.95980   3
 -12   0   1 -0.2378 1.72270   3
  11   0  -1 0.76033 1.87216   3
  11   0  -1 0.59015 2.51781   1
 -11   0   1 -2.8959 2.29965   1
 -11   0   1 0.97215 1.71425   3
 -10   0   1 -3.5154 2.21468   1
  10   0  -1 -3.7926 2.26256   1
  10   0  -1 -0.0140 1.50405   3
 -10   0   1 -0.1335 1.27401   3
  -9   0   1 1.27885 1.87781   3
  -9   0   1 -2.4301 2.29767   1
   9   0  -1 -2.3672 1.51159   3
   9   0  -1 -3.5345 2.43612   1
   8   0  -1 -4.2356 1.18743   3
  -8   0   1 -4.5883 1.99296   1
   8   0  -1 -0.9715 2.36389   1
  -8   0   1 -1.2545 1.13825   3
   7   0  -1 0.53408 1.24763   3
  -7   0   1 -1.0104 0.97885   3
   7   0  -1 -3.0493 1.83197   1
  -7   0   1 -1.3770 1.84967   1
   6   0  -1 -2.9527 1.69785   1
  -6   0   1 -2.7424 1.56906   1
  -6   0   1 -1.2035 1.07236   3
   6   0  -1 -2.3050 0.96998   3
  -5   0   1 0.01787 1.03778   3
   5   0  -1 1.38186 1.73820   1
  -5   0   1 -1.3805 1.50497   1
   5   0  -1 -0.8970 0.90590   3
   4   0  -1 -2.2582 1.46932   1
  -4   0   1 -4.3692 1.48954   1
   4   0  -1 -1.1196 0.96434   3
  -4   0   1 -0.5775 1.01114   3
  -3   0   1 -1.4922 0.87152   3
   3   0  -1 -4.1714 0.79646   3
  -3   0   1 -4.1404 1.19697   1
   2   0  -1 -6.9010 0.64975   3
  -2   0   1 -8.5730 0.72989   1
  -1   0   1 1.79301 0.53437   2
   1   0  -1 4.80985 0.59719   1
   0   0   1 0.06188 0.16661   1
   0   0  -1 0.32988 0.21649   1
   0   0  -1 0.47500 0.20218   3
  -1   0  -1 -1.9136 0.49907   3
   1   0   1 -2.6325 0.41648   3
   1   0   1 -3.0036 0.57092   1
  -1   0  -1 -1.9864 0.62054   1
   2   0   1 -1.4579 0.89605   1
  -2   0  -1 2.35440 0.83359   3
   2   0   1 -1.8177 0.57530   3
  -3   0  -1 -0.0808 1.44504   1
   3   0   1 0.43487 0.93417   3
   3   0   1 0.82875 1.33879   1
  -3   0  -1 -0.1356 0.96988   3
   4   0   1 -2.8898 1.81633   1
  -4   0  -1 -2.8427 1.60052   1
   4   0   1 -2.1011 1.14444   3
  -4   0  -1 -4.5077 1.03206   3
  -5   0  -1 0.27502 1.59860   1
   5   0   1 -0.7389 1.02146   3
  -5   0  -1 2.02672 1.19970   3
   5   0   1 2.38152 1.79164   1
  -6   0  -1 -1.2152 1.04998   3
  -6   0  -1 -0.5735 1.56308   1
   6   0   1 0.15575 1.09790   3
   6   0   1 1.18722 1.94684   1
  -7   0  -1 -0.3950 1.94494   1
   7   0   1 -3.8539 1.23048   3
  -7   0  -1 -2.5950 1.39002   3
   7   0   1 -4.0061 2.13246   1
   8   0   1 -0.5401 2.36169   1
  -8   0  -1 -2.0108 1.32912   3
   8   0   1 -0.4734 1.36121   3
  -8   0  -1 -1.8592 2.23590   1
  -9   0  -1 -0.2526 2.46630   1
  -9   0  -1 -1.4174 1.50152   3
   9   0   1 0.42588 1.65522   3
   9   0   1 0.50836 2.61803   1
 -10   0  -1 -3.7867 2.36553   1
  10   0   1 0.65545 2.77713   1
 -10   0  -1 0.07926 1.56594   3
  10   0   1 -0.3047 1.59806   3
 -11   0  -1 1.64127 2.80699   1
  11   0   1 3.56082 3.37942   1
  11   0   1 -1.6827 1.62055   3
 -11   0  -1 0.67079 1.99212   3
  12   0   1 -0.1987 2.07755   3
 -12   0  -1 2.53422 3.31928   1
 -12   0  -1 2.34405 2.31442   3
  12   0   1 2.53621 3.37921   1
  13   0   1 -0.0233 2.28278   3
  13   0   1 1.79919 3.95434   1
 -13   0  -1 3.04114 3.76742   1
 -13   0  -1 -2.8033 2.13318   3
 -14   0  -1 1.35571 3.87702   1
 -14   0  -1 3.59848 2.86628   3
  14   0   1 -1.1939 4.03766   1
  14   0   1 3.13870 2.62005   3
 -15   0  -1 -1.0079 4.04803   1
  15   0   1 2.57351 4.83067   1
 -15   0  -1 -1.2023 2.75824   3
 -16   0  -1 -0.2753 4.07669   1
  16   0   1 -3.0001 4.47603   1
 -17   0  -1 -4.2477 4.19183   1
  17   0   1 -0.0740 4.94066   1
 -18   0  -1 -0.3328 4.99005   1
  18   0   1 -5.4799 4.78616   1
  19   0   1 -7.2825 4.80942   1
 -19   0  -1 2.25493 6.03475   1
  20   0   1 -6.0798 5.28913   1
  21   0   1 1.41927 6.82541   1
 -21  -1   1 78.1091 10.8183   1
  21  -1  -1 81.4273 12.1458   1
 -21  -1   1 52.4723 14.1929   2
  21   1  -1 79.4147 11.4968   1
 -20  -1   1 -12.704 10.5620   2
 -20  -1   1 -0.3216 3.23568   3
  20  -1  -1 -1.3467 5.84051   1
 -20  -1   1 1.27364 5.36243   1
  20   1  -1 -7.8774 5.20231   1
 -19  -1   1 9.65639 3.95355   3
  19  -1  -1 -1.0287 5.44672   1
 -19  -1   1 12.7736 5.89535   1
 -19  -1   1 -3.5819 11.4487   2
  19   1  -1 6.69862 5.85795   1
 -18  -1   1 14.5565 6.20376   1
 -18  -1   1 8.70755 10.6251   2
 -18  -1   1 19.9920 4.62805   3
  18  -1  -1 18.3544 6.88847   1
  18  -1  -1 30.3161 4.38407   3
  18   1  -1 21.7157 6.82831   1
 -17  -1   1 20.7877 6.25575   1
  17  -1  -1 24.4487 6.86523   1
 -17  -1   1 24.1160 4.62596   3
  17  -1  -1 24.6103 4.04231   3
  17   1  -1 28.3461 6.73276   1
  16  -1  -1 32.9231 4.22796   3
 -16  -1   1 28.6946 4.89447   3
 -16  -1   1 28.6661 6.75564   1
  16  -1  -1 35.7983 7.30792   1
 -16   1   1 26.1703 5.93666   1
  16   1  -1 21.2903 6.58142   1
 -15  -1   1 66.7820 6.27087   3
 -15  -1   1 74.3079 8.81719   1
  15  -1  -1 57.7585 5.23963   3
  15  -1  -1 65.3331 8.44328   1
  15   1  -1 67.3283 8.25485   1
 -15   1   1 70.9153 7.72061   1
  14  -1  -1 89.6820 5.82052   3
 -14  -1   1 94.1777 9.23450   1
  14  -1  -1 91.5382 9.19463   1
 -14  -1   1 86.2579 7.06847   3
 -14   1   1 81.3259 7.58071   1
  14   1  -1 97.5135 9.21838   1
  13  -1  -1 -0.6276 1.98966   3
  13  -1  -1 -2.5209 3.47530   1
 -13  -1   1 1.64028 2.37666   3
 -13  -1   1 1.65148 3.66848   1
  13   1  -1 2.46002 3.76859   1
 -13   1   1 0.20564 2.32822   3
 -13   1   1 0.57631 3.05069   1
 -12  -1   1 112.430 6.55003   3
  12  -1  -1 103.677 5.35016   3
  12  -1  -1 95.5529 8.23027   1
 -12  -1   1 118.901 8.31252   1
  12   1  -1 94.5159 8.20602   1
 -12   1   1 104.622 7.23230   1
  11  -1  -1 514.945 11.8701   3
  11  -1  -1 540.246 15.9625   1
 -11  -1   1 500.488 13.1770   3
 -11  -1   1 491.762 15.6051   1
  11   1  -1 500.081 15.4555   1
 -11   1   1 529.770 14.5127   1
 -10  -1   1 1776.89 33.5603   1
  10  -1  -1 1765.93 33.3730   1
  10  -1  -1 1738.41 28.6432   3
 -10  -1   1 1745.98 30.4100   3
 -10   1   1 1708.96 31.5489   1
  10   1  -1 1745.85 33.2850   1
   9  -1  -1 -0.1046 1.29685   3
   9  -1  -1 -1.2706 2.22500   1
  -9  -1   1 5.19540 2.87951   1
  -9  -1   1 2.08300 1.74414   3
  -9   1   1 0.57929 2.01291   1
   9   1  -1 -4.5801 2.13900   1
   8  -1  -1 1026.18 17.6417   3
  -8  -1   1 1055.91 26.0037   2
   8  -1  -1 1057.89 21.2824   1
  -8  -1   1 1030.39 21.4977   1
  -8  -1   1 1049.78 19.2586   3
  -8   1   1 1032.01 20.0376   1
   8   1  -1 991.214 21.1008   1
   7  -1  -1 1198.82 22.6581   1
  -7  -1   1 1193.73 20.9052   3
  -7  -1   1 1248.51 27.7180   2
   7   1  -1 1232.90 23.0278   1
  -7   1   1 1176.65 21.5724   1
  -6  -1   1 695.320 15.1056   1
  -6  -1   1 713.071 13.3606   3
   6  -1  -1 699.781 14.6568   1
  -6  -1   1 721.214 18.5333   2
  -6   1   1 711.547 13.9161   1
   6   1  -1 725.007 15.0729   1
   5  -1  -1 272.397 7.40986   1
  -5  -1   1 270.922 6.46191   3
  -5  -1   1 265.329 9.91844   2
  -5  -1   1 265.257 7.71933   1
   5   1  -1 279.770 7.68407   1
  -5   1   1 270.430 6.79344   1
  -4  -1   1 90.9429 4.38315   1
   4  -1  -1 102.535 4.08602   1
  -4  -1   1 94.3033 5.67697   2
  -4  -1   1 100.193 3.30001   3
   4   1  -1 100.237 4.31759   1
  -3  -1   1 2470.37 33.9315   3
  -3  -1   1 2305.63 38.9771   2
  -3  -1   1 2453.66 35.8022   1
   3  -1  -1 2376.20 34.7363   1
   3   1  -1 2394.98 35.4575   1
   2  -1  -1 876.920 12.9093   1
  -2  -1   1 874.711 14.0568   1
   2  -1  -1 845.953 15.7350   2
  -2  -1   1 883.902 17.1883   2
   2  -1  -1 874.627 12.8581   1
   1  -1  -1 4592.95 65.7546   2
  -1  -1   1 4595.94 67.3755   2
   0  -1  -1 42.1313 2.89508   2
   0  -1   1 43.8039 3.40734   2
   1  -1   1 1161.64 15.9056   1
   1  -1   1 1095.54 19.8643   2
   1  -1   1 1121.04 15.8770   1
  -1  -1  -1 1128.88 19.5418   2
  -1  -1  -1 1132.51 16.6372   1
  -1  -1  -1 1106.93 16.6135   1
   2  -1   1 1331.16 19.6815   1
   2  -1   1 1304.58 23.3778   2
   2  -1   1 1321.85 19.7929   1
  -2  -1  -1 1308.54 23.2124   2
  -2  -1  -1 1348.42 20.5752   1
  -3  -1  -1 1365.25 25.1909   2
  -3  -1  -1 1378.78 20.5145   3
  -3  -1  -1 1391.16 22.4427   1
  -3  -1  -1 1390.97 22.4021   1
   3  -1   1 1409.63 21.6583   1
   3   1   1 1396.07 22.0500   1
  -4  -1  -1 57.9329 2.74452   3
  -4  -1  -1 61.7105 3.74136   1
  -4  -1  -1 92.5517 6.46825   2
   4  -1   1 73.9212 3.60116   1
   4   1   1 59.9703 3.72455   1
  -4   1  -1 60.4073 3.07294   1
  -5  -1  -1 31.8034 3.19998   1
   5  -1   1 34.6311 1.85292   3
   5  -1   1 31.3986 3.06211   1
  -5  -1  -1 27.2902 2.26325   3
  -5   1  -1 34.9357 2.84348   1
   5   1   1 33.3394 3.29462   1
  -6  -1  -1 156.629 6.52171   1
   6  -1   1 146.767 6.04121   1
   6  -1   1 151.866 4.28170   3
  -6  -1  -1 146.951 5.11147   3
  -6   1  -1 143.034 5.57404   1
   6   1   1 142.939 6.17047   1
  -7  -1  -1 252.465 7.34101   3
  -7  -1  -1 235.024 8.68730   1
   7  -1   1 242.972 6.23887   3
   7  -1   1 241.401 8.41447   1
  -7   1  -1 241.313 7.86323   1
   7   1   1 250.456 8.68989   1
   8  -1   1 229.291 8.77137   1
  -8  -1  -1 220.645 8.92639   1
   8  -1   1 222.517 6.33533   3
  -8  -1  -1 228.069 7.42525   3
  -8   1  -1 220.729 7.96143   1
   8   1   1 217.593 8.74403   1
  -9  -1  -1 253.855 10.2016   1
  -9  -1  -1 278.038 8.65612   3
   9  -1   1 263.552 7.44105   3
   9  -1   1 280.712 10.3197   1
  -9   1  -1 255.882 9.22654   1
   9   1   1 291.644 10.4610   1
 -10  -1  -1 57.8556 4.85732   3
  10  -1   1 57.4305 5.75212   1
  10  -1   1 53.9372 3.95889   3
 -10  -1  -1 57.9396 6.09504   1
  10   1   1 68.2106 6.35323   1
 -10   1  -1 49.8787 5.17341   1
 -11  -1  -1 218.675 10.4578   1
 -11  -1  -1 210.221 8.30308   3
  11  -1   1 197.330 7.13502   3
  11  -1   1 190.907 10.0765   1
 -11   1  -1 189.156 8.85865   1
  11   1   1 185.917 9.70450   1
  12  -1   1 590.437 17.9999   1
 -12  -1  -1 584.429 17.7498   1
  12  -1   1 568.486 13.6358   3
 -12  -1  -1 590.914 15.1613   3
 -12   1  -1 588.958 16.6112   1
  12   1   1 573.722 17.6385   1
  13  -1   1 151.829 6.96110   3
 -13  -1  -1 152.547 7.98670   3
  13  -1   1 144.776 9.92984   1
 -13  -1  -1 128.946 9.57701   1
  13   1   1 169.546 10.4137   1
 -13   1  -1 140.363 8.07921   3
 -13   1  -1 144.473 8.92579   1
 -14  -1  -1 59.6234 7.58592   1
  14  -1   1 48.7292 7.16321   1
 -14  -1  -1 62.9802 6.19627   3
  14  -1   1 65.1050 5.29759   3
  14   1   1 73.9667 8.25592   1
 -14   1  -1 62.4425 7.07224   1
 -15  -1  -1 20.5276 6.18911   1
 -15  -1  -1 25.1551 4.65464   3
  15  -1   1 20.7265 6.00780   1
  15  -1   1 28.4274 3.95148   3
 -15   1  -1 30.9428 5.91404   1
  15   1   1 23.2390 5.81779   1
  16  -1   1 406.841 17.4690   1
 -16  -1  -1 379.159 13.9238   3
  16  -1   1 380.061 12.0631   3
 -16  -1  -1 373.853 16.7560   1
  16   1   1 377.566 16.7110   1
  17  -1   1 50.3549 8.33089   1
  17  -1   1 46.8942 5.37391   3
 -17  -1  -1 48.1177 6.17266   3
 -17  -1  -1 43.3470 7.77018   1
  17   1   1 44.1965 8.09083   1
  18  -1   1 95.1487 10.9516   1
  18  -1   1 101.598 7.05773   3
 -18  -1  -1 87.1963 10.4284   1
 -18  -1  -1 95.4011 8.49115   3
  18   1   1 103.961 11.2344   1
 -19  -1  -1 38.7334 8.11546   1
  19  -1   1 26.1833 4.32514   3
 -19  -1  -1 25.6614 5.37821   3
  19  -1   1 13.2201 6.73275   1
  19   1   1 30.5835 7.81556   1
  20  -1   1 -0.5222 2.61648   3
 -20  -1  -1 -20.880 11.8128   2
 -20  -1  -1 7.85747 5.19962   3
 -20  -1  -1 2.54320 5.86945   1
  20  -1   1 2.49701 6.64871   1
  20   1   1 6.74621 6.44536   1
 -21  -1  -1 27.4617 8.13040   1
 -21  -1  -1 2.77179 14.0095   2
  21  -1   1 33.1159 9.03452   1
  21   1   1 14.0578 8.93979   1
 -21  -2   1 9.12088 7.88961   2
 -21  -2   1 3.09437 3.59743   3
 -20  -2   1 16.6078 4.62582   3
  20  -2  -1 36.4853 8.94091   1
 -20  -2   1 27.5580 9.11629   2
 -20  -2   1 11.4679 7.05274   1
  19  -2  -1 28.1953 8.02461   1
 -19  -2   1 44.4187 6.30958   3
 -19  -2   1 27.3416 9.28795   2
 -19  -2   1 36.5345 7.87044   1
 -18  -2   1 1.35829 3.03588   3
 -18  -2   1 3.37965 5.41243   1
  18  -2  -1 -6.0804 4.80367   1
 -18  -2   1 -2.5541 6.27843   2
 -17  -2   1 108.540 13.6479   2
 -17  -2   1 108.533 11.1243   1
  17  -2  -1 136.920 12.5245   1
 -17  -2   1 127.425 8.26968   3
  17   2  -1 111.435 14.1472   1
 -16  -2   1 26.8293 4.35968   3
 -16  -2   1 34.4189 9.16771   2
  16  -2  -1 35.4402 7.01112   1
 -16  -2   1 35.3240 6.84647   1
  16   2  -1 22.0978 6.09101   1
 -15  -2   1 94.6550 6.93195   3
  15  -2  -1 71.4427 8.53006   1
 -15  -2   1 80.1714 11.9106   2
 -15  -2   1 100.526 9.92882   1
  15   2  -1 94.9725 9.53842   1
 -14  -2   1 291.595 10.3854   3
  14  -2  -1 250.006 12.9492   1
 -14  -2   1 258.559 13.6706   1
 -14  -2   1 251.260 16.4541   2
  14   2  -1 271.307 13.2800   1
 -13  -2   1 499.557 17.5158   1
 -13  -2   1 465.823 20.9912   2
 -13  -2   1 459.609 12.9678   3
  13  -2  -1 437.107 16.1827   1
  13   2  -1 495.185 16.5365   1
  12  -2  -1 267.754 12.0212   1
 -12  -2   1 314.917 16.4470   2
 -12  -2   1 289.169 9.55284   3
 -12  -2   1 293.039 12.9603   1
 -12   2   1 292.830 10.4030   1
  12   2  -1 293.277 12.2041   1
  11  -2  -1 167.828 9.11468   1
 -11  -2   1 171.106 6.90836   3
 -11  -2   1 196.058 10.1710   1
 -11  -2   1 167.303 12.0043   2
 -11   2   1 162.492 7.37462   1
  11   2  -1 169.618 9.21269   1
 -10  -2   1 1520.08 31.1416   1
  10  -2  -1 1543.65 30.1370   1
 -10  -2   1 1532.47 26.5238   3
 -10  -2   1 1476.14 36.4494   2
  10   2  -1 1575.22 30.2515   1
 -10   2   1 1584.51 27.5339   1
  -9  -2   1 782.150 19.1886   1
   9  -2  -1 806.650 18.3513   1
  -9  -2   1 772.356 15.1270   3
  -9  -2   1 791.988 23.7918   2
   9   2  -1 769.210 18.0729   1
  -8  -2   1 158.137 10.1067   2
  -8  -2   1 174.624 8.10092   1
   8  -2  -1 162.521 7.35322   1
  -8  -2   1 175.145 5.51965   3
   8   2  -1 169.975 7.45614   1
  -7  -2   1 1160.88 18.6441   3
  -7  -2   1 1147.91 23.0943   1
  -7  -2   1 1130.73 28.0120   2
   7  -2  -1 1184.94 21.8300   1
   7   2  -1 1177.83 22.0789   1
  -6  -2   1 1228.13 23.0436   1
  -6  -2   1 1217.34 28.0226   2
   6  -2  -1 1227.27 21.5395   1
   6   2  -1 1219.83 21.8551   1
  -5  -2   1 8.40762 3.31199   2
   5  -2  -1 11.2648 1.95526   1
  -5  -2   1 10.2022 2.39845   1
   5  -2  -1 13.2374 2.02017   1
   4  -2  -1 1412.70 21.8326   1
  -4  -2   1 1417.24 29.4179   2
  -4  -2   1 1416.59 23.7574   1
   4  -2  -1 1428.30 21.7359   1
   3  -2  -1 5.83346 0.82074   1
  -3  -2   1 4.68607 1.57260   1
   3  -2  -1 5.56361 2.68417   2
  -3  -2   1 7.68655 2.77785   2
  -3  -2   1 10.1147 2.01924   1
  -2  -2   1 61.7971 5.19179   2
  -2  -2   1 73.6510 2.78264   1
  -2  -2   1 68.8683 2.78022   1
   2  -2  -1 70.4307 5.00888   2
   1  -2  -1 120.552 6.10672   2
  -1  -2   1 111.145 6.42306   2
   0  -2   1 670.117 16.2611   2
   0  -2  -1 652.609 15.4435   2
  -1  -2  -1 633.864 15.5802   2
   1  -2   1 651.923 16.0662   2
  -1  -2  -1 638.650 9.62285   1
  -2  -2  -1 265.337 5.91585   1
  -2  -2  -1 252.756 9.53915   2
   2  -2   1 256.092 9.75083   2
  -2  -2  -1 260.406 5.82827   1
   3  -2   1 4487.34 62.3527   1
   3  -2   1 4414.90 62.2756   1
   3  -2   1 4404.17 70.3232   2
  -3  -2  -1 4550.44 64.2972   1
  -3  -2  -1 4433.81 70.4008   2
   4  -2   1 26.6541 2.25668   1
  -4  -2  -1 31.6645 3.07867   1
  -4  -2  -1 27.6578 4.29991   2
  -4  -2  -1 31.9222 3.11695   1
   4  -2   1 24.7707 2.28447   1
  -5  -2  -1 248.990 10.9227   2
   5  -2   1 236.085 6.91617   1
  -5  -2  -1 226.578 7.70938   1
   5   2   1 246.201 7.09222   1
  -6  -2  -1 13.7457 3.77485   2
   6  -2   1 20.6099 2.90961   1
  -6  -2  -1 16.4052 1.45860   3
  -6  -2  -1 19.4877 3.29115   1
   6   2   1 17.9602 2.93548   1
   7  -2   1 26.9994 3.46665   1
  -7  -2  -1 25.4047 2.27217   3
  -7  -2  -1 22.9422 3.62514   1
  -7  -2  -1 21.3445 4.65855   2
   7   2   1 26.7307 3.53412   1
   8  -2   1 839.725 18.6170   1
  -8  -2  -1 840.822 15.5489   3
  -8  -2  -1 871.375 19.8069   1
  -8  -2  -1 831.854 24.0002   2
   8   2   1 884.932 18.8909   1
   9  -2   1 948.095 21.2468   1
  -9  -2  -1 970.418 18.0690   3
  -9  -2  -1 983.228 27.3320   2
  -9  -2  -1 972.491 22.3892   1
  -9   2  -1 994.017 20.3768   1
   9   2   1 971.231 21.2704   1
 -10  -2  -1 974.307 28.3503   2
  10  -2   1 1011.45 22.9284   1
 -10  -2  -1 1024.26 19.4336   3
 -10  -2  -1 1035.06 24.0324   1
 -10   2  -1 1003.50 20.4238   1
  10   2   1 1027.32 22.7353   1
  11  -2   1 1121.79 25.6460   1
 -11  -2  -1 1122.85 21.6572   3
 -11  -2  -1 1136.39 32.0810   2
 -11  -2  -1 1118.67 26.4448   1
 -11   2  -1 1132.53 22.9777   1
  11   2   1 1124.43 25.1882   1
 -12  -2  -1 347.909 14.4343   1
 -12  -2  -1 376.376 18.4432   2
  12  -2   1 392.046 14.4584   1
 -12  -2  -1 358.269 10.8945   3
 -12   2  -1 329.783 14.5682   1
  12   2   1 380.822 13.9072   1
 -13  -2  -1 300.186 18.2177   2
  13  -2   1 315.286 13.7565   1
 -13  -2  -1 289.037 10.1848   3
 -13  -2  -1 279.665 13.8044   1
  13   2   1 281.695 12.8629   1
 -14  -2  -1 225.482 9.37010   3
 -14  -2  -1 221.102 16.2890   2
 -14  -2  -1 226.025 13.0604   1
  14  -2   1 211.000 12.4025   1
  14   2   1 231.610 12.3078   1
  15  -2   1 4.02612 4.82262   1
 -15  -2  -1 8.70913 7.05589   2
 -15  -2  -1 3.06860 3.08165   3
 -15  -2  -1 4.14256 5.24892   1
  15   2   1 9.14501 4.80360   1
 -16  -2  -1 26.8063 4.60219   3
 -16  -2  -1 42.4962 10.7513   2
 -16  -2  -1 34.7603 7.11795   1
  16  -2   1 20.2213 6.61332   1
  16   2   1 24.5578 6.66151   1
 -17  -2  -1 15.5769 7.57947   2
 -17  -2  -1 12.1603 6.06433   1
 -17  -2  -1 13.9483 3.89061   3
  17  -2   1 14.8512 6.12158   1
 -18  -2  -1 18.4683 4.43138   3
 -18  -2  -1 18.0967 8.04343   2
 -18  -2  -1 11.6047 6.73049   1
  18  -2   1 10.5209 6.30038   1
 -19  -2  -1 13.9564 6.60249   1
  19  -2   1 6.09319 6.67792   1
 -19  -2  -1 3.09263 3.34184   3
 -19  -2  -1 19.3976 8.31636   2
 -20  -2  -1 7.14999 6.43825   1
  20  -2   1 10.0081 7.40276   1
 -20  -2  -1 10.6494 7.62243   2
 -20  -2  -1 13.4705 4.36091   3
  19  -3  -1 -1.4579 5.85045   1
 -19  -3   1 3.70166 6.03735   1
 -19  -3   1 2.52620 2.86043   3
 -19  -3   1 -0.8682 6.80045   2
 -18  -3   1 0.14840 5.94772   1
 -18  -3   1 2.58488 2.56682   3
  18  -3  -1 6.43815 5.88576   1
 -18  -3   1 5.97107 7.65942   2
 -17  -3   1 12.0279 7.45705   2
 -17  -3   1 11.9794 3.08411   3
 -17  -3   1 15.2308 6.79087   1
  17  -3  -1 16.0101 6.31646   1
  16  -3  -1 47.7191 7.64907   1
 -16  -3   1 60.8671 4.99425   3
 -16  -3   1 41.5528 7.98668   1
 -16  -3   1 62.0246 11.1464   2
 -15  -3   1 43.4555 9.26866   2
 -15  -3   1 44.3343 7.81498   1
 -15  -3   1 44.7429 4.05383   3
  15  -3  -1 53.0053 7.59004   1
  14  -3  -1 5.99344 4.82037   1
 -14  -3   1 5.56739 6.09588   2
 -14  -3   1 19.5706 2.80461   3
 -14  -3   1 13.2474 5.67879   1
 -13  -3   1 113.084 12.9200   2
 -13  -3   1 148.400 11.1069   1
  13  -3  -1 123.484 9.67983   1
 -13  -3   1 147.224 5.39075   3
 -12  -3   1 135.215 10.0832   1
 -12  -3   1 128.358 4.45651   3
  12  -3  -1 120.818 9.06012   1
 -12  -3   1 137.114 12.4494   2
 -11  -3   1 103.099 11.6477   2
  11  -3  -1 99.0806 7.81683   1
 -11  -3   1 101.959 9.03212   1
 -10  -3   1 91.7463 10.4177   2
 -10  -3   1 101.471 8.28300   1
  10  -3  -1 118.149 7.68129   1
  10   3  -1 122.961 7.47025   1
  -9  -3   1 291.915 15.4983   2
  -9  -3   1 327.209 11.9871   1
   9  -3  -1 311.300 10.6856   1
   9   3  -1 307.646 10.0408   1
  -8  -3   1 9.42731 4.69512   2
   8  -3  -1 9.47954 2.89454   1
  -8  -3   1 6.78123 3.31871   1
   7  -3  -1 39.8493 3.77611   1
  -7  -3   1 47.0886 4.92919   1
   7  -3  -1 45.7534 3.71073   1
  -7  -3   1 39.3228 6.43870   2
  -6  -3   1 21.8292 3.57820   1
   6  -3  -1 23.2642 2.94569   1
   6  -3  -1 29.5853 2.87007   1
  -6  -3   1 26.2663 5.46043   2
   5  -3  -1 136.326 4.66061   1
  -5  -3   1 137.993 6.09211   1
   5  -3  -1 143.088 9.00867   2
  -5  -3   1 132.119 9.46725   2
   5  -3  -1 142.015 4.49672   1
  -4  -3   1 496.556 11.2913   1
   4  -3  -1 494.361 8.54739   1
  -4  -3   1 513.212 11.4407   1
  -4  -3   1 494.865 17.4289   2
   4  -3  -1 499.034 16.1536   2
   4  -3  -1 506.186 8.52293   1
   3  -3  -1 5.38569 3.12600   2
  -3  -3   1 6.65654 3.41855   2
  -3  -3   1 5.40760 1.74995   1
  -3  -3   1 6.50704 1.73807   1
  -2  -3   1 6.22956 3.36918   2
  -2  -3   1 2.15681 1.17905   1
  -2  -3   1 1.48800 1.23708   1
   2  -3  -1 4.96198 3.22001   2
  -1  -3   1 31.0340 5.46519   2
   1  -3  -1 38.8045 5.63852   2
   0  -3  -1 0.80224 2.68157   2
   0  -3   1 -0.4106 2.86993   2
  -1  -3  -1 -1.5237 2.61512   2
   1  -3   1 0.35615 2.79022   2
  -2  -3  -1 1053.18 16.7224   1
  -2  -3  -1 1003.21 24.6394   2
  -2  -3  -1 1001.05 16.4976   1
   2  -3   1 989.820 24.5709   2
  -3  -3  -1 138.984 8.91674   2
  -3  -3  -1 133.710 5.00079   1
   3  -3   1 131.001 9.07177   2
  -3  -3  -1 131.371 5.04657   1
   4  -3   1 72.9085 3.11508   1
  -4  -3  -1 63.8054 4.39314   1
   4  -3   1 67.4420 3.11975   1
   4  -3   1 83.8686 7.88836   2
  -4  -3  -1 65.0693 4.91516   1
  -4  -3  -1 77.4222 4.50416   1
  -4  -3  -1 76.8387 7.60156   2
  -5  -3  -1 15.4272 4.81511   2
   5  -3   1 14.6602 2.07360   1
  -5  -3  -1 14.2347 2.83704   1
   5  -3   1 15.5201 2.22978   1
   6  -3   1 256.452 7.66845   1
  -6  -3  -1 268.580 9.40727   1
  -6  -3  -1 269.874 13.5040   2
   6  -3   1 276.322 8.06392   1
  -7  -3  -1 38.9370 4.51144   1
   7  -3   1 43.9805 4.23503   1
  -7  -3  -1 57.7983 7.95825   2
  -8  -3  -1 117.610 7.51712   1
   8  -3   1 116.327 6.53088   1
  -8  -3  -1 109.390 9.85946   2
  -9  -3  -1 314.067 16.2811   2
  -9  -3  -1 329.894 12.3494   1
   9  -3   1 352.128 11.6973   1
   9   3   1 338.657 10.7581   1
 -10  -3  -1 158.396 9.49134   1
  10  -3   1 168.713 9.02875   1
 -10  -3  -1 160.729 12.5478   2
 -11  -3  -1 -1.2418 4.68801   2
  11  -3   1 -1.2975 3.50851   1
 -11  -3  -1 2.27929 3.97106   1
 -12  -3  -1 11.2492 6.72498   2
 -12  -3  -1 7.82179 4.68979   1
 -12  -3  -1 13.9862 2.01199   3
  12  -3   1 16.8091 4.87074   1
 -13  -3  -1 176.792 14.7374   2
 -13  -3  -1 184.417 6.14682   3
 -13  -3  -1 179.001 11.7846   1
  13  -3   1 186.019 11.2443   1
 -14  -3  -1 3.56636 5.97530   2
  14  -3   1 -4.2047 3.91118   1
 -14  -3  -1 -1.1115 4.77481   1
 -14  -3  -1 5.01772 2.03497   3
  15  -3   1 47.9589 7.52886   1
 -15  -3  -1 46.0239 7.70662   1
 -15  -3  -1 46.8238 4.27011   3
 -15  -3  -1 37.7782 8.79514   2
 -16  -3  -1 33.3304 3.91574   3
 -16  -3  -1 24.2515 6.70085   1
  16  -3   1 30.2784 7.02150   1
 -16  -3  -1 27.3600 8.71724   2
 -17  -3  -1 76.6009 10.1362   1
  17  -3   1 59.4040 9.17487   1
 -17  -3  -1 60.0251 5.32775   3
 -17  -3  -1 49.2498 10.3549   2
 -18  -3  -1 37.3981 4.68081   3
  18  -3   1 30.9624 7.68291   1
 -18  -3  -1 32.6637 9.40004   2
 -18  -3  -1 36.7906 8.47411   1
 -19  -3  -1 53.1279 11.6882   2
 -19  -3  -1 29.3131 8.47440   1
 -19  -3  -1 33.4872 4.73366   3
  19  -3   1 24.8181 7.85186   1
 -18  -4   1 -1.0129 6.08907   1
  18  -4  -1 1.21382 5.56314   1
 -18  -4   1 2.95206 7.20153   2
  17  -4  -1 8.13771 5.68772   1
 -17  -4   1 6.61555 6.15997   1
 -17  -4   1 10.8895 7.88922   2
 -16  -4   1 -6.2666 6.01534   2
 -16  -4   1 -1.6589 5.39113   1
  16  -4  -1 -3.6492 4.44984   1
 -15  -4   1 25.4962 6.75512   1
 -15  -4   1 30.0584 8.71234   2
  15  -4  -1 34.7613 6.86234   1
  14  -4  -1 83.0778 8.83564   1
 -14  -4   1 68.8976 12.0143   2
 -14  -4   1 72.7314 9.20720   1
  13  -4  -1 88.5796 8.44356   1
 -13  -4   1 76.7556 8.89625   1
 -13  -4   1 85.8544 12.1066   2
 -12  -4   1 322.226 19.9992   2
  12  -4  -1 342.187 13.8095   1
 -12  -4   1 327.200 14.9820   1
 -11  -4   1 11.3654 4.94166   1
  11  -4  -1 6.77214 3.98468   1
 -11  -4   1 10.1673 6.98902   2
 -10  -4   1 700.298 27.4286   2
  10  -4  -1 705.241 18.1029   1
 -10  -4   1 696.005 20.1993   1
  -9  -4   1 676.062 26.2252   2
   9  -4  -1 629.127 16.1415   1
  -9  -4   1 633.462 18.2861   1
  -8  -4   1 5.76085 5.74630   2
   8  -4  -1 10.6711 3.00522   1
  -8  -4   1 6.04045 3.62975   1
   7  -4  -1 807.472 16.0795   1
   7  -4  -1 767.762 16.1894   1
  -7  -4   1 811.322 27.2850   2
  -7  -4   1 790.626 19.0780   1
   6  -4  -1 52.6240 3.67583   1
  -6  -4   1 48.7565 4.87216   1
  -6  -4   1 63.3904 9.36437   2
   6  -4  -1 57.0023 4.05086   1
  -5  -4   1 22.0753 6.15493   2
   5  -4  -1 26.1937 2.24808   1
  -5  -4   1 33.9857 3.84680   1
   5  -4  -1 28.4351 2.38668   1
  -5  -4   1 31.5877 3.95216   1
   5  -4  -1 25.2934 6.13550   2
   4  -4  -1 167.817 11.2482   2
  -4  -4   1 158.811 6.44330   1
  -4  -4   1 147.889 6.19634   1
  -4  -4   1 159.717 11.9111   2
  -3  -4   1 110.980 4.80923   1
  -3  -4   1 113.567 5.01555   1
  -3  -4   1 141.475 11.1788   2
   3  -4  -1 118.570 9.58259   2
  -2  -4   1 383.630 8.30888   1
  -2  -4   1 375.422 16.6624   2
   2  -4  -1 384.341 15.8468   2
  -2  -4   1 372.562 8.17996   1
  -1  -4   1 8.97622 1.25824   1
   1  -4  -1 9.52894 4.61024   2
  -1  -4   1 1.65605 4.10892   2
   0  -4   1 727.788 22.9009   2
   0  -4  -1 756.240 22.6689   2
  -1  -4  -1 -2.5285 3.33796   2
   1  -4   1 -0.2835 3.99223   2
  -1  -4  -1 1.09953 0.90157   1
   2  -4   1 -1.3724 3.59072   2
  -2  -4  -1 2.46123 1.47303   1
  -2  -4  -1 2.98466 1.57625   1
  -2  -4  -1 4.25094 4.07759   2
  -3  -4  -1 541.934 19.8905   2
   3  -4   1 528.091 19.7932   2
  -3  -4  -1 580.114 12.0134   1
  -3  -4  -1 559.361 12.0744   1
  -4  -4  -1 506.106 12.2833   1
  -4  -4  -1 539.976 19.9763   2
  -4  -4  -1 506.537 12.1101   1
   4  -4   1 501.375 9.41265   1
   4  -4   1 506.270 9.40413   1
   4  -4   1 483.060 19.2966   2
  -5  -4  -1 32.1280 3.92395   1
   5  -4   1 31.2762 2.86872   1
  -5  -4  -1 39.0543 4.30702   1
  -5  -4  -1 36.1744 6.88341   2
   5  -4   1 29.3350 6.83836   2
   5  -4   1 35.3416 2.87309   1
  -6  -4  -1 10.3804 3.27008   1
   6  -4   1 9.06494 2.31130   1
   6  -4   1 8.31363 2.49233   1
  -6  -4  -1 15.4108 6.01892   2
   7  -4   1 -0.8992 2.10693   1
  -7  -4  -1 -4.3419 2.83995   1
   7  -4   1 -0.0801 2.36730   1
  -7  -4  -1 2.31035 4.90618   2
  -8  -4  -1 -0.1545 3.20444   1
   8  -4   1 4.96755 2.88207   1
  -8  -4  -1 4.44730 5.12107   2
  -9  -4  -1 2.34633 5.41306   2
   9  -4   1 1.08939 3.06429   1
  -9  -4  -1 3.02853 3.93129   1
 -10  -4  -1 183.638 15.2970   2
 -10  -4  -1 181.754 10.6451   1
  10  -4   1 191.992 9.72055   1
 -11  -4  -1 112.114 13.0600   2
  11  -4   1 136.488 9.12675   1
 -11  -4  -1 142.612 10.5659   1
  12  -4   1 30.7062 5.75882   1
 -12  -4  -1 28.1260 6.54169   1
 -12  -4  -1 30.2659 8.63651   2
 -13  -4  -1 8.75426 5.10741   1
  13  -4   1 5.47414 4.45413   1
 -13  -4  -1 -0.4696 6.31624   2
 -14  -4  -1 4.40871 5.20724   1
 -14  -4  -1 8.49699 6.75842   2
  14  -4   1 4.40796 4.62900   1
 -15  -4  -1 83.1125 13.4559   2
  15  -4   1 90.7213 9.84821   1
 -15  -4  -1 78.9004 9.57855   1
 -16  -4  -1 18.9538 8.79053   2
 -16  -4  -1 24.7679 7.01340   1
  16  -4   1 14.8058 6.05641   1
  17  -4   1 62.7450 9.20322   1
 -17  -4  -1 51.0303 9.57590   1
 -17  -4  -1 91.6750 14.8709   2
 -16  -5   1 39.6170 8.48196   1
  16  -5  -1 41.4559 8.00464   1
 -16  -5   1 41.0457 10.7643   2
  15  -5  -1 98.1917 9.84756   1
 -15  -5   1 82.0472 10.3047   1
 -15  -5   1 86.9000 14.8487   2
 -14  -5   1 36.1698 10.4630   2
 -14  -5   1 36.3190 7.54903   1
  14  -5  -1 47.3765 7.44587   1
 -13  -5   1 7.47880 5.05487   1
  13  -5  -1 11.7820 4.89412   1
 -13  -5   1 7.18897 7.27441   2
 -12  -5   1 24.9728 6.12616   1
 -12  -5   1 34.5735 9.23870   2
  12  -5  -1 23.7889 5.36907   1
 -11  -5   1 105.304 9.44283   1
 -11  -5   1 107.184 14.5749   2
  11  -5  -1 119.303 8.47880   1
 -10  -5   1 10.6637 5.00629   1
  10  -5  -1 10.7692 4.01539   1
 -10  -5   1 12.2321 6.75600   2
  -9  -5   1 61.7621 10.5774   2
   9  -5  -1 73.4839 6.20349   1
  -9  -5   1 76.3719 7.75175   1
  -8  -5   1 85.4638 7.61758   1
   8  -5  -1 82.2146 5.96845   1
  -8  -5   1 71.9447 11.4048   2
   7  -5  -1 -2.6889 2.10817   1
  -7  -5   1 -0.1327 3.28408   1
  -7  -5   1 -4.4292 4.35952   2
  -6  -5   1 80.6941 6.62930   1
   6  -5  -1 91.6828 4.74235   1
   6  -5  -1 86.7309 6.52302   1
   6  -5  -1 94.7457 12.0623   2
  -6  -5   1 91.4956 11.8312   2
  -5  -5   1 195.223 14.7511   2
   5  -5  -1 192.612 5.29089   1
  -5  -5   1 198.712 8.64891   1
   5  -5  -1 199.429 5.53717   1
   5  -5  -1 213.056 15.2229   2
  -4  -5   1 174.086 14.2690   2
  -4  -5   1 176.055 7.51848   1
   4  -5  -1 180.791 14.2195   2
  -3  -5   1 232.730 15.1587   2
  -3  -5   1 216.830 9.18120   1
   3  -5  -1 189.366 14.7755   2
  -3  -5   1 228.706 7.64816   1
  -2  -5   1 143.921 13.2728   2
  -2  -5   1 139.548 5.30655   1
  -2  -5   1 141.073 5.56665   1
   2  -5  -1 157.461 12.9575   2
  -1  -5   1 628.027 24.2373   2
   1  -5  -1 641.300 23.5861   2
  -1  -5   1 628.732 11.6763   1
  -1  -5   1 620.567 11.5796   1
   0  -5  -1 1.34389 5.48062   2
   0  -5   1 -3.8532 5.13914   2
  -1  -5  -1 399.216 8.46625   1
  -1  -5  -1 424.248 8.77972   1
   1  -5   1 430.373 20.1162   2
  -1  -5  -1 411.998 19.3507   2
  -2  -5  -1 324.577 8.44708   1
  -2  -5  -1 312.030 8.15638   1
   2  -5   1 310.230 17.5435   2
  -2  -5  -1 318.068 8.39811   1
  -2  -5  -1 317.133 17.2762   2
  -3  -5  -1 130.107 6.18695   1
  -3  -5  -1 116.331 12.5919   2
   3  -5   1 132.646 13.3321   2
   4  -5   1 550.687 22.7187   2
  -4  -5  -1 522.571 13.4389   1
  -4  -5  -1 583.177 23.6366   2
   4  -5   1 503.344 9.88193   1
   4  -5   1 515.257 9.94397   1
   5  -5   1 438.436 9.91719   1
  -5  -5  -1 435.801 12.9889   1
  -5  -5  -1 456.706 21.4311   2
   5  -5   1 481.831 22.0152   2
   5  -5   1 423.140 9.73842   1
   6  -5   1 63.8663 4.73909   1
   6  -5   1 64.6819 9.99764   2
  -6  -5  -1 64.3605 6.14613   1
  -6  -5  -1 74.8142 11.4517   2
  -7  -5  -1 72.8494 11.2336   2
  -7  -5  -1 83.8508 7.21070   1
   7  -5   1 81.6430 5.75515   1
  -8  -5  -1 93.0346 8.04459   1
  -8  -5  -1 120.787 14.2512   2
   8  -5   1 92.1087 6.56351   1
   9  -5   1 109.799 7.43798   1
  -9  -5  -1 106.193 8.92895   1
  -9  -5  -1 106.608 13.5998   2
 -10  -5  -1 74.3064 8.33402   1
  10  -5   1 78.6887 7.04343   1
 -10  -5  -1 59.6113 10.8539   2
 -11  -5  -1 78.7447 13.0624   2
  11  -5   1 66.7803 7.01183   1
 -11  -5  -1 62.3537 8.02318   1
 -12  -5  -1 80.1903 9.15026   1
  12  -5   1 92.6256 8.64282   1
 -12  -5  -1 104.326 15.2075   2
 -13  -5  -1 179.843 12.5077   1
  13  -5   1 175.519 11.3702   1
 -13  -5  -1 151.621 17.3625   2
 -14  -5  -1 3.93360 7.62131   2
  14  -5   1 1.67227 4.84551   1
 -14  -5  -1 8.40243 5.62347   1
  15  -5   1 18.7990 6.16619   1
 -15  -5  -1 39.4745 11.4069   2
 -15  -5  -1 47.3907 8.88418   1
 -12  -6   1 0.47445 7.57845   2
 -12  -6   1 -1.0383 4.91963   1
  12  -6  -1 1.24335 4.21398   1
 -11  -6   1 -2.7962 6.72709   2
 -11  -6   1 4.46640 4.90240   1
  11  -6  -1 3.79693 3.98017   1
  10  -6  -1 144.679 9.06955   1
 -10  -6   1 189.113 20.0867   2
 -10  -6   1 157.958 11.1772   1
   9  -6  -1 -1.0595 3.06691   1
  -9  -6   1 1.54546 7.86103   2
  -9  -6   1 12.0176 4.80149   1
  -8  -6   1 48.8807 11.0099   2
   8  -6  -1 49.6100 5.10721   1
  -8  -6   1 52.4517 6.81802   1
   7  -6  -1 26.9528 3.70871   1
  -7  -6   1 28.9528 5.36430   1
  -7  -6   1 39.6725 10.5271   2
  -6  -6   1 91.3521 13.7041   2
  -6  -6   1 62.8145 6.48186   1
   6  -6  -1 116.554 15.1182   2
   6  -6  -1 75.9726 4.90219   1
  -5  -6   1 10.9554 7.90539   2
   5  -6  -1 9.18662 7.93595   2
  -5  -6   1 1.42395 3.05848   1
  -4  -6   1 -2.9994 6.37819   2
   4  -6  -1 5.05338 6.95072   2
  -4  -6   1 1.20351 2.85796   1
   3  -6  -1 7.52155 7.53498   2
  -3  -6   1 2.64229 2.79242   1
  -3  -6   1 -8.2716 6.03022   2
  -2  -6   1 1.07873 6.30343   2
   2  -6  -1 0.11841 6.71937   2
  -2  -6   1 -1.7615 2.16245   1
  -1  -6   1 28.3227 9.09533   2
   1  -6  -1 24.5092 8.44738   2
  -1  -6   1 26.0936 3.02717   1
   0  -6  -1 29.0725 8.67389   2
   0  -6   1 19.7753 8.19168   2
  -1  -6  -1 44.2786 3.68327   1
   1  -6   1 46.1866 9.98192   2
  -1  -6  -1 48.0242 10.9463   2
  -2  -6  -1 85.6417 13.2940   2
   2  -6   1 92.0884 13.5034   2
  -2  -6  -1 79.8993 5.36958   1
  -3  -6  -1 170.892 7.72742   1
  -3  -6  -1 168.390 16.1047   2
   3  -6   1 169.145 16.3103   2
   4  -6   1 180.369 5.53930   1
   4  -6   1 185.857 17.3406   2
  -4  -6  -1 185.581 8.62859   1
  -4  -6  -1 215.754 17.5087   2
  -5  -6  -1 203.567 17.6871   2
  -5  -6  -1 192.374 9.34448   1
   5  -6   1 182.774 17.3408   2
   5  -6   1 188.269 6.52430   1
  -6  -6  -1 265.231 19.6394   2
  -6  -6  -1 239.103 11.1579   1
   6  -6   1 244.041 8.28014   1
  -7  -6  -1 -2.8367 6.35110   2
   7  -6   1 -1.5901 2.60944   1
  -7  -6  -1 -0.4294 3.59672   1
  -8  -6  -1 7.65132 4.59812   1
   8  -6   1 2.43214 3.17348   1
  -8  -6  -1 5.54644 6.77579   2
   9  -6   1 27.6273 4.78596   1
  -9  -6  -1 22.3798 5.57453   1
  -9  -6  -1 22.5078 9.66264   2
  10  -6   1 47.6002 6.11232   1
 -10  -6  -1 45.9252 11.5492   2
 -10  -6  -1 50.5587 7.72448   1
  11  -6   1 5.85526 4.29333   1
 -11  -6  -1 3.99022 8.71311   2
 -11  -6  -1 9.07103 5.07184   1
 -12  -6  -1 29.1816 7.03008   1
  12  -6   1 19.6519 5.52646   1
 -12  -6  -1 18.9005 10.5432   2
  -6  -7   1 40.6757 12.2048   2
   6  -7  -1 39.9650 3.65653   1
  -6  -7   1 30.3411 5.47836   1
  -5  -7   1 15.2571 4.41001   1
  -5  -7   1 15.2462 10.3531   2
   5  -7  -1 24.1487 10.7537   2
  -4  -7   1 53.8153 12.5629   2
  -4  -7   1 62.1157 5.97819   1
   4  -7  -1 57.4654 13.0780   2
   3  -7  -1 54.7444 13.4632   2
  -3  -7   1 56.2215 12.7546   2
  -3  -7   1 42.3853 4.65456   1
  -2  -7   1 -4.2210 7.13252   2
   2  -7  -1 -4.7312 7.44634   2
  -2  -7   1 0.64890 2.46966   1
  -1  -7   1 -0.3642 2.13244   1
   1  -7  -1 3.92440 8.16131   2
  -1  -7   1 -4.4835 7.15375   2
   0  -7   1 31.0839 10.4890   2
   0  -7   1 21.1650 2.72873   1
   0  -7  -1 12.3750 9.14369   2
   1  -7   1 42.1892 11.9401   2
  -1  -7  -1 35.5353 3.71862   1
  -1  -7  -1 40.8323 11.4816   2
   2  -7   1 10.7719 9.31824   2
  -2  -7  -1 -0.3719 8.00160   2
  -2  -7  -1 5.28063 2.71435   1
  -3  -7  -1 1.91194 2.80650   1
  -3  -7  -1 2.75324 8.06313   2
   3  -7   1 -6.5262 7.94037   2
  -4  -7  -1 25.3006 4.62565   1
  -4  -7  -1 33.2580 11.5672   2
   4  -7   1 37.5658 11.5748   2
  -5  -7  -1 -0.6525 3.57105   1
  -5  -7  -1 -0.8329 8.02991   2
   5  -7   1 -2.5871 8.16109   2
   5  -7   1 -0.9975 2.21469   1
  -6  -7  -1 60.9528 14.2221   2
   6  -7   1 38.8801 4.08205   1
  -6  -7  -1 36.8146 6.04848   1
  21   0  -2 20.9439 7.95806   1
  20   0  -2 8.59665 6.38660   1
 -19   0   2 241.992 14.7805   1
  19   0  -2 220.342 14.9755   1
 -18   0   2 117.061 10.8760   1
  18   0  -2 122.023 12.2139   1
 -17   0   2 77.1499 9.03954   1
  17   0  -2 65.8145 9.19650   1
  16   0  -2 741.897 23.5819   1
 -16   0   2 802.722 23.1113   1
 -16   0   2 762.727 20.7833   3
 -15   0   2 105.186 7.59495   3
 -15   0   2 112.493 9.16651   1
  15   0  -2 93.2426 7.18545   3
  15   0  -2 95.4763 9.55195   1
  14   0  -2 139.229 9.95629   1
  14   0  -2 160.937 7.94402   3
 -14   0   2 144.771 9.57483   1
 -13   0   2 664.843 18.9986   1
  13   0  -2 666.906 16.3204   3
  13   0  -2 681.082 19.6672   1
 -13   0   2 668.199 16.8617   3
 -12   0   2 0.78928 1.57202   3
  12   0  -2 1.73247 2.03908   3
  12   0  -2 0.18430 2.64492   1
 -12   0   2 0.15680 2.82947   1
  11   0  -2 385.711 13.1103   1
 -11   0   2 367.581 12.4123   1
  11   0  -2 368.836 10.5658   3
 -11   0   2 357.389 10.8988   3
  10   0  -2 172.160 8.50742   1
  10   0  -2 179.168 6.83465   3
 -10   0   2 191.384 8.46432   1
  -9   0   2 3208.81 51.5842   1
   9   0  -2 3149.74 52.0325   1
  -9   0   2 3171.43 49.5134   3
   9   0  -2 3208.60 49.0310   3
  -8   0   2 1.89598 2.26796   1
   8   0  -2 -0.5909 1.45679   3
  -8   0   2 -0.0216 1.46868   3
   8   0  -2 3.93974 2.40009   1
  -7   0   2 1622.99 26.9214   3
  -7   0   2 1648.34 28.4905   1
   7   0  -2 1663.03 26.7169   3
   7   0  -2 1618.28 28.7553   1
   6   0  -2 2989.43 45.9787   1
  -6   0   2 2927.05 45.6150   1
   6   0  -2 2978.57 43.9959   3
  -6   0   2 2934.81 44.1231   3
  -5   0   2 302.158 8.00491   1
  -5   0   2 303.804 7.09212   3
   5   0  -2 315.659 8.31829   1
   4   0  -2 7433.82 105.692   1
  -4   0   2 7614.41 105.592   1
  -1   0   2 41.5288 1.79237   1
   1   0  -2 40.5859 1.82109   1
  -1   0   2 47.3047 1.63416   2
  -1   0  -2 3328.95 46.6970   3
   1   0   2 3342.01 47.2811   1
   1   0   2 3325.19 46.6795   3
  -1   0  -2 3340.64 47.3342   1
   2   0   2 3260.36 46.1071   3
  -2   0  -2 3128.35 46.0613   3
   2   0   2 3271.26 46.9739   1
  -2   0  -2 3345.25 47.0667   1
  -4   0  -2 1743.94 28.6570   1
  -4   0  -2 1801.11 27.5497   3
   4   0   2 1796.98 27.5267   3
   4   0   2 1774.69 28.7809   1
  -5   0  -2 1524.29 26.3451   1
   5   0   2 1559.07 26.4896   1
  -5   0  -2 1569.03 25.0543   3
   5   0   2 1530.87 24.8136   3
   6   0   2 226.621 6.54557   3
  -6   0  -2 210.115 7.44606   1
   6   0   2 212.068 7.57985   1
  -6   0  -2 221.855 6.63437   3
  -7   0  -2 169.780 6.24752   3
   7   0   2 171.009 6.15945   3
  -7   0  -2 156.592 7.05014   1
   7   0   2 160.861 7.28035   1
  -8   0  -2 2557.20 40.4089   3
  -8   0  -2 2452.83 42.2194   1
   8   0   2 2534.65 42.9184   1
   8   0   2 2521.22 40.0238   3
   9   0   2 1722.35 32.8509   1
   9   0   2 1727.12 29.8899   3
  -9   0  -2 1739.97 32.4259   1
  -9   0  -2 1737.85 30.2642   3
 -10   0  -2 41.2341 4.32678   3
  10   0   2 39.2343 4.02302   3
 -10   0  -2 41.4200 5.37152   1
  10   0   2 31.2773 4.54687   1
  11   0   2 97.3801 5.80004   3
 -11   0  -2 110.647 7.68025   1
  11   0   2 120.426 8.15866   1
 -11   0  -2 107.028 6.38993   3
 -12   0  -2 10.1459 3.00871   3
  12   0   2 14.3795 4.33420   1
  12   0   2 14.5035 3.29533   3
 -12   0  -2 11.1765 3.97689   1
 -13   0  -2 3.25743 2.80006   3
  13   0   2 1.10022 3.94644   1
  13   0   2 6.63347 2.89695   3
 -13   0  -2 1.57793 3.63283   1
 -14   0  -2 2055.67 41.8788   1
 -14   0  -2 2113.69 39.1212   3
  14   0   2 2147.57 43.4450   1
  14   0   2 2072.41 39.0242   3
 -15   0  -2 154.166 9.22791   3
  15   0   2 164.864 11.6922   1
 -15   0  -2 133.521 10.4939   1
  16   0   2 10.0775 5.70559   1
 -16   0  -2 13.9070 5.42154   1
 -17   0  -2 24.3987 6.49096   1
  17   0   2 34.7474 7.21321   1
  18   0   2 45.4690 8.86320   1
 -18   0  -2 32.0540 7.34254   1
  19   0   2 9.61088 6.80010   1
  20   0   2 147.366 14.1642   1
  21   0   2 42.9771 9.83731   1
 -21  -1   2 12.1355 7.11468   1
  21  -1  -2 17.2827 8.27830   1
 -21  -1   2 18.4832 11.6768   2
  21   1  -2 5.88419 6.85430   1
 -20  -1   2 14.1610 4.83567   3
  20  -1  -2 6.96791 6.79363   1
 -20  -1   2 13.9317 6.56456   1
 -20  -1   2 15.9785 11.7834   2
  20   1  -2 7.14915 6.56341   1
 -19  -1   2 2.37972 3.28945   3
 -19  -1   2 -1.2611 9.92032   2
 -19  -1   2 3.51994 5.29834   1
  19  -1  -2 3.86517 5.98315   1
  19   1  -2 -2.7397 4.95919   1
  18  -1  -2 6.43090 5.98576   1
 -18  -1   2 19.8971 6.40511   1
 -18  -1   2 12.5714 4.10800   3
 -18  -1   2 20.3044 11.6027   2
  18   1  -2 16.8618 6.23044   1
 -17  -1   2 60.8259 13.6947   2
 -17  -1   2 68.0565 7.05051   3
 -17  -1   2 65.3108 8.76265   1
  17  -1  -2 48.3687 7.82455   1
  17   1  -2 73.5118 9.36990   1
 -16  -1   2 453.991 25.4317   2
  16  -1  -2 467.976 18.5053   1
 -16  -1   2 495.434 18.6127   1
 -16  -1   2 463.550 15.1634   3
  16   1  -2 473.010 18.3539   1
 -16   1   2 462.978 16.8173   1
  15  -1  -2 -3.1076 2.16292   3
 -15  -1   2 -2.8381 4.39457   1
 -15  -1   2 3.48789 2.96725   3
  15  -1  -2 -3.3500 3.72377   1
 -15  -1   2 15.1359 9.52954   2
 -15   1   2 -5.8093 3.63056   1
  15   1  -2 -4.1486 4.09175   1
 -14  -1   2 451.588 13.7460   3
 -14  -1   2 434.713 16.4657   1
  14  -1  -2 439.823 11.9784   3
  14  -1  -2 454.363 16.6891   1
 -14  -1   2 409.182 22.1693   2
  14   1  -2 464.937 16.6831   1
 -14   1   2 448.598 15.2877   1
  13  -1  -2 128.063 9.16185   1
 -13  -1   2 99.6676 11.7633   2
  13  -1  -2 125.300 6.14769   3
 -13  -1   2 155.320 9.73436   1
 -13  -1   2 139.970 7.42663   3
  13   1  -2 132.056 9.14911   1
 -13   1   2 134.885 9.40245   3
 -13   1   2 138.813 8.55213   1
  12  -1  -2 263.080 8.28602   3
 -12  -1   2 277.577 16.2162   2
  12  -1  -2 265.429 11.5472   1
 -12  -1   2 258.808 9.49860   3
 -12  -1   2 285.472 11.9528   1
 -12   1   2 269.745 10.8181   1
  12   1  -2 288.444 11.9588   1
  11  -1  -2 1069.13 24.0807   1
  11  -1  -2 1034.72 19.2325   3
 -11  -1   2 1042.43 29.5202   2
 -11  -1   2 1040.40 21.0637   3
 -11  -1   2 1010.63 23.5981   1
  11   1  -2 1018.29 23.5924   1
 -11   1   2 1016.00 22.2169   1
 -10  -1   2 633.641 14.3933   3
 -10  -1   2 612.956 16.6943   1
 -10  -1   2 638.592 21.1871   2
  10  -1  -2 608.801 16.3457   1
 -10   1   2 603.726 15.1760   1
  10   1  -2 595.844 16.3380   1
  -9  -1   2 69.5656 8.08290   2
  -9  -1   2 65.2237 5.80941   1
  -9  -1   2 57.0272 4.22829   3
   9  -1  -2 68.6357 5.82351   1
   9   1  -2 60.2243 5.42952   1
  -9   1   2 62.3414 4.74136   1
  -8  -1   2 452.064 16.1530   2
  -8  -1   2 426.163 10.4071   3
   8  -1  -2 429.402 11.9621   1
  -8  -1   2 438.610 12.3972   1
   8   1  -2 441.017 12.2360   1
  -8   1   2 407.763 11.0353   1
   7  -1  -2 -0.8020 1.84947   1
  -7  -1   2 -1.8989 1.18778   3
  -7  -1   2 -0.5460 2.82332   2
  -7  -1   2 -1.7139 1.87036   1
  -7   1   2 0.64855 1.75780   1
   7   1  -2 -2.2444 1.70504   1
  -6  -1   2 78.0138 5.95903   2
  -6  -1   2 84.7736 4.87869   1
  -6  -1   2 80.2129 3.73537   3
   6  -1  -2 81.3258 4.62118   1
  -6   1   2 81.7003 4.07012   1
   6   1  -2 77.7922 4.74163   1
  -5  -1   2 -2.3320 1.44121   1
   5  -1  -2 0.69099 1.52389   1
  -5  -1   2 0.38625 1.04683   3
  -5  -1   2 1.11510 2.28232   2
  -5   1   2 -0.5768 1.20031   1
   5   1  -2 -1.6240 1.48553   1
   4  -1  -2 4292.12 61.6575   1
  -4  -1   2 4350.67 66.3810   2
  -4  -1   2 4293.94 62.4957   1
  -4  -1   2 4255.90 60.5438   3
   4   1  -2 4300.30 62.2613   1
   3  -1  -2 191.299 4.92877   1
  -3  -1   2 188.527 4.15322   3
  -3  -1   2 182.540 5.41292   1
  -3  -1   2 182.762 7.44321   2
   3   1  -2 183.500 5.26194   1
  -2  -1   2 432.974 10.9311   2
   2  -1  -2 437.262 7.51259   1
  -2  -1   2 431.832 8.41464   1
   2  -1  -2 454.481 9.23138   2
   2  -1  -2 438.635 7.63713   1
   2   1  -2 437.930 8.80848   1
   0  -1  -2 1648.00 25.3389   2
   0  -1  -2 1596.86 23.2087   1
   0  -1   2 1628.57 23.4405   1
   0  -1   2 1604.34 27.1170   2
   0  -1   2 1600.81 23.5113   1
   0  -1  -2 1623.89 23.2667   1
   1  -1   2 996.331 18.9795   2
  -1  -1  -2 1014.11 15.9395   1
   1  -1   2 1039.89 15.6800   1
  -1  -1  -2 1007.47 17.8374   2
   3  -1   2 3284.79 47.8515   1
  -3  -1  -2 3293.64 48.5621   1
  -3  -1  -2 3374.00 51.6894   2
  -3  -1  -2 3231.96 46.3845   3
  -3   1  -2 3242.45 47.3376   1
   3   1   2 3256.20 48.1003   1
  -4  -1  -2 77.2954 3.14167   3
  -4  -1  -2 79.0298 4.24442   1
   4  -1   2 80.8300 4.09016   1
  -4  -1  -2 73.6161 4.13320   1
   4  -1   2 80.6105 2.43374   3
  -4   1  -2 76.5085 3.62940   1
   4   1   2 75.9483 4.11778   1
  -5  -1  -2 78.7920 3.60776   3
   5  -1   2 88.0860 2.99554   3
   5  -1   2 78.0127 4.37639   1
  -5  -1  -2 74.1079 4.56537   1
  -5   1  -2 81.9224 4.08387   1
   5   1   2 88.5175 4.69651   1
  -6  -1  -2 838.710 18.0868   1
   6  -1   2 887.935 14.9643   3
  -6  -1  -2 886.210 16.1752   3
   6  -1   2 878.687 17.8018   1
   6   1   2 876.403 18.0257   1
  -6   1  -2 905.170 17.1891   1
  -7  -1  -2 -3.0048 2.03282   1
   7  -1   2 -0.7872 2.05387   1
   7  -1   2 2.23522 1.22800   3
  -7  -1  -2 -1.1861 1.24554   3
   7   1   2 0.91670 2.19038   1
  -7   1  -2 -2.0744 1.81049   1
   8  -1   2 401.478 9.34699   3
  -8  -1  -2 409.892 12.4816   1
  -8  -1  -2 425.246 10.6680   3
   8  -1   2 412.621 12.3136   1
   8   1   2 425.086 12.4919   1
  -8   1  -2 399.512 11.3064   1
   9  -1   2 605.049 12.7979   3
  -9  -1  -2 618.496 16.5393   1
   9  -1   2 619.541 16.3205   1
  -9  -1  -2 642.355 14.3856   3
   9   1   2 613.332 16.2690   1
  -9   1  -2 600.902 15.1612   1
  10  -1   2 158.934 8.71713   1
 -10  -1  -2 170.485 9.03594   1
 -10  -1  -2 167.735 7.26045   3
  10  -1   2 161.425 6.20361   3
 -10   1  -2 148.560 7.87048   1
  10   1   2 173.247 8.89989   1
  11  -1   2 0.03402 1.72732   3
 -11  -1  -2 4.42137 3.56397   1
 -11  -1  -2 1.31405 2.17539   3
  11  -1   2 -3.8523 2.97079   1
 -11   1  -2 -1.9405 2.72940   1
  11   1   2 -0.3607 2.94901   1
  12  -1   2 73.6322 5.03565   3
  12  -1   2 58.1525 6.74707   1
 -12  -1  -2 57.9780 6.99483   1
 -12  -1  -2 68.0053 5.66030   3
 -12   1  -2 81.0964 6.17385   3
  12   1   2 64.4898 7.27001   1
 -12   1  -2 69.4817 6.71502   1
  13  -1   2 101.186 9.14556   1
 -13  -1  -2 86.1515 6.85906   3
  13  -1   2 97.4873 5.91175   3
 -13  -1  -2 107.496 9.44881   1
 -13   1  -2 106.937 8.06046   1
 -13   1  -2 114.504 12.4110   3
  13   1   2 86.6881 8.48379   1
 -14  -1  -2 12.7544 3.56122   3
  14  -1   2 11.9772 3.17097   3
  14  -1   2 9.35015 4.85230   1
 -14  -1  -2 11.0488 5.11921   1
  14   1   2 16.2631 5.45840   1
 -14   1  -2 8.57295 4.29129   1
  15  -1   2 886.545 19.7198   3
  15  -1   2 861.560 25.6283   1
 -15  -1  -2 882.110 25.4180   1
 -15  -1  -2 859.327 21.6367   3
 -15   1  -2 915.938 24.1170   1
  15   1   2 889.942 25.4737   1
  16  -1   2 -2.6977 4.86932   1
 -16  -1  -2 2.30869 3.29371   3
  16  -1   2 3.10873 2.72851   3
 -16  -1  -2 2.93235 4.88356   1
  16   1   2 9.80058 5.72986   1
 -17  -1  -2 35.1413 7.36365   1
  17  -1   2 36.4396 4.81741   3
 -17  -1  -2 31.5050 5.43010   3
  17  -1   2 42.9436 7.96400   1
  17   1   2 44.9665 8.00626   1
 -18  -1  -2 5.32550 3.68997   3
  18  -1   2 5.68905 6.01638   1
  18  -1   2 0.14117 2.77977   3
 -18  -1  -2 3.33838 5.32649   1
  18   1   2 0.32164 5.19326   1
  19  -1   2 82.8226 10.7769   1
  19  -1   2 102.653 7.26678   3
 -19  -1  -2 100.594 11.7406   1
 -19  -1  -2 88.0862 8.24634   3
  19   1   2 107.178 11.8694   1
  20  -1   2 6.88800 3.36652   3
  20  -1   2 -3.1854 6.09931   1
 -20  -1  -2 10.5949 6.63069   1
  20   1   2 10.0305 6.71149   1
 -21  -2   2 7.54844 4.01351   3
 -21  -2   2 1.10587 6.01643   1
  21  -2  -2 0.60724 6.95307   1
 -21  -2   2 7.34555 6.99976   2
 -20  -2   2 4.52836 6.24757   1
  20  -2  -2 -2.3975 6.28671   1
 -20  -2   2 3.23819 6.70299   2
 -20  -2   2 10.8628 4.22943   3
  19  -2  -2 6.42877 5.84286   1
 -19  -2   2 3.21318 5.63545   1
 -19  -2   2 3.92872 3.30531   3
 -19  -2   2 4.73980 6.76367   2
 -18  -2   2 32.9106 7.32022   1
 -18  -2   2 44.8628 5.84878   3
  18  -2  -2 28.1951 7.37193   1
 -18  -2   2 41.0202 9.48427   2
 -17  -2   2 276.582 11.4782   3
  17  -2  -2 244.792 14.5290   1
 -17  -2   2 306.810 20.0734   2
 -17  -2   2 288.936 15.8001   1
  17   2  -2 273.935 15.3305   1
 -16  -2   2 127.052 11.5924   1
 -16  -2   2 84.7753 12.3950   2
 -16  -2   2 91.8946 7.28267   3
  16  -2  -2 89.9774 9.77685   1
  16   2  -2 92.6335 9.69674   1
 -15  -2   2 409.015 13.1128   3
 -15  -2   2 410.982 21.0429   2
 -15  -2   2 421.770 17.2982   1
  15  -2  -2 423.155 16.9137   1
  15   2  -2 437.461 16.6897   1
 -14  -2   2 716.426 17.2711   3
 -14  -2   2 741.727 22.2761   1
 -14  -2   2 679.987 26.6784   2
  14  -2  -2 662.792 20.9252   1
  14   2  -2 722.073 21.2265   1
  13  -2  -2 1.29395 4.13955   1
 -13  -2   2 2.53996 5.75096   2
 -13  -2   2 7.95526 2.71666   3
 -13  -2   2 10.9856 5.01622   1
  13   2  -2 0.21534 3.76006   1
 -12  -2   2 7.63651 4.90088   2
  12  -2  -2 4.41206 3.76577   1
 -12  -2   2 2.87428 3.80344   1
 -12  -2   2 10.7643 2.73217   3
  12   2  -2 7.32972 4.00808   1
 -12   2   2 4.11540 2.93232   1
 -11  -2   2 141.357 6.30864   3
  11  -2  -2 134.954 8.54705   1
 -11  -2   2 155.295 11.3812   2
 -11  -2   2 138.990 8.97855   1
  11   2  -2 132.506 8.11632   1
 -11   2   2 138.420 6.93804   1
 -10  -2   2 114.759 7.92715   1
 -10  -2   2 113.399 9.60059   2
  10  -2  -2 127.983 7.72175   1
 -10  -2   2 113.291 5.35503   3
 -10   2   2 119.682 6.02665   1
  10   2  -2 112.410 7.34570   1
   9  -2  -2 23.2410 3.85148   1
  -9  -2   2 24.4524 2.73086   3
  -9  -2   2 19.2186 3.93903   1
  -9  -2   2 22.6126 5.71543   2
   9   2  -2 24.8564 3.94846   1
  -8  -2   2 177.668 10.9687   2
  -8  -2   2 178.011 8.18698   1
   8  -2  -2 167.922 7.39983   1
  -8  -2   2 175.156 5.54321   3
   8   2  -2 182.075 7.59054   1
  -7  -2   2 191.971 7.97720   1
  -7  -2   2 206.597 11.1020   2
   7  -2  -2 208.785 7.49582   1
  -7  -2   2 199.522 5.28111   3
   7   2  -2 212.497 7.64463   1
  -6  -2   2 2.73140 2.29381   1
   6  -2  -2 0.76452 1.88468   1
  -6  -2   2 6.09262 3.38101   2
   6   2  -2 2.46390 1.96795   1
  -5  -2   2 1716.64 28.9404   1
   5  -2  -2 1752.33 27.3043   1
   5  -2  -2 1714.57 26.9737   1
  -5  -2   2 1678.96 34.4818   2
   4  -2  -2 1168.63 18.7746   1
  -4  -2   2 1208.99 20.8000   1
   4  -2  -2 1198.35 18.7511   1
  -4  -2   2 1179.69 26.3542   2
   3  -2  -2 2898.81 47.0368   2
   3  -2  -2 2950.55 40.8157   1
   3  -2  -2 2883.98 40.6992   1
  -3  -2   2 2972.98 43.2775   1
  -3  -2   2 2866.18 50.0366   2
  -2  -2   2 196.434 5.00805   1
  -2  -2   2 181.299 8.62081   2
  -2  -2   2 192.263 4.93612   1
   2  -2  -2 200.359 7.49987   2
  -1  -2   2 1113.52 16.7831   1
  -1  -2   2 1115.86 16.8032   1
  -1  -2   2 1105.38 23.4828   2
   1  -2  -2 1098.51 21.4116   2
   0  -2   2 148.247 3.05183   1
   0  -2  -2 141.346 6.63043   2
   0  -2   2 144.020 7.29057   2
   0  -2   2 150.700 3.08662   1
   1  -2   2 4374.73 60.0736   1
  -1  -2  -2 4335.48 60.8437   1
  -1  -2  -2 4393.61 60.9382   1
   1  -2   2 4321.29 68.6829   2
   1  -2   2 4438.23 60.0844   1
  -1  -2  -2 4307.67 67.0180   2
  -2  -2  -2 810.977 14.0299   1
  -2  -2  -2 807.168 14.0125   1
   2  -2   2 807.781 19.2883   2
   2  -2   2 809.702 12.9644   1
  -2  -2  -2 815.933 18.5781   2
   2  -2   2 796.863 12.8875   1
   3  -2   2 10.7115 3.41721   2
   3  -2   2 15.6497 1.81026   1
   3  -2   2 15.5533 1.79299   1
  -3  -2  -2 11.9139 2.10879   1
  -3  -2  -2 11.9768 3.17110   2
   4  -2   2 13.8010 2.05671   1
  -4  -2  -2 12.7140 3.44109   2
   4  -2   2 11.6880 2.25273   1
  -4  -2  -2 11.0163 2.32714   1
   5  -2   2 62.1985 4.02865   1
  -5  -2  -2 56.1915 4.55507   1
  -5  -2  -2 64.9197 6.80350   2
  -5  -2  -2 68.9592 4.73192   1
   5   2   2 53.8824 3.86315   1
  -6  -2  -2 8.78998 2.81789   1
  -6  -2  -2 10.8444 1.38695   3
  -6  -2  -2 5.39980 3.46077   2
   6  -2   2 7.20421 2.35674   1
   6   2   2 11.9323 2.60701   1
  -7  -2  -2 41.7555 6.11686   2
  -7  -2  -2 44.9313 2.85729   3
  -7  -2  -2 32.4028 4.11801   1
   7  -2   2 45.7793 4.36047   1
   7   2   2 45.7171 4.43339   1
  -8  -2  -2 796.911 15.0368   3
  -8  -2  -2 811.500 23.5799   2
  -8  -2  -2 787.291 19.1111   1
   8  -2   2 777.217 17.9697   1
   8   2   2 792.674 18.0216   1
  -9  -2  -2 -2.8988 2.72439   1
  -9  -2  -2 -0.2835 4.16787   2
   9  -2   2 -0.5706 2.70588   1
  -9  -2  -2 -1.3332 1.48913   3
  -9   2  -2 -0.3702 1.92580   1
   9   2   2 -2.7157 2.50919   1
  10  -2   2 29.3885 4.88064   1
 -10  -2  -2 19.7831 6.42333   2
 -10  -2  -2 25.5142 4.82785   1
 -10  -2  -2 32.0717 3.49563   3
  10   2   2 27.2498 4.59801   1
 -10   2  -2 18.2374 3.48434   1
 -11  -2  -2 46.5133 6.59339   1
  11  -2   2 40.0690 5.75352   1
 -11  -2  -2 46.9869 4.47253   3
 -11  -2  -2 26.4348 7.13273   2
 -11   2  -2 44.4224 4.93788   1
  11   2   2 37.8482 5.56828   1
 -12  -2  -2 620.145 15.1671   3
 -12  -2  -2 630.162 19.6625   1
  12  -2   2 646.790 19.3887   1
 -12  -2  -2 616.486 24.2396   2
  12   2   2 638.823 18.9070   1
 -13  -2  -2 239.031 9.33082   3
  13  -2   2 201.659 11.7901   1
 -13  -2  -2 228.173 12.8541   1
 -13  -2  -2 233.883 17.3904   2
  13   2   2 235.425 12.2315   1
  14  -2   2 26.5631 6.24717   1
 -14  -2  -2 32.1837 9.57667   2
 -14  -2  -2 24.6293 6.28664   1
 -14  -2  -2 21.1120 3.95625   3
  14   2   2 23.7528 5.83271   1
 -15  -2  -2 6.38113 3.35625   3
  15  -2   2 7.35725 5.29907   1
 -15  -2  -2 0.37990 4.78498   1
 -15  -2  -2 8.00418 8.16490   2
  15   2   2 8.52216 5.16223   1
 -16  -2  -2 0.01070 2.70358   3
  16  -2   2 -3.4716 4.75826   1
 -16  -2  -2 3.38102 8.04827   2
 -16  -2  -2 2.89379 5.37005   1
  16   2   2 -5.4563 4.90077   1
 -17  -2  -2 -0.9264 5.18028   1
  17  -2   2 0.72359 5.19281   1
 -17  -2  -2 6.47240 6.98582   2
 -17  -2  -2 -3.2466 2.66043   3
 -18  -2  -2 3.71232 7.03174   2
 -18  -2  -2 -2.8501 2.67206   3
 -18  -2  -2 -3.3236 5.20835   1
  18  -2   2 -2.7975 5.30934   1
  19  -2   2 -0.1111 5.86011   1
 -19  -2  -2 -3.3847 5.26946   1
 -19  -2  -2 -4.8308 2.57624   3
 -19  -2  -2 1.38622 6.86860   2
 -20  -2  -2 1.01248 7.62801   2
 -20  -2  -2 -1.2897 5.43529   1
 -20  -2  -2 0.38072 3.21306   3
  20  -2   2 4.65099 6.93395   1
 -20  -3   2 9.02214 3.54245   3
 -20  -3   2 17.4497 7.66464   1
 -20  -3   2 13.4445 8.17451   2
  20  -3  -2 -5.9910 6.08171   1
 -19  -3   2 7.67042 6.18209   1
  19  -3  -2 9.33791 6.36104   1
 -19  -3   2 0.67918 2.63938   3
 -19  -3   2 1.15186 7.08871   2
 -18  -3   2 -0.7456 5.78795   1
  18  -3  -2 -0.5609 5.41608   1
 -18  -3   2 1.59823 2.53283   3
 -18  -3   2 5.28542 6.68472   2
 -17  -3   2 22.3192 3.60491   3
  17  -3  -2 20.7064 6.66255   1
 -17  -3   2 15.8083 6.43593   1
 -17  -3   2 20.5939 8.49524   2
 -16  -3   2 -5.0078 4.52859   1
 -16  -3   2 4.66674 5.95653   2
 -16  -3   2 4.99207 2.32527   3
  16  -3  -2 6.30999 4.89419   1
  15  -3  -2 10.9131 5.42383   1
 -15  -3   2 7.63220 6.26066   2
 -15  -3   2 15.1080 6.26158   1
 -15  -3   2 9.20628 2.45858   3
  14  -3  -2 0.53414 4.26091   1
 -14  -3   2 -1.7450 5.51818   2
 -14  -3   2 -1.0810 4.84907   1
 -14  -3   2 0.50420 1.73750   3
 -13  -3   2 -1.6685 4.38492   1
 -13  -3   2 -5.1008 4.52187   2
 -13  -3   2 2.37253 1.63477   3
  13  -3  -2 -1.8465 3.90623   1
 -12  -3   2 30.4867 6.27623   1
  12  -3  -2 42.9049 6.50816   1
 -12  -3   2 37.8844 8.50688   2
 -12  -3   2 46.4851 3.01339   3
 -11  -3   2 88.2354 11.2664   2
 -11  -3   2 78.7833 7.94014   1
  11  -3  -2 73.3566 7.18040   1
  10  -3  -2 230.005 9.95759   1
 -10  -3   2 219.331 14.0967   2
 -10  -3   2 221.787 10.8210   1
  10   3  -2 236.376 9.53914   1
  -9  -3   2 261.403 15.0630   2
  -9  -3   2 255.935 10.7218   1
   9  -3  -2 272.431 9.76174   1
   9   3  -2 260.713 9.19462   1
  -8  -3   2 98.0220 10.6407   2
  -8  -3   2 95.4881 6.80536   1
   8  -3  -2 90.6781 5.73392   1
  -7  -3   2 4.59748 4.27321   2
  -7  -3   2 2.69504 2.57637   1
   7  -3  -2 2.97452 1.88179   1
   7  -3  -2 3.35316 2.16541   1
  -6  -3   2 1540.20 35.9904   2
   6  -3  -2 1536.14 25.2631   1
   6  -3  -2 1531.58 25.4654   1
  -6  -3   2 1549.24 28.1055   1
  -5  -3   2 272.745 8.66681   1
  -5  -3   2 285.431 13.4333   2
   5  -3  -2 285.219 6.70422   1
   5  -3  -2 280.177 6.81180   1
   4  -3  -2 861.523 13.4590   1
   4  -3  -2 848.665 13.3155   1
  -4  -3   2 873.870 16.6392   1
  -4  -3   2 806.164 23.4762   2
   4  -3  -2 843.540 21.5397   2
  -4  -3   2 861.602 16.5616   1
  -3  -3   2 5.78959 1.75036   1
   3  -3  -2 7.02367 3.26950   2
  -3  -3   2 4.60917 1.73348   1
  -3  -3   2 5.18738 3.50700   2
  -2  -3   2 934.689 24.4583   2
  -2  -3   2 945.479 15.7781   1
  -2  -3   2 929.704 15.7173   1
   2  -3  -2 944.515 22.3487   2
  -1  -3   2 200.853 4.56967   1
   1  -3  -2 192.922 9.40990   2
  -1  -3   2 198.198 4.47775   1
  -1  -3   2 191.452 10.4948   2
   0  -3  -2 1212.99 26.6563   2
   0  -3   2 1213.73 28.2557   2
  -1  -3  -2 183.871 9.43933   2
   1  -3   2 175.558 10.2127   2
  -1  -3  -2 183.708 4.30747   1
  -1  -3  -2 170.512 4.18565   1
  -2  -3  -2 48.5638 3.08389   1
  -2  -3  -2 61.6533 6.73292   2
   2  -3   2 52.4539 2.01613   1
   2  -3   2 58.5142 6.91041   2
   2  -3   2 56.1049 2.08143   1
  -2  -3  -2 54.0960 3.13686   1
  -3  -3  -2 44.8945 3.52758   1
  -3  -3  -2 44.0676 6.19896   2
   3  -3   2 49.2421 2.55695   1
   3  -3   2 40.9945 6.18407   2
   3  -3   2 42.7561 2.54605   1
  -3  -3  -2 42.8218 3.41998   1
   4  -3   2 7.28203 1.61091   1
  -4  -3  -2 8.74578 3.57223   2
  -4  -3  -2 7.07828 2.21891   1
   4  -3   2 9.60377 3.86426   2
   4  -3   2 7.90819 1.71623   1
  -5  -3  -2 11.3347 4.03089   2
   5  -3   2 15.7495 2.44103   1
  -5  -3  -2 11.0986 2.71494   1
   5  -3   2 12.8188 2.19602   1
  -5  -3  -2 14.7695 2.91384   1
   6  -3   2 1652.42 27.9792   1
   6  -3   2 1609.65 27.9957   1
  -6  -3  -2 1649.30 30.0393   1
  -6  -3  -2 1627.33 36.7703   2
  -7  -3  -2 90.0620 6.54577   1
  -7  -3  -2 76.8769 8.92454   2
   7  -3   2 77.2796 5.55917   1
  -8  -3  -2 999.937 28.7054   2
  -8  -3  -2 1018.65 23.1888   1
   8  -3   2 1021.13 21.4026   1
  -9  -3  -2 227.282 10.5684   1
  -9  -3  -2 216.921 13.6238   2
   9  -3   2 227.051 9.66447   1
   9   3   2 226.714 9.42169   1
  10  -3   2 8.89598 3.86436   1
 -10  -3  -2 4.17990 3.83452   1
 -10  -3  -2 2.07486 5.22333   2
 -11  -3  -2 954.083 24.7670   1
  11  -3   2 949.998 23.2799   1
 -11  -3  -2 942.195 30.5307   2
 -12  -3  -2 886.910 24.5095   1
  12  -3   2 901.656 23.3653   1
 -12  -3  -2 868.100 30.0293   2
 -12  -3  -2 872.977 15.4641   3
  13  -3   2 36.8870 6.51748   1
 -13  -3  -2 34.6319 8.96391   2
 -13  -3  -2 22.5143 6.41443   1
 -13  -3  -2 35.9873 3.24796   3
 -14  -3  -2 24.3283 6.60631   1
 -14  -3  -2 41.4150 3.76155   3
  14  -3   2 37.0757 6.75897   1
 -14  -3  -2 36.6368 9.36449   2
 -15  -3  -2 45.9460 9.59910   2
 -15  -3  -2 29.2480 6.79771   1
 -15  -3  -2 35.9013 3.82728   3
  15  -3   2 31.5295 6.71179   1
  16  -3   2 83.7798 9.76582   1
 -16  -3  -2 89.4567 10.3816   1
 -16  -3  -2 81.3231 5.61312   3
 -16  -3  -2 83.1182 12.6672   2
 -17  -3  -2 49.3301 4.88540   3
  17  -3   2 50.1863 8.41634   1
 -17  -3  -2 48.7360 10.5041   2
 -17  -3  -2 54.4472 9.06139   1
  18  -3   2 0.55472 5.75884   1
 -18  -3  -2 4.14380 2.85052   3
 -18  -3  -2 8.02121 7.18517   2
 -18  -3  -2 3.96347 6.04150   1
 -19  -3  -2 28.1978 9.41044   2
 -19  -3  -2 27.6222 4.47016   3
  19  -3   2 32.3378 8.67592   1
 -19  -3  -2 13.9918 7.34770   1
 -18  -4   2 -1.2316 6.20766   2
 -18  -4   2 -4.8234 5.44809   1
  18  -4  -2 -1.6955 5.43247   1
 -17  -4   2 18.2509 7.00853   1
  17  -4  -2 14.1387 6.28852   1
 -17  -4   2 29.4244 8.96255   2
  16  -4  -2 -2.4868 4.24559   1
 -16  -4   2 4.37403 5.66899   1
 -16  -4   2 -0.2849 5.75959   2
 -15  -4   2 76.0552 13.0083   2
  15  -4  -2 55.7975 7.90733   1
 -15  -4   2 72.1405 9.45909   1
 -14  -4   2 225.532 18.3179   2
  14  -4  -2 219.666 12.3343   1
 -14  -4   2 208.995 13.6350   1
 -13  -4   2 24.7396 6.36942   1
 -13  -4   2 13.0065 7.59167   2
  13  -4  -2 22.8523 5.50013   1
 -12  -4   2 -3.9524 4.34199   1
  12  -4  -2 -2.0463 3.89098   1
 -12  -4   2 4.86425 6.56664   2
 -11  -4   2 47.9183 7.06672   1
 -11  -4   2 56.7615 10.4131   2
  11  -4  -2 41.2439 5.82915   1
  10  -4  -2 2.02947 3.36004   1
 -10  -4   2 10.5796 4.54947   1
 -10  -4   2 5.96897 6.43596   2
  -9  -4   2 50.9558 6.33545   1
  -9  -4   2 47.2634 8.63562   2
   9  -4  -2 53.4665 5.59025   1
  -8  -4   2 12.6878 5.77670   2
  -8  -4   2 9.25789 3.87588   1
   8  -4  -2 16.1724 3.32611   1
   8  -4  -2 9.00335 3.61189   1
   7  -4  -2 807.190 16.5205   1
   7  -4  -2 834.053 16.2956   1
  -7  -4   2 792.570 19.1537   1
  -7  -4   2 819.718 27.6938   2
  -6  -4   2 232.635 9.14061   1
  -6  -4   2 207.629 14.3452   2
   6  -4  -2 221.488 6.81776   1
   6  -4  -2 231.057 6.63848   1
  -5  -4   2 8.57911 2.69256   1
   5  -4  -2 3.61917 1.45974   1
  -5  -4   2 4.05839 2.64879   1
   5  -4  -2 9.39238 1.77907   1
   5  -4  -2 3.08928 4.19200   2
  -5  -4   2 12.0409 5.63078   2
  -4  -4   2 95.6763 5.29824   1
   4  -4  -2 119.016 9.61547   2
  -4  -4   2 110.864 5.64016   1
  -4  -4   2 114.996 10.6814   2
  -3  -4   2 37.7129 3.36636   1
  -3  -4   2 43.5643 3.52125   1
  -3  -4   2 39.0230 7.01481   2
   3  -4  -2 38.3603 6.33198   2
  -2  -4   2 11.9760 2.03122   1
  -2  -4   2 14.1384 2.04861   1
   2  -4  -2 14.4338 4.66537   2
  -2  -4   2 13.0387 4.73629   2
  -1  -4   2 33.6986 2.36659   1
   1  -4  -2 31.9599 5.99487   2
  -1  -4   2 44.9144 7.46053   2
  -1  -4   2 40.7280 2.59514   1
   0  -4  -2 203.658 11.7442   2
   0  -4   2 218.179 12.9675   2
  -1  -4  -2 117.679 3.78242   1
  -1  -4  -2 114.132 9.46902   2
   1  -4   2 114.245 9.78348   2
  -1  -4  -2 127.296 3.94540   1
   2  -4   2 87.4668 9.87222   2
  -2  -4  -2 88.7153 9.23341   2
  -2  -4  -2 89.0659 4.19592   1
  -2  -4  -2 87.8080 4.14907   1
   3  -4   2 298.037 6.56973   1
   3  -4   2 321.693 15.8204   2
   3  -4   2 301.488 6.57532   1
  -3  -4  -2 314.552 8.65024   1
  -3  -4  -2 320.181 8.84535   1
  -3  -4  -2 301.086 14.7097   2
  -4  -4  -2 13.3203 2.85109   1
   4  -4   2 10.4656 1.85755   1
  -4  -4  -2 7.69421 2.58405   1
  -4  -4  -2 10.1035 2.63931   1
   4  -4   2 12.6345 5.54502   2
  -4  -4  -2 12.3702 5.24928   2
   4  -4   2 7.88992 1.79228   1
  -5  -4  -2 -3.1017 2.06851   1
   5  -4   2 -1.3121 1.54928   1
  -5  -4  -2 -3.1143 2.30233   1
   5  -4   2 1.03610 4.85395   2
   5  -4   2 1.83977 1.82585   1
  -5  -4  -2 0.36696 4.22068   2
   6  -4   2 23.6229 3.23589   1
   6  -4   2 23.1685 3.09455   1
  -6  -4  -2 27.9054 4.27116   1
  -6  -4  -2 31.0736 7.01287   2
  -7  -4  -2 0.95593 5.13866   2
   7  -4   2 3.20841 2.56426   1
  -7  -4  -2 -4.7544 2.64372   1
   7  -4   2 4.34726 3.70220   1
   8  -4   2 6.27243 3.12812   1
  -8  -4  -2 14.8960 4.25390   1
  -8  -4  -2 6.30074 5.23765   2
   9  -4   2 1.45120 3.10256   1
  -9  -4  -2 -2.5697 3.39313   1
  -9  -4  -2 5.14401 6.04974   2
 -10  -4  -2 15.8501 4.94097   1
  10  -4   2 20.0611 4.62968   1
 -10  -4  -2 18.2529 7.44872   2
 -11  -4  -2 181.460 15.8336   2
  11  -4   2 192.247 10.6557   1
 -11  -4  -2 187.397 11.4476   1
 -12  -4  -2 15.1238 7.64949   2
  12  -4   2 -2.0876 3.88680   1
 -12  -4  -2 -4.3537 4.19810   1
  13  -4   2 77.0864 8.40614   1
 -13  -4  -2 113.672 14.9708   2
 -13  -4  -2 102.141 10.3373   1
 -14  -4  -2 36.3783 9.79674   2
 -14  -4  -2 32.6112 7.21946   1
  14  -4   2 40.1368 7.00714   1
 -15  -4  -2 6.37408 7.15148   2
  15  -4   2 0.35786 4.96429   1
 -15  -4  -2 10.7785 6.08020   1
  16  -4   2 161.534 12.7384   1
 -16  -4  -2 121.713 12.1115   1
 -16  -4  -2 153.023 18.3179   2
 -17  -4  -2 5.38704 5.90477   1
 -17  -4  -2 5.98061 7.93414   2
  17  -4   2 -9.5176 4.55756   1
 -16  -5   2 44.8722 8.97203   1
 -16  -5   2 26.4538 10.3551   2
  16  -5  -2 30.8816 7.20323   1
  15  -5  -2 34.5691 6.92024   1
 -15  -5   2 29.6492 7.59211   1
 -15  -5   2 25.0655 9.05192   2
  14  -5  -2 28.0453 6.18070   1
 -14  -5   2 41.5397 7.78223   1
 -14  -5   2 38.1570 10.1914   2
 -13  -5   2 10.5278 5.31697   1
  13  -5  -2 2.82011 4.15763   1
 -13  -5   2 0.62350 6.87691   2
 -12  -5   2 44.6565 10.6867   2
 -12  -5   2 42.3478 7.11570   1
  12  -5  -2 40.4454 5.98355   1
  11  -5  -2 110.819 8.43433   1
 -11  -5   2 94.3561 9.14736   1
 -11  -5   2 79.9394 12.5265   2
 -10  -5   2 60.9530 7.46957   1
  10  -5  -2 72.1725 6.64255   1
 -10  -5   2 79.3587 12.5698   2
   9  -5  -2 22.8537 4.23667   1
  -9  -5   2 30.3752 5.70956   1
  -9  -5   2 28.3411 8.71349   2
  -8  -5   2 -1.7323 3.33121   1
   8  -5  -2 -2.4357 2.65291   1
  -8  -5   2 5.67726 6.61452   2
  -7  -5   2 10.4252 6.53860   2
   7  -5  -2 14.9643 3.00825   1
  -7  -5   2 13.8273 4.06396   1
   6  -5  -2 35.9166 8.46054   2
  -6  -5   2 33.1440 4.82185   1
   6  -5  -2 30.0422 3.51086   1
  -6  -5   2 52.7016 10.2073   2
   6  -5  -2 33.1078 3.21523   1
   5  -5  -2 18.2800 6.89663   2
  -5  -5   2 18.4703 3.66278   1
   5  -5  -2 21.3272 2.28885   1
   5  -5  -2 20.9928 2.16395   1
  -5  -5   2 19.9089 7.27163   2
  -4  -5   2 8.35963 6.55596   2
  -4  -5   2 3.92442 2.54010   1
   4  -5  -2 1.43519 5.46001   2
  -3  -5   2 24.6713 3.31472   1
  -3  -5   2 31.0294 8.01321   2
   3  -5  -2 25.4477 7.24965   2
  -2  -5   2 240.807 7.26141   1
   2  -5  -2 244.378 14.9310   2
  -2  -5   2 229.760 7.08674   1
  -2  -5   2 228.991 15.5764   2
  -1  -5   2 85.2351 3.96683   1
   1  -5  -2 87.5223 10.6447   2
  -1  -5   2 84.2489 4.15884   1
  -1  -5   2 74.8685 10.5703   2
   0  -5   2 -1.6210 1.41128   1
   0  -5   2 4.76598 5.85810   2
   0  -5  -2 -5.4474 4.83843   2
   0  -5   2 0.53840 1.33431   1
  -1  -5  -2 57.9229 3.58679   1
  -1  -5  -2 47.6121 3.53501   1
   1  -5   2 60.5009 10.1191   2
  -1  -5  -2 78.2459 10.6174   2
   2  -5   2 230.893 5.41293   1
   2  -5   2 230.311 15.7102   2
  -2  -5  -2 226.293 14.9641   2
  -2  -5  -2 231.373 7.26719   1
  -2  -5  -2 236.103 7.46474   1
  -3  -5  -2 -1.7942 2.17842   1
  -3  -5  -2 -1.8397 2.24576   1
  -3  -5  -2 -0.8049 5.34609   2
   3  -5   2 0.16309 5.74523   2
   3  -5   2 2.38883 1.62639   1
   3  -5   2 -2.3023 1.40352   1
   4  -5   2 11.5031 2.29962   1
   4  -5   2 7.97687 2.12787   1
  -4  -5  -2 11.7861 3.50051   1
   4  -5   2 8.10911 2.20209   1
  -4  -5  -2 13.7507 6.73946   2
   4  -5   2 9.72536 6.59115   2
   5  -5   2 80.6249 4.80238   1
  -5  -5  -2 76.9146 6.44868   1
  -5  -5  -2 75.0640 11.4005   2
   5  -5   2 99.0008 12.3765   2
  -6  -5  -2 14.6706 6.80699   2
  -6  -5  -2 5.63424 3.60617   1
   6  -5   2 9.14202 2.81012   1
  -7  -5  -2 0.06239 6.04738   2
   7  -5   2 16.5196 3.38332   1
  -7  -5  -2 5.01413 3.69511   1
  -8  -5  -2 15.3490 4.49168   1
   8  -5   2 12.2445 3.76215   1
  -8  -5  -2 13.7554 7.67969   2
  -9  -5  -2 192.055 15.7477   2
   9  -5   2 191.875 9.39423   1
  -9  -5  -2 196.431 11.1261   1
  10  -5   2 82.9214 7.36191   1
 -10  -5  -2 76.5125 8.41624   1
 -10  -5  -2 74.0051 11.5915   2
 -11  -5  -2 21.0493 8.57896   2
  11  -5   2 8.51701 4.35542   1
 -11  -5  -2 8.59624 5.05315   1
  12  -5   2 58.6130 7.38800   1
 -12  -5  -2 76.0921 13.0021   2
 -12  -5  -2 59.1313 8.28907   1
 -13  -5  -2 9.98676 7.02077   2
  13  -5   2 3.88445 4.57329   1
 -13  -5  -2 4.98613 5.44158   1
 -14  -5  -2 2.10650 5.57870   1
  14  -5   2 3.47257 4.81748   1
 -14  -5  -2 -5.4589 5.61146   2
 -15  -5  -2 30.7817 7.53187   1
 -15  -5  -2 14.7932 8.73329   2
  15  -5   2 9.06258 6.03259   1
 -12  -6   2 5.12592 7.32223   2
  12  -6  -2 2.75201 4.37520   1
 -11  -6   2 1.95578 7.96652   2
 -11  -6   2 13.5838 5.71018   1
  11  -6  -2 13.6027 4.43000   1
 -10  -6   2 38.3496 10.6761   2
 -10  -6   2 43.2651 7.09345   1
  10  -6  -2 28.5425 5.05713   1
  -9  -6   2 187.767 11.2734   1
  -9  -6   2 156.265 17.5563   2
   9  -6  -2 168.889 8.51880   1
  -8  -6   2 76.8137 7.72812   1
   8  -6  -2 73.5958 5.78642   1
  -8  -6   2 73.9933 13.4293   2
   7  -6  -2 139.157 6.59701   1
  -7  -6   2 134.604 9.22191   1
  -7  -6   2 115.138 15.1554   2
  -6  -6   2 483.991 24.8473   2
   6  -6  -2 467.596 23.6606   2
   6  -6  -2 466.751 10.8163   1
  -6  -6   2 490.823 15.0440   1
  -5  -6   2 -5.6095 6.64821   2
   5  -6  -2 -3.0852 7.10125   2
  -5  -6   2 9.37548 3.44404   1
  -4  -6   2 111.275 14.5558   2
  -4  -6   2 93.8951 6.73558   1
   4  -6  -2 139.009 16.5537   2
  -3  -6   2 306.546 9.93545   1
  -3  -6   2 319.698 20.5197   2
   3  -6  -2 300.860 19.1025   2
  -2  -6   2 202.085 16.9752   2
  -2  -6   2 187.778 7.15749   1
   2  -6  -2 162.908 15.2929   2
  -1  -6   2 0.92065 6.71350   2
  -1  -6   2 -2.6044 1.94639   1
   1  -6  -2 -1.0853 6.20486   2
   0  -6   2 173.235 5.85061   1
   0  -6   2 159.563 16.0432   2
   0  -6  -2 181.974 16.4229   2
   1  -6   2 288.715 19.3697   2
  -1  -6  -2 281.082 7.97744   1
  -1  -6  -2 268.958 18.5416   2
   1  -6   2 279.165 7.06045   1
  -2  -6  -2 95.0318 5.79777   1
   2  -6   2 83.3568 13.0122   2
  -2  -6  -2 95.7595 13.7393   2
   2  -6   2 89.6035 4.05237   1
  -3  -6  -2 204.754 17.1701   2
   3  -6   2 210.271 6.18997   1
  -3  -6  -2 215.933 8.74618   1
   3  -6   2 212.522 17.9331   2
  -4  -6  -2 9.67877 7.81064   2
  -4  -6  -2 9.63952 3.61641   1
   4  -6   2 6.82315 2.37910   1
   4  -6   2 16.4282 8.35520   2
  -5  -6  -2 63.4552 6.45551   1
   5  -6   2 77.7326 13.1462   2
  -5  -6  -2 89.9587 13.6578   2
   5  -6   2 64.8418 4.71950   1
   6  -6   2 15.8847 3.48355   1
  -6  -6  -2 14.3074 4.60461   1
  -6  -6  -2 25.2238 9.62728   2
   7  -6   2 10.1845 3.38226   1
  -7  -6  -2 27.7817 9.33381   2
  -7  -6  -2 7.46381 4.24106   1
   8  -6   2 4.02207 3.31663   1
  -8  -6  -2 1.11417 7.26348   2
  -8  -6  -2 -7.2973 3.51032   1
  -9  -6  -2 1.43142 7.17442   2
   9  -6   2 1.17394 3.48818   1
  -9  -6  -2 -3.7091 4.06072   1
 -10  -6  -2 26.4150 6.49570   1
  10  -6   2 20.0429 4.84061   1
 -10  -6  -2 26.2130 10.0406   2
 -11  -6  -2 47.8142 12.6279   2
  11  -6   2 49.8697 6.82149   1
 -11  -6  -2 47.5326 7.81865   1
 -12  -6  -2 -1.0977 7.92281   2
  -6  -7   2 15.5766 4.69148   1
  -6  -7   2 19.1448 10.3287   2
   5  -7  -2 295.858 21.7094   2
  -5  -7   2 288.219 22.7292   2
  -5  -7   2 255.703 11.2247   1
  -4  -7   2 79.0735 14.8257   2
  -4  -7   2 59.8395 5.91530   1
   4  -7  -2 82.9923 14.8544   2
   3  -7  -2 40.3821 12.9528   2
  -3  -7   2 33.6432 4.42340   1
  -3  -7   2 40.6276 11.3528   2
  -2  -7   2 -0.6232 2.52363   1
  -2  -7   2 -7.5951 7.62763   2
   2  -7  -2 1.47596 7.96829   2
  -1  -7   2 32.2930 11.1004   2
  -1  -7   2 51.1794 4.29691   1
   1  -7  -2 57.1993 11.9444   2
   0  -7  -2 36.5125 10.7861   2
   0  -7  -2 29.2289 3.18648   1
   0  -7   2 18.5883 9.63070   2
   0  -7   2 38.7560 3.60252   1
   1  -7   2 18.8291 2.76806   1
  -1  -7  -2 24.7762 3.48192   1
  -1  -7  -2 22.3974 10.0296   2
   1  -7   2 9.41821 9.09950   2
  -2  -7  -2 82.1431 5.98928   1
  -2  -7  -2 86.3110 14.9228   2
   2  -7   2 104.720 16.2925   2
  -3  -7  -2 31.5587 4.49243   1
   3  -7   2 22.2362 10.5310   2
  -3  -7  -2 32.1856 10.9571   2
  -4  -7  -2 5.14048 3.61519   1
   4  -7   2 2.87291 2.25880   1
   4  -7   2 7.26685 9.53053   2
  -4  -7  -2 1.82523 10.1274   2
  -5  -7  -2 -1.8740 8.67608   2
   5  -7   2 6.23043 8.75460   2
   5  -7   2 -0.5524 2.41697   1
  -5  -7  -2 1.33680 3.72512   1
  -6  -7  -2 69.1581 14.7122   2
  22   0  -3 3.37800 6.43366   1
  21   0  -3 -1.5561 6.18241   1
  20   0  -3 -0.9172 5.61973   1
 -19   0   3 3.33502 5.28105   1
  19   0  -3 -5.9266 4.82425   1
 -18   0   3 2.00286 4.62494   1
  18   0  -3 -8.3758 4.17374   1
 -17   0   3 -1.0683 4.60644   1
  17   0  -3 -1.4513 4.66744   1
  16   0  -3 2.00744 4.72801   1
 -16   0   3 -3.1974 2.77767   3
 -16   0   3 -1.6622 4.07043   1
 -15   0   3 3.63490 2.58549   3
  15   0  -3 -8.1505 3.60358   1
 -15   0   3 -1.8144 3.64815   1
  15   0  -3 -1.6377 2.54874   3
 -14   0   3 1.85320 3.67515   1
  14   0  -3 1.88542 3.83980   1
  14   0  -3 -1.2102 2.21895   3
 -14   0   3 1.01778 2.16147   3
  13   0  -3 0.38529 3.38205   1
 -13   0   3 -3.3997 2.86320   1
  13   0  -3 -2.7558 2.19830   3
 -13   0   3 -0.3962 1.74178   3
 -12   0   3 0.01749 2.70761   1
 -12   0   3 -0.7981 1.32571   3
  12   0  -3 0.32571 1.74458   3
  12   0  -3 1.21698 3.14560   1
 -11   0   3 -2.1253 2.18012   1
  11   0  -3 -0.0843 2.78579   1
 -11   0   3 -0.6632 1.72850   3
  11   0  -3 -1.2715 1.63849   3
 -10   0   3 0.10354 1.62140   3
  10   0  -3 -1.7147 2.61288   1
  10   0  -3 0.20538 1.56495   3
 -10   0   3 -1.1268 2.14051   1
  -9   0   3 0.59087 1.63471   3
   9   0  -3 -0.8234 2.70734   1
  -9   0   3 -3.8687 2.03639   1
   9   0  -3 -0.0512 1.54404   3
  -8   0   3 -1.3433 1.38166   3
   8   0  -3 -3.2479 2.07232   1
   8   0  -3 0.10147 1.43205   3
  -8   0   3 -1.7184 1.91928   1
   7   0  -3 -1.0819 1.23337   3
  -7   0   3 1.34969 1.91426   1
  -7   0   3 0.38524 1.30494   3
   7   0  -3 -0.5639 1.98101   1
  -6   0   3 -0.5204 1.03028   3
   6   0  -3 2.20641 1.70526   1
  -6   0   3 -0.6855 1.65263   1
   6   0  -3 2.04315 1.19344   3
  -5   0   3 -0.3194 1.00230   3
   5   0  -3 0.88685 1.13938   3
  -5   0   3 -1.4248 1.37078   1
   5   0  -3 0.31900 1.83064   1
  -4   0   3 -0.5563 0.97566   3
  -4   0   3 -1.1064 1.72745   1
   4   0  -3 -4.4811 1.57834   1
   4   0  -3 -1.3854 1.02420   3
  -3   0   3 -0.7268 0.91249   3
  -3   0   3 -0.0783 1.24027   1
  -3   0   3 4.07319 2.11485   2
   3   0  -3 2.17441 1.56700   1
  -2   0   3 1.11160 1.07095   1
  -2   0   3 -0.8020 0.92686   2
   2   0  -3 1.09150 1.02282   1
  -1   0   3 -10.519 1.10324   1
   1   0  -3 -9.4830 1.17299   1
  -1   0   3 -8.9357 0.93740   2
   0   0  -3 -10.036 0.98619   1
   0   0  -3 -8.4612 0.79958   3
   0   0   3 -6.2022 1.18641   1
   0   0   3 -6.7631 0.93225   3
  -1   0  -3 0.10648 0.89665   3
   1   0   3 -1.2488 0.82739   3
   1   0   3 0.50671 1.18826   1
  -1   0  -3 3.87622 1.41976   1
  -2   0  -3 -3.9423 1.49698   1
   2   0   3 0.10899 1.29361   3
  -2   0  -3 -4.9342 1.00661   3
   2   0   3 -1.7072 1.62671   1
   3   0   3 0.35603 1.08963   3
  -3   0  -3 0.76763 0.99458   3
  -3   0  -3 -0.7924 1.60769   1
   3   0   3 0.67147 1.57648   1
  -4   0  -3 -1.9852 1.59713   1
   4   0   3 -2.2181 1.03102   3
   4   0   3 -1.6382 1.66832   1
  -4   0  -3 -3.3618 1.07293   3
  -4   0  -3 -1.6126 1.56587   1
  -5   0  -3 0.27225 1.76944   1
   5   0   3 0.09913 1.80264   1
   5   0   3 -1.6591 1.10372   3
  -5   0  -3 -0.0367 1.30223   3
  -6   0  -3 -1.1191 1.31065   3
   6   0   3 -1.2011 1.26414   3
  -6   0  -3 -1.8343 1.82246   1
   6   0   3 -0.4143 1.88573   1
  -7   0  -3 1.00692 1.67094   3
   7   0   3 -1.4991 2.34952   1
   7   0   3 -0.7624 1.45872   3
  -7   0  -3 -0.9334 2.12559   1
   8   0   3 2.19922 2.61977   1
  -8   0  -3 2.19803 2.43742   1
   8   0   3 2.09287 1.79146   3
  -8   0  -3 -0.8664 1.63659   3
   9   0   3 -1.2729 2.57134   1
  -9   0  -3 -1.8219 1.64525   3
   9   0   3 0.10358 1.82512   3
  -9   0  -3 -0.1846 2.51305   1
 -10   0  -3 -1.0478 2.78657   1
  10   0   3 -0.4808 3.01052   1
  10   0   3 1.59158 1.89415   3
 -10   0  -3 0.63288 1.95465   3
 -11   0  -3 1.14040 1.97337   3
 -11   0  -3 0.43813 3.17252   1
  11   0   3 -0.6590 1.88934   3
  11   0   3 -4.1002 2.99720   1
 -12   0  -3 -0.9446 2.15927   3
 -12   0  -3 -5.3862 3.09905   1
  12   0   3 1.96010 2.35054   3
  12   0   3 2.32314 3.24702   1
 -13   0  -3 2.17130 2.71889   3
  13   0   3 -1.4495 3.79253   1
  13   0   3 3.36476 2.58819   3
 -13   0  -3 7.35610 4.14517   1
 -14   0  -3 8.79849 5.04605   1
  14   0   3 15.9581 5.60998   1
 -14   0  -3 7.15957 3.26696   3
  15   0   3 2.76448 5.05799   1
 -15   0  -3 6.43411 3.52670   3
 -15   0  -3 11.8634 5.09941   1
  16   0   3 -4.0770 4.11332   1
 -16   0  -3 4.15862 4.72088   1
  17   0   3 0.54042 5.18234   1
 -17   0  -3 -3.5172 4.62612   1
 -18   0  -3 3.44414 5.17802   1
  18   0   3 -0.0160 5.47337   1
  19   0   3 -1.2874 5.57587   1
  20   0   3 -12.916 5.19533   1
  21  -1  -3 19.4810 7.75900   1
 -21  -1   3 14.0570 7.05450   1
 -21  -1   3 40.5025 12.0330   2
  21   1  -3 14.9407 7.63076   1
 -20  -1   3 10.2333 3.93675   3
 -20  -1   3 18.9560 7.08302   1
 -20  -1   3 1.28835 8.78517   2
  20  -1  -3 7.18020 6.87140   1
  20   1  -3 6.44483 6.30184   1
 -19  -1   3 53.4088 8.62035   1
  19  -1  -3 55.5790 9.36175   1
 -19  -1   3 52.3368 11.8635   2
 -19  -1   3 43.1283 6.10731   3
  19   1  -3 66.9798 9.76360   1
  18  -1  -3 270.692 15.6588   1
 -18  -1   3 231.464 20.6357   2
 -18  -1   3 257.113 12.0577   3
 -18  -1   3 258.287 14.9609   1
  18   1  -3 266.593 15.3134   1
 -17  -1   3 15.4228 4.14237   3
 -17  -1   3 21.2995 10.3508   2
 -17  -1   3 15.0536 5.91191   1
  17  -1  -3 9.20996 5.74183   1
  17   1  -3 14.5145 5.85029   1
 -16  -1   3 176.623 16.6932   2
  16  -1  -3 184.613 12.3247   1
 -16  -1   3 154.964 9.03787   3
 -16  -1   3 163.374 11.7587   1
  16   1  -3 152.995 11.4606   1
 -16   1   3 150.298 10.2102   1
 -15  -1   3 551.363 16.0308   3
 -15  -1   3 565.420 25.7105   2
  15  -1  -3 565.889 19.3953   1
 -15  -1   3 592.184 19.7420   1
  15   1  -3 546.381 19.1175   1
 -15   1   3 570.548 18.0124   1
 -14  -1   3 57.6984 7.60625   1
 -14  -1   3 56.8507 10.2146   2
  14  -1  -3 51.1276 6.82092   1
 -14  -1   3 57.5481 5.67755   3
 -14   1   3 70.7852 7.35029   1
  14   1  -3 59.1066 7.38358   1
  13  -1  -3 12.6057 4.26097   1
 -13  -1   3 11.0440 4.22519   1
 -13  -1   3 13.5854 7.50979   2
 -13  -1   3 7.94890 2.64431   3
 -13   1   3 10.9866 3.71858   1
  13   1  -3 7.73326 3.95104   1
 -12  -1   3 161.309 7.51748   3
 -12  -1   3 160.663 13.6169   2
  12  -1  -3 157.493 9.25130   1
 -12  -1   3 153.637 9.23799   1
  12   1  -3 168.444 9.42716   1
 -12   1   3 158.914 8.47287   1
 -11  -1   3 516.095 19.6881   2
  11  -1  -3 532.869 15.8433   1
 -11  -1   3 510.421 15.7414   1
 -11  -1   3 534.837 13.5091   3
  11   1  -3 559.155 16.1082   1
 -11   1   3 527.552 14.5398   1
  10  -1  -3 316.196 11.2538   1
 -10  -1   3 296.909 11.2725   1
 -10  -1   3 303.379 9.35155   3
 -10  -1   3 322.387 15.1008   2
  10   1  -3 297.016 11.1654   1
 -10   1   3 286.790 9.92052   1
  -9  -1   3 288.228 13.3926   2
   9  -1  -3 302.139 10.3841   1
  -9  -1   3 287.077 10.4822   1
  -9  -1   3 286.657 8.65230   3
  -9   1   3 292.107 9.39252   1
   9   1  -3 298.457 10.4252   1
  -8  -1   3 432.795 14.9828   2
  -8  -1   3 434.953 12.4863   1
  -8  -1   3 443.584 10.5651   3
   8  -1  -3 430.951 12.0509   1
   8   1  -3 431.545 12.2436   1
  -8   1   3 441.613 11.2376   1
  -7  -1   3 120.432 4.89351   3
  -7  -1   3 116.802 6.24931   1
   7  -1  -3 122.667 6.00148   1
  -7  -1   3 115.570 7.45926   2
   7   1  -3 119.999 6.13632   1
  -7   1   3 123.759 5.48398   1
   6  -1  -3 0.43100 1.79703   1
  -6  -1   3 3.12077 1.32591   3
  -6  -1   3 2.33092 2.59351   2
  -6  -1   3 -0.6510 1.77411   1
   6   1  -3 -1.2434 1.69753   1
  -6   1   3 0.09201 1.44378   1
   5  -1  -3 168.026 5.89611   1
  -5  -1   3 177.190 6.32033   1
  -5  -1   3 166.111 4.98541   3
  -5  -1   3 175.946 8.01443   2
   5   1  -3 170.889 6.20455   1
  -5   1   3 166.449 5.29623   1
  -4  -1   3 7068.21 104.717   2
  -4  -1   3 7043.79 101.066   1
  -4  -1   3 7190.56 99.1716   3
   4  -1  -3 7227.69 100.398   1
  -4   1   3 7135.51 99.5667   1
   4   1  -3 7168.12 101.006   1
  -3  -1   3 3931.99 57.4334   1
   3  -1  -3 3945.90 56.6321   1
  -3  -1   3 3987.70 55.5908   3
  -3  -1   3 3973.49 55.6460   3
  -3  -1   3 3991.85 60.9465   2
   3   1  -3 3956.11 57.2676   1
   1  -1  -3 4324.96 59.5491   1
  -1  -1   3 4185.49 59.8967   1
   1  -1  -3 4144.32 59.5904   2
  -1  -1   3 4233.72 63.3995   2
   1   1  -3 4290.87 60.5791   1
   0  -1  -3 1936.83 28.5957   1
   0  -1   3 1886.97 31.9028   2
   0  -1  -3 1921.09 29.1981   2
   0  -1   3 1937.34 28.6866   1
  -3  -1  -3 553.901 12.0069   1
  -3  -1  -3 580.164 10.2742   3
   3  -1   3 571.812 11.6258   1
   3  -1   3 587.924 9.41999   3
  -3   1  -3 575.833 11.2162   1
   3   1   3 590.820 11.7466   1
   4  -1   3 157.726 5.84246   1
  -4  -1  -3 171.071 4.94000   3
   4  -1   3 162.305 4.13391   3
  -4  -1  -3 166.550 6.26630   1
   4   1   3 168.303 5.96726   1
  -4   1  -3 161.804 5.48697   1
  -5  -1  -3 523.545 10.8489   3
   5  -1   3 544.765 9.94209   3
   5  -1   3 515.914 12.2211   1
  -5  -1  -3 524.827 12.7518   1
   5   1   3 525.094 12.4056   1
  -5   1  -3 527.624 11.6973   1
   6  -1   3 339.407 10.0103   1
  -6  -1  -3 324.665 8.49143   3
   6  -1   3 334.371 7.62060   3
  -6   1  -3 340.253 9.47179   1
   6   1   3 337.128 10.1323   1
   7  -1   3 149.058 7.13065   1
  -7  -1  -3 160.560 7.57131   1
   7  -1   3 160.532 5.34152   3
  -7  -1  -3 153.728 5.96060   3
  -7   1  -3 146.544 6.58528   1
   7   1   3 165.504 7.43214   1
   8  -1   3 110.768 4.77412   3
   8  -1   3 117.306 6.87351   1
  -8  -1  -3 120.912 5.60782   3
  -8   1  -3 123.994 6.45537   1
   8   1   3 107.399 6.89776   1
   9  -1   3 637.261 13.4280   3
   9  -1   3 665.203 17.1634   1
  -9  -1  -3 656.875 17.3638   1
  -9  -1  -3 628.046 14.6961   3
  -9   1  -3 610.053 15.8437   1
   9   1   3 640.511 17.0154   1
 -10  -1  -3 411.468 14.0160   1
 -10  -1  -3 427.063 11.8809   3
  10  -1   3 414.074 10.6431   3
  10  -1   3 415.815 13.8730   1
  10   1   3 429.249 14.1458   1
 -10   1  -3 428.358 13.2012   1
  11  -1   3 67.7584 7.01793   1
  11  -1   3 68.7519 4.81077   3
 -11  -1  -3 55.9599 4.74940   3
 -11  -1  -3 65.3585 7.02026   1
 -11   1  -3 71.0239 6.45842   1
 -11   1  -3 92.0342 10.0440   3
  11   1   3 55.8769 6.49123   1
 -12  -1  -3 759.395 18.3629   3
  12  -1   3 756.636 21.4644   1
  12  -1   3 766.591 16.7681   3
 -12  -1  -3 759.219 21.4072   1
  12   1   3 791.192 21.5605   1
 -12   1  -3 776.564 20.2219   1
 -12   1  -3 784.705 18.8953   3
  13  -1   3 103.664 6.22022   3
  13  -1   3 84.6680 8.43049   1
 -13  -1  -3 103.554 7.17200   3
 -13  -1  -3 67.6852 7.96067   1
  13   1   3 114.801 9.96612   1
 -13   1  -3 103.456 8.18256   1
 -14  -1  -3 34.3460 6.66207   1
  14  -1   3 27.6747 6.15208   1
  14  -1   3 26.5469 3.93274   3
 -14  -1  -3 36.0294 5.10404   3
  14   1   3 38.4153 6.94014   1
 -14   1  -3 23.8398 5.56884   1
 -15  -1  -3 10.0172 5.75675   1
  15  -1   3 20.9211 6.72187   1
 -15  -1  -3 15.6199 4.25133   3
  15  -1   3 20.0608 3.86685   3
 -15   1  -3 14.9448 5.18637   1
  15   1   3 6.52617 5.19211   1
  16  -1   3 34.5655 4.65567   3
 -16  -1  -3 33.1618 5.44464   3
  16  -1   3 27.6657 7.01038   1
 -16  -1  -3 31.9408 7.20314   1
  16   1   3 31.2904 6.93681   1
 -17  -1  -3 7.01226 3.91901   3
 -17  -1  -3 22.5303 6.91850   1
  17  -1   3 12.8422 6.21081   1
  17  -1   3 19.9184 4.07243   3
  17   1   3 16.6623 6.33007   1
 -18  -1  -3 24.7375 4.83994   3
  18  -1   3 19.6671 4.06514   3
 -18  -1  -3 8.21876 6.23519   1
  18  -1   3 7.81114 6.19637   1
  18   1   3 19.4252 6.73989   1
  19  -1   3 22.3095 4.33551   3
 -19  -1  -3 25.6081 7.85462   1
  19  -1   3 37.7393 8.59600   1
 -19  -1  -3 25.4009 5.20972   3
  19   1   3 24.2295 7.38520   1
 -20  -1  -3 -2.0719 5.66107   1
  20  -1   3 5.87979 6.65181   1
  20   1   3 -4.2043 5.81585   1
  21  -2  -3 36.2221 9.37590   1
 -21  -2   3 28.6262 9.66981   2
 -21  -2   3 18.6178 4.93074   3
 -21  -2   3 34.9955 8.71474   1
 -20  -2   3 15.6540 7.04200   1
  20  -2  -3 6.01437 6.75118   1
 -20  -2   3 8.35305 3.93643   3
 -20  -2   3 11.3128 7.62751   2
 -19  -2   3 36.1017 8.02822   1
 -19  -2   3 39.9203 5.71627   3
 -19  -2   3 47.9925 10.6443   2
  19  -2  -3 37.6584 8.32814   1
 -18  -2   3 172.773 16.2408   2
 -18  -2   3 182.442 9.90462   3
  18  -2  -3 174.373 13.1708   1
 -18  -2   3 161.071 13.0295   1
 -17  -2   3 233.251 17.6904   2
 -17  -2   3 205.512 13.6973   1
  17  -2  -3 195.854 13.1140   1
 -17  -2   3 206.488 10.0964   3
  17   2  -3 207.160 13.5554   1
 -16  -2   3 309.781 19.3604   2
 -16  -2   3 320.764 15.8017   1
 -16  -2   3 296.807 11.5906   3
  16  -2  -3 347.797 15.9463   1
  16   2  -3 331.362 15.4629   1
 -15  -2   3 45.7063 9.74347   2
 -15  -2   3 54.6534 7.88267   1
  15  -2  -3 41.7306 7.02379   1
 -15  -2   3 62.5147 5.81581   3
  15   2  -3 61.3773 7.69086   1
 -14  -2   3 187.255 12.0408   1
 -14  -2   3 179.159 14.8482   2
  14  -2  -3 220.273 12.2858   1
 -14  -2   3 205.583 8.76327   3
  14   2  -3 197.289 11.2791   1
 -13  -2   3 691.436 16.5112   3
  13  -2  -3 737.128 20.7881   1
 -13  -2   3 708.588 25.9440   2
 -13  -2   3 721.088 21.2007   1
  13   2  -3 705.599 20.1316   1
  12  -2  -3 150.394 9.15475   1
 -12  -2   3 149.709 6.84966   3
 -12  -2   3 135.170 9.38952   1
 -12  -2   3 138.574 11.9838   2
 -12   2   3 147.905 7.38227   1
  12   2  -3 132.517 8.67143   1
 -11  -2   3 62.0188 8.31212   2
 -11  -2   3 73.6925 7.20668   1
  11  -2  -3 51.3238 5.85832   1
 -11  -2   3 72.1625 4.82241   3
  11   2  -3 67.4100 6.42813   1
 -11   2   3 68.0366 5.27345   1
  10  -2  -3 291.205 10.9813   1
 -10  -2   3 285.655 8.40174   3
 -10  -2   3 278.769 11.3684   1
 -10  -2   3 280.239 14.2896   2
  10   2  -3 296.484 10.8249   1
 -10   2   3 283.474 9.43383   1
   9  -2  -3 108.044 6.60325   1
  -9  -2   3 99.8560 4.70251   3
  -9  -2   3 102.096 8.90047   2
  -9  -2   3 103.170 7.03385   1
   9   2  -3 113.873 6.48724   1
  -8  -2   3 814.116 23.5000   2
   8  -2  -3 808.871 17.9105   1
  -8  -2   3 874.898 19.4853   1
  -8  -2   3 874.229 15.4710   3
   8   2  -3 838.770 18.3549   1
  -7  -2   3 737.852 12.8845   3
   7  -2  -3 726.032 15.5823   1
  -7  -2   3 717.718 20.9651   2
  -7  -2   3 721.593 16.7640   1
   7   2  -3 731.396 15.9456   1
  -6  -2   3 842.575 22.4116   2
  -6  -2   3 865.888 13.4877   3
  -6  -2   3 876.912 18.1017   1
  -6  -2   3 859.444 13.4636   3
   6  -2  -3 855.744 16.6461   1
   6   2  -3 868.075 17.0351   1
   5  -2  -3 6.40049 1.68774   1
   5  -2  -3 2.73887 1.71359   1
  -5  -2   3 5.42839 2.27501   1
  -5  -2   3 4.31775 3.37231   2
   5   2  -3 0.88588 1.62001   1
  -4  -2   3 413.086 9.95297   1
   4  -2  -3 430.198 8.55413   1
  -4  -2   3 429.878 14.0893   2
   4  -2  -3 416.568 8.65314   1
   3  -2  -3 1024.02 15.9916   1
  -3  -2   3 1011.08 23.2969   2
   3  -2  -3 985.901 19.8896   2
  -3  -2   3 1019.33 17.7239   1
   3  -2  -3 1005.82 15.7878   1
  -2  -2   3 812.792 14.4033   1
   2  -2  -3 835.822 12.7061   1
   2  -2  -3 849.752 12.8280   1
  -2  -2   3 792.673 19.8299   2
  -2  -2   3 835.594 14.4918   1
   2  -2  -3 847.728 17.2193   2
   1  -2  -3 1795.94 31.0257   2
   1  -2  -3 1857.12 26.2072   1
  -1  -2   3 1801.16 27.4896   1
  -1  -2   3 1873.72 27.5786   1
   1  -2  -3 1859.07 26.2621   1
  -1  -2   3 1803.70 34.4143   2
   0  -2   3 1529.53 30.3708   2
   0  -2  -3 1579.49 23.2777   1
   0  -2  -3 1572.64 27.9082   2
   0  -2   3 1593.27 23.6666   1
   0  -2  -3 1546.69 23.1546   1
   0  -2   3 1567.32 23.6141   1
  -1  -2  -3 140.963 4.30515   1
   1  -2   3 144.871 4.14180   1
  -1  -2  -3 141.291 4.34506   1
  -1  -2  -3 144.336 6.76304   2
   1  -2   3 147.475 4.14394   1
   1  -2   3 143.991 7.90086   2
  -2  -2  -3 597.403 15.0912   2
   2  -2   3 596.086 11.0625   1
   2  -2   3 598.915 16.5732   2
   2  -2   3 601.921 11.0935   1
  -2  -2  -3 593.220 11.7259   1
  -3  -2  -3 -0.9147 2.00686   2
   3  -2   3 -2.2588 1.28433   1
   3  -2   3 0.50469 1.49889   1
  -3  -2  -3 1.49712 1.51042   1
   3  -2   3 0.23611 1.33804   1
   3  -2   3 0.56319 2.68362   2
   4  -2   3 2434.44 37.7420   1
  -4  -2  -3 2392.68 43.4296   2
  -4  -2  -3 2469.36 39.1065   1
  -5  -2  -3 2737.17 44.0547   1
  -5  -2  -3 2699.03 48.6185   2
   5  -2   3 2757.68 42.7843   1
   5   2   3 2714.50 42.4021   1
   6  -2   3 640.292 14.4158   1
  -6  -2  -3 628.061 15.2872   1
  -6  -2  -3 590.501 18.2739   2
  -6  -2  -3 609.550 10.9192   3
  -6  -2  -3 636.998 15.2213   1
   6   2   3 612.608 14.0247   1
   7  -2   3 7.51139 2.73351   1
  -7  -2  -3 1.68095 1.39641   3
  -7  -2  -3 2.13508 3.70590   2
  -7  -2  -3 1.92550 2.59601   1
   7   2   3 1.84491 2.23326   1
  -8  -2  -3 65.4579 8.10135   2
  -8  -2  -3 64.3385 3.98868   3
  -8  -2  -3 68.8044 6.45868   1
   8  -2   3 65.6753 5.74353   1
  -8   2  -3 70.8111 4.71807   1
   8   2   3 70.7474 5.73716   1
  -9  -2  -3 222.979 10.3507   1
  -9  -2  -3 224.827 13.5441   2
   9  -2   3 211.889 9.77643   1
  -9  -2  -3 222.879 7.35318   3
   9   2   3 222.792 9.59135   1
  -9   2  -3 224.056 8.21674   1
 -10  -2  -3 408.682 18.1635   2
  10  -2   3 381.961 13.4461   1
 -10  -2  -3 403.719 10.7060   3
 -10  -2  -3 369.213 13.9087   1
  10   2   3 380.461 13.3400   1
 -10   2  -3 391.940 11.7230   1
 -11  -2  -3 205.539 7.90749   3
  11  -2   3 186.730 10.3489   1
 -11  -2  -3 207.582 14.5436   2
 -11  -2  -3 191.105 10.8617   1
 -11   2  -3 209.427 9.02607   1
  11   2   3 200.631 10.2692   1
 -12  -2  -3 1.66314 2.45207   3
 -12  -2  -3 5.81852 7.67316   2
 -12  -2  -3 -3.2166 4.02746   1
  12  -2   3 -3.4160 3.90628   1
  12   2   3 -3.5885 3.53865   1
  13  -2   3 -5.0811 3.91805   1
 -13  -2  -3 -3.9634 6.46319   2
 -13  -2  -3 -1.1901 2.31463   3
 -13  -2  -3 -0.8614 4.45031   1
  13   2   3 -0.5680 3.82814   1
 -14  -2  -3 1.75076 8.19937   2
  14  -2   3 -1.2084 4.41597   1
 -14  -2  -3 4.85351 5.24874   1
 -14  -2  -3 -1.4835 2.47313   3
  14   2   3 -0.8028 4.16035   1
 -15  -2  -3 0.51845 2.67894   3
 -15  -2  -3 6.35890 8.87441   2
 -15  -2  -3 5.57200 5.17109   1
  15  -2   3 -3.4367 4.40775   1
  15   2   3 -2.6781 4.06528   1
 -16  -2  -3 45.0970 11.8202   2
  16  -2   3 50.0750 8.33297   1
 -16  -2  -3 55.7991 8.95341   1
 -16  -2  -3 51.0564 5.79300   3
 -17  -2  -3 36.8695 5.45387   3
 -17  -2  -3 47.5197 8.49428   1
 -17  -2  -3 35.6313 11.1944   2
  17  -2   3 44.2365 8.20356   1
 -18  -2  -3 12.9069 9.49469   2
 -18  -2  -3 10.1472 3.86776   3
  18  -2   3 6.99391 6.63283   1
 -18  -2  -3 -0.5450 5.43176   1
 -19  -2  -3 19.7801 10.4274   2
 -19  -2  -3 10.7770 4.18920   3
  19  -2   3 24.9085 7.71047   1
 -19  -2  -3 11.8121 6.72198   1
 -20  -2  -3 49.9586 6.83630   3
  20  -2   3 42.2525 9.64219   1
 -20  -2  -3 63.7690 12.9011   2
 -20  -2  -3 52.3194 9.78274   1
 -20  -3   3 6.28431 6.71757   1
  20  -3  -3 6.81466 7.22915   1
 -20  -3   3 18.6859 8.96420   2
 -20  -3   3 18.7406 4.24923   3
 -19  -3   3 0.54688 6.91210   2
 -19  -3   3 1.34879 2.76501   3
 -19  -3   3 9.67731 6.21131   1
  19  -3  -3 14.8225 6.75090   1
 -18  -3   3 15.5222 6.78259   1
 -18  -3   3 30.9584 9.97095   2
 -18  -3   3 11.1783 3.16483   3
  18  -3  -3 7.56772 6.06613   1
 -17  -3   3 93.1446 10.5512   1
  17  -3  -3 97.1201 10.5024   1
 -17  -3   3 102.913 6.28562   3
 -17  -3   3 88.4377 12.9725   2
 -16  -3   3 22.8573 6.56788   1
  16  -3  -3 26.3797 6.28521   1
 -16  -3   3 23.7505 8.44526   2
 -16  -3   3 23.7364 3.46288   3
 -15  -3   3 0.99817 4.98086   2
  15  -3  -3 -0.2388 4.32061   1
 -15  -3   3 -0.2229 1.90077   3
 -15  -3   3 -11.378 4.40988   1
  14  -3  -3 4.55278 4.65425   1
 -14  -3   3 11.6895 2.45492   3
 -14  -3   3 17.4515 7.29479   2
 -14  -3   3 9.06739 5.27946   1
 -13  -3   3 -7.0286 3.71265   1
 -13  -3   3 -2.3481 5.30757   2
 -13  -3   3 0.50432 1.60658   3
  13  -3  -3 -4.2457 3.76673   1
 -12  -3   3 36.8461 6.51833   1
 -12  -3   3 38.2436 8.51784   2
 -12  -3   3 48.9247 3.10936   3
  12  -3  -3 49.4102 6.79472   1
 -11  -3   3 15.2651 4.85592   1
 -11  -3   3 12.5599 6.20819   2
  11  -3  -3 17.0663 4.46868   1
  10  -3  -3 11.4474 3.73182   1
 -10  -3   3 8.68161 4.01645   1
 -10  -3   3 21.5909 6.63018   2
  10   3  -3 14.9944 3.58805   1
   9  -3  -3 50.1861 5.07354   1
  -9  -3   3 53.2954 8.07761   2
  -9  -3   3 50.8067 5.70933   1
   9   3  -3 58.0223 5.10899   1
  -8  -3   3 3.10816 3.00595   1
  -8  -3   3 7.53843 4.68336   2
   8  -3  -3 3.22758 2.69588   1
  -7  -3   3 133.616 10.8181   2
  -7  -3   3 134.350 7.11567   1
   7  -3  -3 143.016 5.82966   1
   7  -3  -3 143.420 6.26586   1
  -6  -3   3 335.255 10.6167   1
  -6  -3   3 338.403 15.2197   2
   6  -3  -3 362.547 9.11951   1
   6  -3  -3 349.342 8.71725   1
   5  -3  -3 0.01652 1.46030   1
   5  -3  -3 -0.8366 1.21535   1
  -5  -3   3 3.43524 4.16395   2
  -5  -3   3 2.04639 2.12162   1
   4  -3  -3 -0.5713 2.73895   2
  -4  -3   3 3.63964 2.02794   1
  -4  -3   3 3.01653 3.26680   2
   4  -3  -3 6.34042 1.25027   1
   4  -3  -3 5.56486 1.33540   1
  -3  -3   3 -0.2450 3.23662   2
  -3  -3   3 -1.3263 1.32433   1
   3  -3  -3 -1.9081 2.36744   2
  -3  -3   3 -0.9895 1.55624   1
  -2  -3   3 53.7863 6.83768   2
  -2  -3   3 57.0399 3.31215   1
   2  -3  -3 60.6957 6.07504   2
  -2  -3   3 61.2489 3.26159   1
  -1  -3   3 66.4875 3.03231   1
  -1  -3   3 60.1538 6.78199   2
  -1  -3   3 66.0884 3.16674   1
   1  -3  -3 64.1935 5.88154   2
   0  -3  -3 712.778 11.4124   1
   0  -3   3 707.075 20.6018   2
   0  -3  -3 685.143 18.2977   2
   0  -3   3 700.143 11.9866   1
   0  -3  -3 707.912 11.3706   1
   0  -3   3 708.271 11.9828   1
   1  -3   3 332.278 6.84084   1
   1  -3   3 336.135 6.86946   1
   1  -3   3 333.492 13.6839   2
  -1  -3  -3 338.793 7.33841   1
  -1  -3  -3 309.588 11.9737   2
  -1  -3  -3 338.729 7.28004   1
   2  -3   3 207.810 5.32867   1
  -2  -3  -3 213.951 6.22013   1
   2  -3   3 204.531 11.1862   2
  -2  -3  -3 201.415 9.96311   2
   2  -3   3 204.737 5.31932   1
  -2  -3  -3 197.471 6.06493   1
   3  -3   3 8.43725 1.75607   1
  -3  -3  -3 7.63381 3.34696   2
  -3  -3  -3 6.39384 2.00463   1
   3  -3   3 12.8183 1.94362   1
  -3  -3  -3 10.3714 2.23047   1
   3  -3   3 8.82026 3.73106   2
   3  -3   3 11.5956 1.86309   1
   4  -3   3 115.474 4.83790   1
   4  -3   3 108.619 9.18845   2
  -4  -3  -3 102.096 8.24256   2
  -4  -3  -3 125.424 5.92162   1
   4  -3   3 106.749 4.66905   1
   5  -3   3 462.172 10.9679   1
  -5  -3  -3 437.380 16.3902   2
   5  -3   3 450.293 10.9687   1
  -5  -3  -3 450.253 12.2720   1
  -6  -3  -3 446.946 13.0097   1
  -6  -3  -3 451.615 13.0539   1
   6  -3   3 449.738 11.7097   1
  -6  -3  -3 469.731 17.5888   2
  -7  -3  -3 3.27581 3.95815   2
  -7  -3  -3 0.80844 2.85108   1
   7  -3   3 0.60692 2.48827   1
  -8  -3  -3 191.755 12.6120   2
  -8  -3  -3 183.021 9.54453   1
   8  -3   3 180.158 8.58694   1
   9  -3   3 153.203 8.49780   1
  -9  -3  -3 139.820 8.92021   1
  -9  -3  -3 136.713 11.9060   2
 -10  -3  -3 145.262 12.9802   2
 -10  -3  -3 154.843 9.86166   1
  10  -3   3 155.917 9.30108   1
  11  -3   3 178.360 10.6124   1
 -11  -3  -3 162.274 14.0135   2
 -11  -3  -3 169.299 10.9450   1
  12  -3   3 2.89928 4.40586   1
 -12  -3  -3 1.93051 1.60298   3
 -12  -3  -3 5.87150 6.21381   2
 -12  -3  -3 -4.4763 4.24074   1
 -13  -3  -3 33.5773 3.29833   3
  13  -3   3 39.4475 6.62860   1
 -13  -3  -3 26.8380 7.82285   2
 -13  -3  -3 28.7494 6.49375   1
 -14  -3  -3 12.6716 6.91713   2
 -14  -3  -3 1.24850 5.08972   1
 -14  -3  -3 6.91242 2.23433   3
  14  -3   3 5.64382 4.78074   1
 -15  -3  -3 -0.5341 2.00451   3
 -15  -3  -3 -4.0914 5.80304   2
  15  -3   3 2.58304 4.66296   1
 -15  -3  -3 -1.6959 4.96131   1
 -16  -3  -3 5.98332 5.67534   1
 -16  -3  -3 5.03666 6.73735   2
  16  -3   3 4.71727 5.40914   1
 -16  -3  -3 6.17578 2.59907   3
 -17  -3  -3 -0.2040 6.39908   2
  17  -3   3 9.84722 6.19896   1
 -17  -3  -3 3.22277 5.71416   1
 -17  -3  -3 4.88243 2.70299   3
 -18  -3  -3 11.4017 7.92471   2
 -18  -3  -3 22.4786 3.95889   3
 -18  -3  -3 18.8153 7.24976   1
  18  -3   3 18.9125 7.22015   1
 -19  -3  -3 0.20172 2.81341   3
 -18  -4   3 8.79393 6.31721   1
  18  -4  -3 6.12606 5.69071   1
 -18  -4   3 5.53794 7.54171   2
 -17  -4   3 10.1921 6.19983   1
  17  -4  -3 3.38092 5.41411   1
 -17  -4   3 12.4302 8.14868   2
 -16  -4   3 55.1037 8.83048   1
  16  -4  -3 62.1888 8.67766   1
 -16  -4   3 70.7582 12.6721   2
  15  -4  -3 13.7858 5.56652   1
 -15  -4   3 15.1842 6.14207   1
 -15  -4   3 17.9322 8.77203   2
 -14  -4   3 27.8580 6.88949   1
  14  -4  -3 30.7399 6.07909   1
 -14  -4   3 36.1918 9.72690   2
  13  -4  -3 299.595 13.5606   1
 -13  -4   3 304.678 20.1521   2
 -13  -4   3 307.600 14.8115   1
  12  -4  -3 632.127 18.3998   1
 -12  -4   3 599.405 19.8310   1
 -12  -4   3 578.400 26.4152   2
 -11  -4   3 207.417 12.0851   1
  11  -4  -3 238.892 10.9610   1
 -11  -4   3 236.044 16.7200   2
 -10  -4   3 12.2968 4.81108   1
 -10  -4   3 18.2962 6.80757   2
  10  -4  -3 7.70011 3.66472   1
  -9  -4   3 598.505 24.6397   2
   9  -4  -3 594.946 15.4489   1
  -9  -4   3 575.838 17.3164   1
   8  -4  -3 25.1579 5.50277   1
  -8  -4   3 22.6232 4.62129   1
   8  -4  -3 14.4943 3.39837   1
  -8  -4   3 21.1509 7.01054   2
   7  -4  -3 96.0590 5.06302   1
  -7  -4   3 105.272 7.36265   1
  -7  -4   3 108.461 12.1344   2
   7  -4  -3 91.3318 5.47064   1
   6  -4  -3 74.8670 4.01203   1
   6  -4  -3 78.2429 4.48032   1
  -6  -4   3 76.5620 6.09336   1
  -6  -4   3 63.7240 8.86843   2
  -5  -4   3 14.6554 3.41557   1
  -5  -4   3 20.4776 3.54580   1
   5  -4  -3 19.9424 2.32038   1
   5  -4  -3 8.89295 4.72708   2
   5  -4  -3 18.9824 2.10715   1
  -5  -4   3 16.8861 6.08214   2
  -4  -4   3 884.951 17.8865   1
  -4  -4   3 860.033 17.7107   1
   4  -4  -3 911.708 24.5236   2
  -4  -4   3 893.608 27.4686   2
  -3  -4   3 32.9927 7.17596   2
   3  -4  -3 32.3254 5.94948   2
  -3  -4   3 38.8623 3.54587   1
  -3  -4   3 33.9432 3.42606   1
  -2  -4   3 511.912 10.9830   1
   2  -4  -3 510.019 17.5987   2
  -2  -4   3 516.178 10.9780   1
  -2  -4   3 531.196 20.1557   2
   1  -4  -3 2.11387 3.63291   2
  -1  -4   3 0.75156 1.40858   1
  -1  -4   3 -0.3206 1.23193   1
  -1  -4   3 0.17490 3.70650   2
   0  -4  -3 54.7330 2.55918   1
   0  -4   3 54.9283 2.91015   1
   0  -4  -3 49.7691 6.94885   2
   0  -4  -3 55.4824 2.60042   1
   0  -4   3 51.1521 2.97376   1
   0  -4   3 49.5107 7.87922   2
  -1  -4  -3 401.469 8.65545   1
   1  -4   3 393.765 17.5100   2
   1  -4   3 393.077 8.05487   1
  -1  -4  -3 394.117 8.55398   1
   1  -4   3 394.884 8.06857   1
  -1  -4  -3 381.909 15.5513   2
   2  -4   3 848.208 14.7109   1
   2  -4   3 856.126 14.7140   1
  -2  -4  -3 836.725 15.9941   1
   2  -4   3 871.578 26.4334   2
  -2  -4  -3 848.268 16.1433   1
  -2  -4  -3 872.628 24.7522   2
   3  -4   3 28.1753 6.93875   2
   3  -4   3 20.9093 2.38174   1
  -3  -4  -3 33.8064 6.56714   2
  -3  -4  -3 21.2212 3.17166   1
   3  -4   3 26.3555 2.54219   1
  -3  -4  -3 26.8050 3.31384   1
  -4  -4  -3 360.660 10.7353   1
   4  -4   3 348.175 8.84159   1
   4  -4   3 361.460 8.91984   1
   4  -4   3 381.946 17.7967   2
  -4  -4  -3 369.128 16.4509   2
  -4  -4  -3 364.807 10.4558   1
   4  -4   3 347.328 8.85007   1
   5  -4   3 89.9951 4.88076   1
  -5  -4  -3 82.1168 6.02527   1
   5  -4   3 93.5970 5.16394   1
   5  -4   3 99.7729 10.9343   2
  -5  -4  -3 101.744 10.9683   2
  -5  -4  -3 89.9804 6.19608   1
   5  -4   3 83.6188 4.78848   1
  -6  -4  -3 24.0218 4.30111   1
  -6  -4  -3 19.7230 3.98180   1
   6  -4   3 35.6113 3.85537   1
  -6  -4  -3 31.1376 6.97168   2
   6  -4   3 31.6633 3.81689   1
   7  -4   3 0.05973 2.64215   1
  -7  -4  -3 4.33317 5.19993   2
  -7  -4  -3 0.32410 3.24680   1
  -8  -4  -3 434.444 14.9352   1
  -8  -4  -3 437.603 20.3875   2
   8  -4   3 435.945 13.2621   1
   9  -4   3 16.0841 4.20523   1
  -9  -4  -3 17.7010 5.18250   1
  -9  -4  -3 14.8761 6.46894   2
 -10  -4  -3 23.1209 5.60390   1
 -10  -4  -3 40.6383 9.36259   2
  10  -4   3 28.1775 5.33967   1
 -11  -4  -3 22.8215 8.08416   2
 -11  -4  -3 17.9792 5.46436   1
  11  -4   3 13.4115 4.60986   1
  12  -4   3 17.6533 5.11497   1
 -12  -4  -3 4.88600 4.87692   1
 -12  -4  -3 13.6657 8.18253   2
 -13  -4  -3 12.4637 5.83331   1
 -13  -4  -3 24.0514 9.01774   2
  13  -4   3 12.3960 5.31343   1
 -14  -4  -3 47.9235 10.6890   2
  14  -4   3 45.2259 7.69604   1
 -14  -4  -3 53.9373 8.48690   1
  15  -4   3 26.9399 6.73361   1
 -15  -4  -3 33.9970 7.90658   1
 -15  -4  -3 27.9977 9.80271   2
 -16  -4  -3 26.9034 9.39434   2
 -16  -4  -3 10.9900 6.85159   1
  16  -4   3 16.8371 6.42952   1
 -17  -4  -3 1.16636 7.48126   2
  17  -4   3 0.84222 5.92591   1
 -17  -4  -3 8.20012 6.28812   1
 -16  -5   3 -4.5059 5.44694   1
  16  -5  -3 -7.2033 4.58789   1
 -16  -5   3 12.1608 8.86625   2
  15  -5  -3 -0.4881 4.51222   1
 -15  -5   3 -0.2536 5.42244   1
 -15  -5   3 17.6311 9.05511   2
 -14  -5   3 11.9308 8.01436   2
  14  -5  -3 17.4808 5.59213   1
 -14  -5   3 11.8382 5.97115   1
 -13  -5   3 13.8506 8.03365   2
 -13  -5   3 13.1886 5.55995   1
  13  -5  -3 24.1955 5.43759   1
 -12  -5   3 3.29859 4.67983   1
  12  -5  -3 4.54807 3.88561   1
 -12  -5   3 4.46505 6.81297   2
 -11  -5   3 360.120 22.1617   2
 -11  -5   3 408.673 16.2400   1
  11  -5  -3 365.237 13.4700   1
 -10  -5   3 248.729 18.7777   2
  10  -5  -3 244.097 10.3962   1
 -10  -5   3 255.076 12.8975   1
   9  -5  -3 153.051 7.93868   1
  -9  -5   3 129.804 15.1467   2
  -9  -5   3 155.554 10.1710   1
  -8  -5   3 412.284 14.3535   1
   8  -5  -3 427.612 11.9336   1
  -8  -5   3 412.968 22.2380   2
  -7  -5   3 -6.2057 5.10355   2
  -7  -5   3 0.48368 3.24832   1
   7  -5  -3 -2.5861 2.24045   1
  -6  -5   3 2.26647 3.13222   1
   6  -5  -3 -2.8420 1.98277   1
  -6  -5   3 8.18509 7.10840   2
   5  -5  -3 237.788 6.31269   1
  -5  -5   3 224.316 9.11543   1
   5  -5  -3 210.305 14.5059   2
  -5  -5   3 232.522 16.5322   2
   5  -5  -3 235.660 5.99947   1
   4  -5  -3 151.966 12.6481   2
  -4  -5   3 155.333 7.31122   1
  -4  -5   3 146.431 14.0580   2
  -3  -5   3 4.75484 6.28366   2
  -3  -5   3 6.63606 2.68989   1
   3  -5  -3 12.2260 6.15748   2
  -2  -5   3 7.23396 2.35453   1
  -2  -5   3 4.17356 5.51390   2
   2  -5  -3 4.93933 5.20937   2
  -2  -5   3 5.68012 2.29495   1
  -1  -5   3 7.30046 6.12497   2
  -1  -5   3 7.60982 2.09830   1
  -1  -5   3 7.63625 2.22953   1
   1  -5  -3 14.7541 6.11945   2
   0  -5   3 171.493 5.64681   1
   0  -5  -3 178.952 13.4447   2
   0  -5  -3 168.103 5.07230   1
   0  -5  -3 168.226 5.06708   1
   0  -5   3 185.959 14.5915   2
   0  -5   3 169.091 5.49419   1
   1  -5   3 249.292 6.79557   1
  -1  -5  -3 282.312 16.5015   2
   1  -5   3 243.324 16.3404   2
  -1  -5  -3 255.947 7.26439   1
  -1  -5  -3 270.730 7.50858   1
   1  -5   3 250.335 6.70500   1
   2  -5   3 848.286 15.1438   1
  -2  -5  -3 849.414 16.9478   1
   2  -5   3 839.492 28.7058   2
   2  -5   3 815.478 15.0087   1
  -2  -5  -3 838.217 27.4917   2
   3  -5   3 238.686 16.7699   2
  -3  -5  -3 264.269 16.8562   2
   3  -5   3 260.227 7.29811   1
   3  -5   3 249.238 7.11333   1
  -3  -5  -3 279.442 9.23484   1
  -4  -5  -3 487.072 13.2908   1
  -4  -5  -3 468.998 13.1575   1
   4  -5   3 456.426 22.3014   2
   4  -5   3 457.543 10.8149   1
  -4  -5  -3 455.367 21.0215   2
   5  -5   3 644.184 14.5102   1
   5  -5   3 702.919 27.4165   2
  -5  -5  -3 689.075 17.3813   1
  -5  -5  -3 685.768 25.9513   2
  -6  -5  -3 159.098 8.98696   1
   6  -5   3 141.485 7.01483   1
  -6  -5  -3 148.631 14.2483   2
  -7  -5  -3 147.189 14.4846   2
   7  -5   3 124.165 7.23077   1
  -7  -5  -3 138.949 9.16538   1
  -8  -5  -3 0.18121 5.99242   2
  -8  -5  -3 -4.2366 3.33919   1
   8  -5   3 2.85099 3.26691   1
  -9  -5  -3 141.708 10.1000   1
   9  -5   3 118.013 8.26478   1
  -9  -5  -3 155.306 15.3386   2
  10  -5   3 96.0118 8.12606   1
 -10  -5  -3 109.733 9.82853   1
 -10  -5  -3 101.130 13.5439   2
  11  -5   3 0.58907 4.02516   1
 -11  -5  -3 16.4578 8.06721   2
 -11  -5  -3 10.4108 4.90802   1
  12  -5   3 76.1853 8.20335   1
 -12  -5  -3 59.6076 8.37225   1
 -12  -5  -3 77.2627 13.4858   2
 -13  -5  -3 19.3144 8.99988   2
 -13  -5  -3 29.2924 7.30879   1
  13  -5   3 17.9153 5.73367   1
  14  -5   3 22.9270 6.39348   1
 -14  -5  -3 11.0575 6.24927   1
 -14  -5  -3 21.1831 8.88213   2
 -15  -5  -3 12.9014 9.25427   2
  15  -5   3 7.05034 5.66798   1
 -15  -5  -3 14.6459 7.03175   1
  12  -6  -3 5.13648 4.34949   1
 -12  -6   3 18.7634 6.24442   1
 -12  -6   3 9.30292 8.72018   2
 -11  -6   3 3.18187 7.93718   2
 -11  -6   3 3.37404 5.04194   1
  11  -6  -3 -0.5606 3.55982   1
 -10  -6   3 102.102 9.80853   1
 -10  -6   3 96.2180 14.1066   2
  10  -6  -3 103.252 7.72891   1
  -9  -6   3 10.1404 7.31827   2
   9  -6  -3 13.0229 3.65275   1
  -9  -6   3 2.40012 4.44626   1
   8  -6  -3 133.882 7.03224   1
  -8  -6   3 121.632 9.35393   1
  -8  -6   3 161.950 18.3371   2
  -7  -6   3 53.8539 11.2256   2
   7  -6  -3 45.7009 4.27678   1
  -7  -6   3 43.3894 5.90319   1
   6  -6  -3 -0.5412 2.13102   1
  -6  -6   3 -0.3153 3.30069   1
  -6  -6   3 -0.7231 6.66227   2
  -5  -6   3 24.6927 9.42124   2
  -5  -6   3 18.7669 4.30331   1
   5  -6  -3 34.4114 9.82193   2
   4  -6  -3 90.7704 13.9603   2
  -4  -6   3 64.2210 5.78277   1
  -4  -6   3 58.3817 11.4653   2
  -3  -6   3 80.3962 5.95934   1
  -3  -6   3 67.4042 12.3528   2
   3  -6  -3 96.2303 13.4476   2
  -2  -6   3 1.45368 6.19335   2
  -2  -6   3 -0.4206 2.33717   1
   2  -6  -3 -6.9163 5.69492   2
  -1  -6   3 -4.7347 6.05304   2
  -1  -6   3 -1.4636 2.05985   1
   1  -6  -3 0.12073 6.58558   2
   0  -6   3 26.5835 3.16001   1
   0  -6  -3 35.0935 9.37709   2
   0  -6  -3 26.1518 3.04122   1
   0  -6   3 25.9752 8.67581   2
   1  -6   3 158.280 15.6819   2
   1  -6   3 149.723 5.80441   1
  -1  -6  -3 151.063 6.34296   1
  -1  -6  -3 154.295 15.2296   2
   2  -6   3 76.4135 4.55979   1
  -2  -6  -3 98.0001 14.0047   2
  -2  -6  -3 71.0751 5.43040   1
   2  -6   3 83.0722 12.8413   2
   3  -6   3 50.2911 11.3171   2
  -3  -6  -3 76.4670 6.13802   1
   3  -6   3 64.9638 4.56180   1
  -3  -6  -3 74.3839 13.0349   2
  -4  -6  -3 209.822 17.2718   2
   4  -6   3 188.098 17.5251   2
  -4  -6  -3 177.147 8.77901   1
   4  -6   3 152.136 6.54833   1
   5  -6   3 44.2123 4.37265   1
  -5  -6  -3 29.9089 5.23365   1
  -5  -6  -3 58.9871 11.9760   2
   5  -6   3 46.5750 11.4230   2
   6  -6   3 43.9416 4.55438   1
  -6  -6  -3 40.5221 5.97179   1
  -6  -6  -3 53.3616 12.6202   2
  -7  -6  -3 2.43722 7.04860   2
   7  -6   3 -0.3991 2.90570   1
  -7  -6  -3 4.56874 4.13742   1
  -8  -6  -3 35.3792 10.8010   2
  -8  -6  -3 17.0998 5.26179   1
   8  -6   3 17.6172 4.27230   1
  -9  -6  -3 21.6335 5.89723   1
  -9  -6  -3 48.8173 12.5999   2
   9  -6   3 25.6250 4.88568   1
 -10  -6  -3 1.22550 4.65942   1
  10  -6   3 0.46912 3.73209   1
 -10  -6  -3 2.06217 8.34303   2
  11  -6   3 40.7753 6.52996   1
 -11  -6  -3 42.3938 8.00688   1
 -11  -6  -3 62.8602 14.5285   2
  -6  -7   3 2.37488 3.86872   1
   6  -7  -3 1.48810 2.07810   1
  -6  -7   3 -1.6321 7.99701   2
   5  -7  -3 0.12945 8.72123   2
  -5  -7   3 -0.4240 3.34000   1
  -5  -7   3 -0.3967 7.19090   2
  -4  -7   3 10.6723 3.70448   1
   4  -7  -3 10.8364 9.27868   2
  -4  -7   3 20.5619 9.59446   2
  -3  -7   3 -0.7293 2.92440   1
   3  -7  -3 -1.8480 8.95161   2
  -3  -7   3 -1.0931 8.40370   2
   2  -7  -3 31.3475 10.7783   2
  -2  -7   3 31.8692 4.29921   1
  -2  -7   3 29.8168 10.4575   2
  -1  -7   3 50.7548 12.3066   2
   1  -7  -3 72.8421 13.1054   2
  -1  -7   3 62.7667 5.00683   1
   0  -7   3 -4.1058 7.61319   2
   0  -7  -3 -3.4079 7.17090   2
   0  -7   3 -1.6746 2.18820   1
   0  -7  -3 0.10168 2.16609   1
  -1  -7  -3 9.35052 9.48145   2
   1  -7   3 15.9576 2.89749   1
  -1  -7  -3 17.4740 3.39822   1
   1  -7   3 15.4107 9.67803   2
  -2  -7  -3 112.184 16.2251   2
   2  -7   3 75.5355 14.0502   2
  -2  -7  -3 92.8068 6.51002   1
   2  -7   3 85.0645 5.04184   1
   3  -7   3 30.9693 3.45932   1
  -3  -7  -3 26.1790 4.57850   1
  -3  -7  -3 37.2586 11.4284   2
   3  -7   3 26.3650 10.5548   2
   4  -7   3 0.90794 8.61256   2
  -4  -7  -3 5.88086 3.66512   1
   4  -7   3 6.30872 2.70965   1
  -4  -7  -3 -0.8510 9.79187   2
   5  -7   3 10.5490 9.46760   2
  -5  -7  -3 16.3282 10.8554   2
   5  -7   3 2.34426 2.78376   1
  -5  -7  -3 8.19867 4.02963   1
  22   0  -4 28.0977 9.12613   1
 -22   0   4 14.2547 14.7861   2
  21   0  -4 -2.7644 6.63179   1
  20   0  -4 10.3942 6.72969   1
 -19   0   4 -7.0827 4.30759   1
  19   0  -4 -3.0973 4.70330   1
 -18   0   4 36.2143 6.89393   1
  18   0  -4 30.8343 7.44243   1
 -17   0   4 220.581 12.8067   1
  17   0  -4 204.243 13.1740   1
 -16   0   4 16.7405 5.54205   1
 -16   0   4 11.5242 3.98329   3
  16   0  -4 11.8065 5.25810   1
  15   0  -4 108.028 9.71412   1
  15   0  -4 103.214 7.03283   3
 -15   0   4 125.832 7.82918   3
 -15   0   4 116.060 9.29328   1
 -14   0   4 96.8448 8.85664   1
 -14   0   4 100.564 7.09309   3
  14   0  -4 125.444 9.57501   1
  13   0  -4 489.819 13.5812   3
 -13   0   4 484.891 15.8721   1
  13   0  -4 520.914 16.8463   1
  12   0  -4 173.447 7.48182   3
  12   0  -4 178.994 9.62301   1
 -12   0   4 181.892 7.91462   3
 -12   0   4 172.748 9.12994   1
  11   0  -4 80.4972 6.93762   1
  11   0  -4 70.2999 4.86951   3
 -11   0   4 52.8206 4.55299   3
 -11   0   4 68.1020 6.34593   1
  10   0  -4 72.5604 5.79741   1
 -10   0   4 70.2104 5.75655   1
 -10   0   4 73.0861 4.90152   3
  10   0  -4 64.9631 4.44494   3
  -9   0   4 2068.75 34.4994   3
  -9   0   4 2126.17 36.6058   1
   9   0  -4 2063.41 37.0002   1
   8   0  -4 2173.44 37.6116   1
  -8   0   4 2147.80 37.0697   1
  -8   0   4 2236.80 35.3385   3
   8   0  -4 2188.70 34.9437   3
   7   0  -4 3684.89 56.7064   3
  -7   0   4 3963.38 57.2624   3
   7   0  -4 3804.05 59.3629   1
  -7   0   4 3964.08 59.1993   1
  -6   0   4 152.154 5.14740   3
   6   0  -4 150.386 6.28647   1
  -6   0   4 156.992 6.10161   1
   6   0  -4 145.388 4.99121   3
  -5   0   4 1898.12 30.6001   1
   5   0  -4 1913.67 30.9730   1
  -5   0   4 1840.68 29.2570   3
  -3   0   4 4836.47 68.5208   1
   3   0  -4 4744.74 68.7007   1
  -3   0   4 4741.41 68.2658   2
  -2   0   4 1.93489 1.32151   2
   2   0  -4 -1.5447 1.45237   1
  -2   0   4 7.31658 1.77263   1
   1   0  -4 328.308 7.63958   1
  -1   0   4 335.409 6.79299   2
  -1   0   4 337.751 7.59493   1
   0   0   4 3056.51 46.0443   3
   0   0  -4 3152.47 46.2044   1
   0   0   4 3144.18 46.1067   1
   0   0  -4 3266.16 45.2926   3
  -1   0  -4 404.259 9.00063   1
   1   0   4 405.020 9.03549   1
  -1   0  -4 404.917 8.09197   3
  -2   0  -4 1571.06 25.6559   1
  -2   0  -4 1549.93 24.4055   3
   2   0   4 1585.18 24.4478   3
   2   0   4 1566.21 25.6389   1
  -3   0  -4 285.301 7.00761   3
  -3   0  -4 276.299 7.91776   1
   3   0   4 296.270 8.12765   1
   3   0   4 277.802 6.91365   3
  -4   0  -4 1646.00 27.9386   1
   4   0   4 1629.98 27.9709   1
  -4   0  -4 1658.56 26.4981   3
   4   0   4 1616.83 26.3264   3
   5   0   4 1590.93 26.6529   3
  -5   0  -4 1631.20 28.4513   1
   5   0   4 1647.75 28.6259   1
  -5   0  -4 1633.81 26.9174   3
  -5   0  -4 1617.99 28.5370   1
  -6   0  -4 2762.91 45.3406   1
   6   0   4 2799.83 45.6736   1
  -6   0  -4 2882.19 43.6954   3
   6   0   4 2751.77 43.2930   3
   7   0   4 10.1247 2.35263   3
  -7   0  -4 4.09724 2.41982   1
  -7   0  -4 9.11084 2.35269   3
   7   0   4 6.55022 2.67722   1
   8   0   4 702.004 17.6773   1
  -8   0  -4 736.307 17.6657   1
  -8   0  -4 711.693 15.8298   3
   8   0   4 708.254 15.5799   3
  -9   0  -4 94.5906 5.69205   3
   9   0   4 105.789 5.73693   3
  -9   0  -4 105.523 6.97878   1
   9   0   4 107.624 7.26170   1
  10   0   4 29.2873 4.77864   1
 -10   0  -4 23.6830 3.43870   3
 -10   0  -4 24.9373 4.69379   1
  10   0   4 22.4540 3.36228   3
  11   0   4 151.748 7.39422   3
  11   0   4 168.628 9.89808   1
 -11   0  -4 161.340 7.95903   3
 -11   0  -4 161.844 9.31486   1
 -12   0  -4 10.0358 3.22733   3
  12   0   4 16.9428 4.99312   1
  12   0   4 9.07118 3.10275   3
 -12   0  -4 8.53922 4.28356   1
  13   0   4 75.2475 8.15784   1
 -13   0  -4 82.2087 7.30041   3
  13   0   4 72.8470 6.36589   3
 -13   0  -4 72.2191 7.97732   1
  14   0   4 2920.01 55.6525   1
 -14   0  -4 2942.02 51.2229   3
 -14   0  -4 2836.18 54.1759   1
 -15   0  -4 93.0127 9.13203   3
  15   0   4 108.632 11.0327   1
 -15   0  -4 110.014 10.1719   1
 -16   0  -4 40.9454 7.37272   1
  16   0   4 36.1432 7.72750   1
 -17   0  -4 533.394 20.4744   1
  17   0   4 487.183 20.5053   1
  18   0   4 3.19977 5.82736   1
 -18   0  -4 13.4861 5.73731   1
  19   0   4 67.8142 10.3536   1
  21  -1  -4 3.88824 6.39874   1
 -21  -1   4 7.07886 8.34192   2
 -21  -1   4 13.8723 6.97429   1
  21   1  -4 15.5682 7.59262   1
 -20  -1   4 45.9405 6.88900   3
  20  -1  -4 33.7548 8.85759   1
 -20  -1   4 53.0951 9.21421   1
 -20  -1   4 26.3229 9.65445   2
  20   1  -4 32.7612 8.17821   1
  19  -1  -4 5.04063 5.91903   1
 -19  -1   4 8.51762 7.44097   2
 -19  -1   4 0.64346 3.24310   3
 -19  -1   4 7.77670 5.76705   1
  19   1  -4 6.21397 5.77033   1
  18  -1  -4 14.6964 6.55397   1
 -18  -1   4 20.3274 4.50101   3
 -18  -1   4 28.0855 7.05876   1
 -18  -1   4 11.6775 7.74397   2
  18   1  -4 16.5618 6.33564   1
 -17  -1   4 141.371 12.0145   1
  17  -1  -4 101.667 10.3590   1
 -17  -1   4 136.959 8.79552   3
 -17  -1   4 121.029 14.6465   2
  17   1  -4 116.774 10.8305   1
 -16  -1   4 62.1759 11.5924   2
 -16  -1   4 65.9150 6.67831   3
  16  -1  -4 65.5138 8.80075   1
 -16  -1   4 59.1814 8.45229   1
  16   1  -4 59.0785 8.31672   1
 -16   1   4 61.0419 7.49523   1
 -15  -1   4 44.1428 7.06144   1
  15  -1  -4 51.1476 7.53294   1
 -15  -1   4 60.5145 6.40128   3
 -15  -1   4 47.9550 10.2534   2
  15   1  -4 46.9678 7.14343   1
 -15   1   4 40.2538 6.15602   1
 -14  -1   4 48.4062 9.71903   2
 -14  -1   4 46.6712 6.79949   1
 -14  -1   4 47.3802 5.27548   3
  14  -1  -4 47.2610 7.10983   1
 -14   1   4 65.1517 6.81755   1
  14   1  -4 46.8991 6.97471   1
 -13  -1   4 28.7066 5.34924   1
 -13  -1   4 22.0919 3.38484   3
  13  -1  -4 48.7574 6.50470   1
 -13  -1   4 27.3369 7.18128   2
  13   1  -4 36.1394 5.72548   1
 -13   1   4 29.7126 4.69855   1
 -12  -1   4 -0.9989 2.65449   1
 -12  -1   4 3.91091 4.82551   2
 -12  -1   4 2.70677 2.10844   3
  12  -1  -4 3.74822 3.79562   1
 -12   1   4 1.36616 2.76562   1
  12   1  -4 5.78284 3.42801   1
  11  -1  -4 -2.2362 2.82299   1
 -11  -1   4 2.54962 3.16122   1
 -11  -1   4 1.13726 4.31259   2
 -11  -1   4 -2.4300 1.47453   3
 -11   1   4 5.26179 2.76666   1
  11   1  -4 -0.8991 2.70433   1
  10  -1  -4 950.908 21.7457   1
 -10  -1   4 974.191 19.3858   3
 -10  -1   4 933.565 25.5205   2
 -10  -1   4 983.931 22.1703   1
  10   1  -4 938.859 21.7471   1
 -10   1   4 978.622 20.5799   1
  -9  -1   4 125.468 7.14219   1
   9  -1  -4 137.735 7.24637   1
  -9  -1   4 116.741 8.48371   2
  -9  -1   4 116.676 5.59409   3
  -9   1   4 132.738 6.49232   1
   9   1  -4 120.916 6.96309   1
  -8  -1   4 515.131 13.7927   1
   8  -1  -4 513.273 13.5498   1
  -8  -1   4 508.773 16.4856   2
   8   1  -4 508.483 13.5683   1
  -8   1   4 552.037 12.8859   1
  -7  -1   4 4316.16 62.8390   3
  -7  -1   4 4149.67 69.1787   2
  -7  -1   4 4240.80 65.4160   1
   7  -1  -4 4343.88 64.9976   1
  -7   1   4 4337.70 63.8148   1
   7   1  -4 4277.93 65.2879   1
  -6  -1   4 492.883 12.1881   1
  -6  -1   4 503.890 14.7160   2
  -6  -1   4 498.789 10.5434   3
   6  -1  -4 482.255 11.7471   1
   6   1  -4 491.765 12.0764   1
  -6   1   4 500.102 11.0581   1
  -5  -1   4 4255.82 62.1652   3
  -5  -1   4 4371.26 64.5023   1
  -5  -1   4 4300.01 67.8961   2
   5  -1  -4 4364.94 63.8613   1
  -5   1   4 4323.82 62.8435   1
   5   1  -4 4379.24 64.4483   1
  -4  -1   4 2254.54 37.7715   2
  -4  -1   4 2140.00 34.4413   1
   4  -1  -4 2155.58 33.8965   1
  -4  -1   4 2199.86 32.5572   3
  -4   1   4 2123.05 32.9605   1
   4   1  -4 2209.42 34.4351   1
  -2  -1   4 3052.36 43.3673   3
   2  -1  -4 3073.23 44.8692   1
  -2  -1   4 3136.32 45.4109   1
  -2  -1   4 3097.97 43.4994   3
  -2  -1   4 3139.57 48.5210   2
  -2   1   4 2940.26 47.2038   1
   2   1  -4 3024.58 44.9692   1
  -1  -1   4 3300.35 45.5511   3
   1  -1  -4 3296.51 47.2565   1
  -1  -1   4 3153.01 50.3637   2
  -1  -1   4 3280.23 45.4777   3
  -1  -1   4 3273.15 47.5266   1
   1  -1  -4 3215.91 45.8374   2
  -1   1   4 3280.11 47.6541   1
   1   1  -4 3200.62 47.1030   1
   0  -1   4 6464.76 93.7036   2
   0  -1  -4 6377.32 90.1816   1
   0   1  -4 6422.65 89.9168   1
   0   1   4 6408.61 89.6823   1
  -1  -1  -4 2059.06 32.2093   1
  -1  -1  -4 2087.96 32.7857   2
   1  -1   4 2097.08 32.1127   1
   1  -1   4 2035.07 35.1128   2
   1  -1   4 2127.93 29.8998   3
   1   1   4 2099.30 31.8415   1
  -1   1  -4 2109.66 31.8139   1
  -2  -1  -4 990.565 18.1777   1
   2  -1   4 1013.12 17.9716   1
   2  -1   4 1040.50 15.7877   3
  -2  -1  -4 1011.07 16.2261   3
  -2   1  -4 1040.69 17.6452   1
   2   1   4 1022.46 17.8723   1
   3  -1   4 4.15960 1.78201   1
   3  -1   4 7.89160 1.22219   3
  -3  -1  -4 4.93676 1.87284   1
  -3  -1  -4 5.15715 1.29138   3
  -3   1  -4 6.90609 1.88378   1
   3   1   4 5.76250 1.90085   1
  -3   1  -4 12.1470 2.05598   1
  -4  -1  -4 1.58280 1.97195   1
   4  -1   4 1.84883 1.04631   3
  -4  -1  -4 1.22160 1.22883   3
   4  -1   4 1.92197 1.75333   1
   4   1   4 1.04165 1.79916   1
  -4   1  -4 -0.9618 1.41923   1
  -5  -1  -4 1720.35 27.7468   3
   5  -1   4 1727.77 29.8164   1
  -5  -1  -4 1722.86 30.3183   1
   5  -1   4 1728.83 26.7803   3
   5   1   4 1703.57 29.6692   1
  -5   1  -4 1718.96 29.1169   1
   6  -1   4 1343.15 22.2793   3
  -6  -1  -4 1340.31 25.8211   1
  -6  -1  -4 1352.93 23.4100   3
   6  -1   4 1367.52 25.6089   1
  -6   1  -4 1371.45 24.7483   1
   6   1   4 1339.91 25.5224   1
   7  -1   4 529.953 11.4748   3
   7  -1   4 552.846 14.5247   1
  -7  -1  -4 552.136 12.5775   3
  -7   1  -4 579.054 13.9400   1
   7   1   4 552.830 14.6477   1
   8  -1   4 167.070 8.26937   1
  -8  -1  -4 159.663 8.28761   1
  -8  -1  -4 176.966 6.87348   3
   8  -1   4 178.844 6.12054   3
  -8   1  -4 170.337 7.74771   1
   8   1   4 165.796 8.24730   1
  -9  -1  -4 10.5781 2.41248   3
   9  -1   4 7.86255 2.16909   3
  -9  -1  -4 13.0772 3.67444   1
   9  -1   4 14.5283 3.72363   1
   9   1   4 13.5703 3.56292   1
  -9   1  -4 11.0199 3.26492   1
  10  -1   4 -0.5160 1.74307   3
  10  -1   4 -3.0045 2.91525   1
 -10  -1  -4 -5.2615 2.83941   1
 -10  -1  -4 -1.4605 1.85933   3
  10   1   4 -2.2246 2.85747   1
 -10   1  -4 1.54698 2.88047   1
 -11  -1  -4 234.823 11.4884   1
 -11  -1  -4 208.460 8.76457   3
  11  -1   4 211.461 10.9429   1
  11  -1   4 236.423 8.13874   3
 -11   1  -4 245.029 10.6176   1
 -11   1  -4 222.257 9.30003   3
  11   1   4 222.438 11.1057   1
 -12  -1  -4 309.293 10.9326   3
  12  -1   4 296.051 9.68538   3
 -12  -1  -4 291.786 13.3615   1
  12  -1   4 300.434 13.4559   1
  12   1   4 272.759 12.9433   1
 -12   1  -4 280.177 10.9936   3
 -12   1  -4 278.214 12.1505   1
  13  -1   4 664.023 20.9926   1
  13  -1   4 681.191 16.1226   3
 -13  -1  -4 686.655 17.7093   3
 -13  -1  -4 667.074 20.9620   1
 -13   1  -4 659.445 19.3450   1
  13   1   4 628.908 20.3162   1
 -14  -1  -4 144.806 11.5001   1
  14  -1   4 161.499 7.75779   3
  14  -1   4 166.627 11.7121   1
 -14  -1  -4 155.746 8.82956   3
  14   1   4 149.875 11.1191   1
 -14   1  -4 157.397 10.3803   1
 -15  -1  -4 -2.3575 4.60687   1
 -15  -1  -4 1.88157 3.43684   3
  15  -1   4 5.26920 2.84006   3
  15  -1   4 -3.0640 4.20725   1
  15   1   4 1.23219 4.69175   1
 -15   1  -4 3.75146 4.62462   1
  16  -1   4 52.8821 5.64992   3
 -16  -1  -4 47.2824 8.04960   1
 -16  -1  -4 47.4031 6.47968   3
  16  -1   4 38.8450 8.05351   1
  16   1   4 56.7351 8.39312   1
 -17  -1  -4 1.95719 5.47632   1
 -17  -1  -4 4.74138 3.67576   3
  17  -1   4 12.8712 6.21102   1
  17  -1   4 5.71328 3.23907   3
  17   1   4 -0.2113 5.07322   1
 -18  -1  -4 0.41957 3.45914   3
  18  -1   4 4.76297 6.41376   1
 -18  -1  -4 7.79289 6.10528   1
  18  -1   4 9.10894 3.28919   3
  18   1   4 14.2239 6.48790   1
 -19  -1  -4 10.4169 6.58261   1
 -19  -1  -4 13.9340 4.49285   3
  19  -1   4 27.4343 5.65631   3
  19  -1   4 18.4619 7.77615   1
  19   1   4 34.4165 8.23956   1
 -20  -1  -4 -0.5171 5.62480   1
  20  -1   4 1.57175 6.52005   1
  20   1   4 1.74562 9.83138   1
 -21  -2   4 6.32994 6.76140   1
 -21  -2   4 3.21009 3.65333   3
 -21  -2   4 5.31153 6.82027   2
  21  -2  -4 1.85390 6.60270   1
 -20  -2   4 93.5347 14.3463   2
 -20  -2   4 87.5668 8.26072   3
  20  -2  -4 79.7435 10.9652   1
 -20  -2   4 78.0388 10.5158   1
 -19  -2   4 54.3584 9.24495   1
 -19  -2   4 51.6482 10.6644   2
  19  -2  -4 55.8791 9.36617   1
 -19  -2   4 62.5207 7.08755   3
 -18  -2   4 -1.4570 5.27468   1
 -18  -2   4 0.31270 5.47978   2
  18  -2  -4 3.51482 5.62133   1
 -18  -2   4 9.12424 3.70961   3
  17  -2  -4 92.4758 10.4727   1
 -17  -2   4 76.2655 11.3131   2
 -17  -2   4 84.8018 10.2188   1
 -17  -2   4 85.4290 7.18640   3
  17   2  -4 95.8058 10.0194   1
  16  -2  -4 31.5748 6.95521   1
 -16  -2   4 46.9508 5.65756   3
 -16  -2   4 59.4489 8.60090   1
 -16  -2   4 43.3560 9.67144   2
  16   2  -4 45.9630 7.31793   1
  15  -2  -4 18.3482 5.76699   1
 -15  -2   4 31.4079 4.53073   3
 -15  -2   4 19.9062 5.85514   1
 -15  -2   4 21.2874 6.86534   2
  15   2  -4 23.0629 5.77047   1
  14  -2  -4 39.6050 6.47150   1
 -14  -2   4 31.6663 7.99537   2
 -14  -2   4 34.9129 4.32450   3
 -14  -2   4 32.1972 6.50881   1
  14   2  -4 45.6895 6.74051   1
 -13  -2   4 120.335 9.67652   1
 -13  -2   4 117.383 6.53252   3
  13  -2  -4 92.9059 8.46550   1
 -13  -2   4 130.830 12.4038   2
  13   2  -4 112.598 8.66705   1
 -12  -2   4 1.94891 3.83058   1
 -12  -2   4 2.46762 4.15836   2
  12  -2  -4 -6.7030 3.00849   1
 -12  -2   4 1.83032 2.12240   3
  12   2  -4 -1.2383 3.13728   1
 -12   2   4 -0.3162 2.56879   1
 -11  -2   4 124.356 8.59363   1
 -11  -2   4 127.492 11.1662   2
  11  -2  -4 136.992 8.30548   1
 -11  -2   4 135.089 6.16733   3
  11   2  -4 141.125 8.22721   1
 -11   2   4 137.743 6.79968   1
  10  -2  -4 1.98007 3.20791   1
 -10  -2   4 7.57580 2.19307   3
 -10  -2   4 3.47415 3.31037   1
 -10  -2   4 5.99657 4.64055   2
  10   2  -4 4.48354 3.13861   1
 -10   2   4 7.51517 2.67611   1
  -9  -2   4 4.91856 1.87171   3
  -9  -2   4 5.36650 3.75441   2
   9  -2  -4 2.79752 2.69523   1
  -9  -2   4 3.40879 3.05564   1
   9   2  -4 5.09825 2.79511   1
   8  -2  -4 12.0359 3.24326   1
  -8  -2   4 10.5514 3.32822   1
  -8  -2   4 13.4140 4.62860   2
  -8  -2   4 11.6981 2.10783   3
   8   2  -4 7.35980 2.94406   1
   7  -2  -4 40.6021 3.93361   1
  -7  -2   4 38.6150 2.73944   3
  -7  -2   4 33.6338 5.80437   2
   7   2  -4 37.6566 3.93565   1
  -6  -2   4 2093.16 30.7599   3
  -6  -2   4 2113.43 30.7552   3
  -6  -2   4 2125.54 41.7220   2
  -6  -2   4 2099.64 35.6450   1
   6  -2  -4 2155.86 34.3226   1
   6   2  -4 2088.11 34.5280   1
  -5  -2   4 701.557 14.9847   1
  -5  -2   4 637.913 18.7949   2
   5  -2  -4 697.301 13.6735   1
   5   2  -4 685.360 13.8567   1
  -4  -2   4 28.5458 4.59497   2
   4  -2  -4 29.8152 2.73486   1
   4  -2  -4 32.9752 2.65823   1
  -4  -2   4 32.1105 3.31658   1
   3  -2  -4 1418.34 22.3081   1
   3  -2  -4 1464.78 22.6073   1
  -3  -2   4 1425.11 29.7871   2
   3  -2  -4 1413.82 25.2549   2
  -3  -2   4 1428.82 23.9960   1
  -2  -2   4 1128.37 24.9964   2
  -2  -2   4 1135.58 19.4030   1
   2  -2  -4 1129.51 18.0317   1
   2  -2  -4 1174.60 18.3084   1
   2  -2  -4 1146.37 21.0371   2
   1  -2  -4 1106.80 17.7368   1
   1  -2  -4 1105.58 20.6160   2
  -1  -2   4 1110.61 18.4977   1
  -1  -2   4 1078.98 24.1359   2
   1  -2  -4 1102.96 17.5629   1
   0  -2   4 51.4668 3.00674   1
   0  -2  -4 44.6085 2.84222   1
   0  -2   4 54.0419 5.88592   2
   0  -2   4 54.6465 3.11200   1
   0  -2  -4 47.0960 4.04142   2
   0  -2  -4 54.0176 2.92343   1
   1  -2   4 147.780 4.90133   1
   1  -2   4 139.862 7.86535   2
  -1  -2  -4 155.003 6.84118   2
  -1  -2  -4 156.255 5.07227   1
   1  -2   4 149.335 5.27999   1
  -2  -2  -4 2.11156 2.25138   2
   2  -2   4 3.48864 1.62233   1
  -2  -2  -4 1.56819 1.61481   1
   2  -2   4 5.62457 3.17790   2
  -3  -2  -4 327.829 11.3079   2
   3  -2   4 326.632 8.52076   1
   3  -2   4 339.325 12.6813   2
  -3  -2  -4 329.392 9.11483   1
  -4  -2  -4 502.493 15.0968   2
   4  -2   4 509.409 11.8555   1
  -4  -2  -4 515.623 12.7045   1
   4   2   4 505.562 11.3254   1
  -5  -2  -4 429.748 11.9520   1
   5  -2   4 448.167 11.3821   1
  -5  -2  -4 413.696 14.2559   2
   5   2   4 422.356 10.8194   1
   6  -2   4 57.8712 4.91673   1
  -6  -2  -4 59.4715 5.22611   1
  -6  -2  -4 56.5065 6.74334   2
  -6  -2  -4 57.4359 2.95001   3
  -6  -2  -4 65.0728 5.53293   1
   6   2   4 55.8821 4.69730   1
  -7  -2  -4 76.6494 6.05095   1
   7  -2   4 70.5455 5.80752   1
  -7  -2  -4 65.0153 3.63436   3
  -7  -2  -4 74.8260 8.36323   2
  -7  -2  -4 58.2539 5.60672   1
   7   2   4 66.5066 5.53773   1
  -7   2  -4 75.2215 4.89432   1
  -8  -2  -4 119.816 10.4639   2
   8  -2   4 135.337 7.63712   1
  -8  -2  -4 131.700 5.35064   3
  -8  -2  -4 121.444 7.82568   1
  -8   2  -4 126.497 6.29650   1
   8   2   4 143.157 7.61989   1
  -9  -2  -4 792.532 25.3741   2
  -9  -2  -4 822.142 16.3779   3
  -9  -2  -4 810.460 20.8500   1
   9  -2   4 779.249 19.7891   1
  -9   2  -4 834.999 17.9628   1
   9   2   4 781.963 19.5643   1
  10  -2   4 841.708 21.3663   1
 -10  -2  -4 848.620 17.5863   3
 -10  -2  -4 842.399 27.4177   2
 -10  -2  -4 828.281 22.0831   1
  10   2   4 855.521 21.1107   1
 -10   2  -4 815.463 18.8772   1
  11  -2   4 32.6818 5.74178   1
 -11  -2  -4 39.7454 6.49296   1
 -11  -2  -4 30.9806 3.91977   3
 -11  -2  -4 27.9518 9.00900   2
  11   2   4 30.6075 5.55386   1
 -11   2  -4 35.2177 5.04223   1
 -12  -2  -4 36.4540 4.63253   3
  12  -2   4 37.6726 6.46827   1
 -12  -2  -4 28.9921 9.04247   2
 -12  -2  -4 29.5866 6.04538   1
  12   2   4 31.2834 5.87839   1
 -13  -2  -4 524.482 19.2272   1
  13  -2   4 540.192 18.8182   1
 -13  -2  -4 564.438 25.3496   2
 -13  -2  -4 541.148 14.7432   3
  13   2   4 558.831 18.4947   1
 -14  -2  -4 164.940 17.7112   2
  14  -2   4 148.308 11.3381   1
 -14  -2  -4 156.946 11.8690   1
 -14  -2  -4 163.750 8.40761   3
  14   2   4 152.566 11.1877   1
  15  -2   4 -5.0418 4.54131   1
 -15  -2  -4 4.51397 2.92426   3
 -15  -2  -4 -5.3480 4.73646   1
 -15  -2  -4 -0.0410 8.78028   2
  15   2   4 0.93803 4.36296   1
 -16  -2  -4 6.06705 9.78049   2
 -16  -2  -4 9.55961 5.88474   1
  16  -2   4 5.07874 5.38479   1
 -16  -2  -4 9.72785 3.80072   3
 -17  -2  -4 30.1794 7.52858   1
 -17  -2  -4 17.5808 4.20083   3
 -17  -2  -4 16.2302 10.6249   2
  17  -2   4 19.4453 6.84231   1
 -18  -2  -4 47.5758 8.81431   1
 -18  -2  -4 38.5587 5.81052   3
  18  -2   4 48.1755 9.08665   1
 -18  -2  -4 28.7824 11.6559   2
 -19  -2  -4 27.4667 5.33200   3
 -19  -2  -4 20.6440 10.5206   2
 -19  -2  -4 18.4704 7.82989   1
  19  -2   4 20.8423 8.39682   1
  20  -3  -4 -3.1632 6.32878   1
 -20  -3   4 1.63643 3.00966   3
 -20  -3   4 7.08453 7.33496   2
 -20  -3   4 4.28744 6.60449   1
  19  -3  -4 9.91025 6.48892   1
 -19  -3   4 5.82798 3.01420   3
 -19  -3   4 10.8907 6.71507   2
 -19  -3   4 11.4553 6.67547   1
 -18  -3   4 57.0373 11.5828   2
  18  -3  -4 50.2031 8.76886   1
 -18  -3   4 57.9700 9.30849   1
 -18  -3   4 53.0706 5.30317   3
 -17  -3   4 7.31052 5.85882   1
 -17  -3   4 -3.2931 4.91230   2
 -17  -3   4 3.71582 2.50998   3
  17  -3  -4 2.18567 5.03592   1
 -16  -3   4 0.54703 2.10753   3
 -16  -3   4 -4.9410 4.64151   2
  16  -3  -4 5.68753 4.59175   1
 -16  -3   4 0.38961 4.76875   1
 -15  -3   4 14.6936 2.89196   3
  15  -3  -4 11.7677 5.38618   1
 -15  -3   4 19.4790 6.57074   1
 -15  -3   4 22.1926 8.25874   2
 -14  -3   4 4.97042 2.08084   3
 -14  -3   4 -7.8537 4.08280   1
 -14  -3   4 -0.4609 5.59515   2
  14  -3  -4 2.83497 4.65452   1
 -13  -3   4 118.587 13.8504   2
 -13  -3   4 117.473 10.5162   1
  13  -3  -4 118.958 9.56966   1
 -13  -3   4 117.676 5.00310   3
 -12  -3   4 1412.50 22.8892   3
  12  -3  -4 1432.98 30.8532   1
 -12  -3   4 1444.09 22.9956   3
 -12  -3   4 1456.59 39.9991   2
 -12  -3   4 1443.34 32.7268   1
  11  -3  -4 483.551 15.3710   1
 -11  -3   4 518.498 22.1165   2
 -11  -3   4 467.857 16.5444   1
 -10  -3   4 394.391 18.7684   2
  10  -3  -4 360.603 12.4634   1
 -10  -3   4 359.853 13.6623   1
  10   3  -4 380.584 12.2955   1
  -9  -3   4 39.5231 5.39298   1
   9  -3  -4 22.7516 3.95901   1
  -9  -3   4 32.7509 7.30307   2
   9   3  -4 38.2248 4.35476   1
   8  -3  -4 1257.92 23.9553   1
  -8  -3   4 1230.64 33.0316   2
  -8  -3   4 1232.62 25.8655   1
  -7  -3   4 169.881 8.12074   1
  -7  -3   4 186.071 12.1903   2
   7  -3  -4 185.249 6.70729   1
   7  -3  -4 169.978 6.90035   1
  -6  -3   4 1147.56 30.5317   2
   6  -3  -4 1164.87 20.7108   1
  -6  -3   4 1218.95 23.5877   1
   6  -3  -4 1182.22 21.1220   1
  -5  -3   4 1001.77 19.9288   1
  -5  -3   4 998.083 27.4172   2
   5  -3  -4 978.472 17.2493   1
   5  -3  -4 992.057 17.5734   1
  -4  -3   4 517.127 18.2139   2
   4  -3  -4 522.892 10.0393   1
   4  -3  -4 529.717 15.2075   2
   4  -3  -4 534.206 10.3114   1
  -4  -3   4 527.016 12.3433   1
   3  -3  -4 26.9033 2.10451   1
  -3  -3   4 27.8932 2.99478   1
   3  -3  -4 27.6000 4.35003   2
  -3  -3   4 28.6940 5.91776   2
  -3  -3   4 29.6877 3.10168   1
   3  -3  -4 29.8734 2.30449   1
  -2  -3   4 1118.43 27.7287   2
   2  -3  -4 1068.16 16.7207   1
  -2  -3   4 1073.73 18.8636   1
   2  -3  -4 1055.98 23.3159   2
  -2  -3   4 1070.88 18.8927   1
   2  -3  -4 1077.28 16.8603   1
  -1  -3   4 41.0641 2.96048   1
   1  -3  -4 49.7846 5.32372   2
  -1  -3   4 53.1760 7.00129   2
   1  -3  -4 43.6986 2.50146   1
  -1  -3   4 49.0426 3.20945   1
   1  -3  -4 50.2541 2.58843   1
   0  -3  -4 424.040 8.65506   1
   0  -3  -4 421.558 8.54574   1
   0  -3   4 428.506 9.03633   1
   0  -3   4 429.844 9.04280   1
   0  -3   4 401.208 15.5167   2
   0  -3  -4 395.698 13.1271   2
   1  -3   4 573.784 11.3334   1
  -1  -3  -4 569.843 16.4901   2
   1  -3   4 586.917 19.0846   2
  -1  -3  -4 586.028 11.5604   1
  -1  -3  -4 579.557 11.5968   1
   1  -3   4 587.028 11.3835   1
  -2  -3  -4 525.262 16.2265   2
   2  -3   4 535.206 18.3149   2
  -2  -3  -4 536.910 11.7268   1
   2  -3   4 541.404 11.0027   1
   2  -3   4 521.559 10.9348   1
  -2  -3  -4 533.733 11.5575   1
   3  -3   4 576.584 19.4531   2
  -3  -3  -4 579.360 17.6235   2
   3  -3   4 578.724 12.1228   1
  -3  -3  -4 554.412 12.9350   1
   3  -3   4 568.740 12.0522   1
   4  -3   4 710.522 14.6661   1
   4  -3   4 704.023 14.6179   1
   4  -3   4 699.134 22.1585   2
  -4  -3  -4 735.448 16.2104   1
  -4  -3  -4 699.318 20.4270   2
   5  -3   4 331.073 9.72429   1
  -5  -3  -4 344.201 10.9266   1
  -5  -3  -4 326.497 13.9575   2
  -6  -3  -4 310.469 14.2138   2
  -6  -3  -4 320.157 11.0240   1
  -6  -3  -4 303.347 10.8935   1
   6  -3   4 295.897 9.82505   1
  -7  -3  -4 27.4938 4.61594   1
   7  -3   4 34.3686 4.45075   1
  -7  -3  -4 29.5454 6.12700   2
  -7  -3  -4 20.8237 4.07830   1
   8  -3   4 509.847 14.6636   1
  -8  -3  -4 508.863 15.5765   1
  -8  -3  -4 479.344 19.5832   2
   8   3   4 488.291 14.3598   1
   9  -3   4 735.462 19.2393   1
  -9  -3  -4 800.468 21.1576   1
  -9  -3  -4 715.826 24.7743   2
  10  -3   4 113.021 8.62002   1
 -10  -3  -4 92.7748 11.0123   2
 -10  -3  -4 106.864 9.15949   1
  11  -3   4 521.215 17.2136   1
 -11  -3  -4 501.642 22.2824   2
 -11  -3  -4 528.866 18.4854   1
 -12  -3  -4 607.761 25.0233   2
 -12  -3  -4 525.182 11.2229   3
  12  -3   4 572.627 18.8974   1
 -12  -3  -4 589.176 19.9590   1
 -13  -3  -4 3.04664 2.00776   3
  13  -3   4 1.97572 4.61469   1
 -13  -3  -4 3.17449 5.38113   2
 -13  -3  -4 8.21387 4.96807   1
 -14  -3  -4 213.250 17.0697   2
 -14  -3  -4 180.947 6.95610   3
  14  -3   4 174.585 12.2398   1
 -14  -3  -4 192.828 13.0830   1
  15  -3   4 93.8959 10.1076   1
 -15  -3  -4 120.459 6.14997   3
 -15  -3  -4 106.505 13.9081   2
 -15  -3  -4 88.4068 10.2005   1
 -16  -3  -4 46.4771 10.4370   2
  16  -3   4 35.0233 7.74091   1
 -16  -3  -4 32.5230 7.88711   1
 -16  -3  -4 30.3095 3.97684   3
 -17  -3  -4 11.8069 7.49500   2
 -17  -3  -4 15.3595 3.38210   3
 -17  -3  -4 3.32262 5.89463   1
  17  -3   4 11.2473 6.48974   1
 -18  -3  -4 -2.2549 2.41189   3
  18  -3   4 2.45184 6.23968   1
 -18  -3  -4 13.7484 8.34768   2
 -18  -3  -4 11.3112 6.79560   1
 -18  -4   4 -2.0549 6.25545   2
 -18  -4   4 8.43300 6.37975   1
  18  -4  -4 5.87512 5.67425   1
  17  -4  -4 43.0594 7.83400   1
 -17  -4   4 37.3760 10.1933   2
 -17  -4   4 50.4164 8.93992   1
  16  -4  -4 111.826 10.9527   1
 -16  -4   4 125.900 16.3023   2
 -16  -4   4 85.5692 10.6335   1
  15  -4  -4 2.32015 4.48982   1
 -15  -4   4 4.42265 5.27206   1
 -15  -4   4 14.9023 8.06191   2
 -14  -4   4 133.670 11.5037   1
 -14  -4   4 141.726 16.5927   2
  14  -4  -4 168.290 11.1864   1
  13  -4  -4 174.046 10.8297   1
 -13  -4   4 179.276 11.9162   1
 -13  -4   4 190.212 16.0361   2
 -12  -4   4 64.9231 10.6143   2
 -12  -4   4 104.263 9.66419   1
  12  -4  -4 85.5057 7.98414   1
 -11  -4   4 854.772 23.5074   1
  11  -4  -4 808.576 20.9475   1
 -11  -4   4 858.484 31.3502   2
  10  -4  -4 5.39780 3.62849   1
 -10  -4   4 4.10466 6.09332   2
 -10  -4   4 7.24934 4.45314   1
  -9  -4   4 -6.4088 3.20880   1
  -9  -4   4 -5.8740 4.38248   2
   9  -4  -4 2.70913 3.09570   1
   8  -4  -4 75.7194 5.71790   1
  -8  -4   4 92.2877 11.6782   2
  -8  -4   4 71.8228 6.84217   1
  -7  -4   4 69.8748 6.43063   1
  -7  -4   4 71.7225 10.3536   2
   7  -4  -4 82.5961 5.28750   1
   7  -4  -4 68.5152 4.59596   1
  -6  -4   4 109.471 10.7507   2
   6  -4  -4 120.006 5.02301   1
  -6  -4   4 97.9860 6.78043   1
   6  -4  -4 120.328 5.39961   1
   5  -4  -4 215.779 12.0175   2
  -5  -4   4 247.405 9.08068   1
  -5  -4   4 255.781 15.1869   2
   5  -4  -4 220.102 6.20848   1
   5  -4  -4 237.173 6.65276   1
   4  -4  -4 12.7171 1.81339   1
   4  -4  -4 17.2034 4.96251   2
  -4  -4   4 10.7487 5.02341   2
  -4  -4   4 12.2735 2.88507   1
   4  -4  -4 15.6962 2.03897   1
  -4  -4   4 16.1164 2.96606   1
  -3  -4   4 936.916 28.4401   2
   3  -4  -4 905.924 24.1304   2
   3  -4  -4 947.262 15.0469   1
  -3  -4   4 961.545 18.3060   1
  -3  -4   4 940.304 18.2027   1
   3  -4  -4 906.278 14.7960   1
  -2  -4   4 538.171 11.9050   1
   2  -4  -4 562.339 18.0739   2
   2  -4  -4 542.735 9.51972   1
  -2  -4   4 569.696 21.3908   2
  -2  -4   4 564.038 12.2205   1
   2  -4  -4 546.916 9.65695   1
  -1  -4   4 118.627 11.6753   2
   1  -4  -4 109.659 3.74655   1
  -1  -4   4 107.892 4.55450   1
  -1  -4   4 120.113 4.93210   1
   1  -4  -4 110.668 8.67508   2
   1  -4  -4 104.263 3.65916   1
   0  -4   4 185.032 12.3908   2
   0  -4  -4 201.018 10.9973   2
   0  -4   4 192.598 5.90282   1
   0  -4   4 200.196 6.07404   1
   0  -4  -4 208.422 5.71291   1
   0  -4  -4 198.439 5.64067   1
   1  -4   4 86.4253 10.0674   2
  -1  -4  -4 84.2046 4.36372   1
   1  -4   4 91.7400 4.09730   1
  -1  -4  -4 80.8859 8.52348   2
  -1  -4  -4 86.2936 4.38944   1
   1  -4   4 80.0391 4.02431   1
   2  -4   4 -0.1752 4.39832   2
  -2  -4  -4 -3.7673 1.71316   1
   2  -4   4 -1.1117 1.58303   1
  -2  -4  -4 -0.3261 3.66381   2
   2  -4   4 0.18828 1.60796   1
  -2  -4  -4 -2.1554 1.87427   1
   3  -4   4 498.927 20.2509   2
  -3  -4  -4 483.369 12.3017   1
  -3  -4  -4 491.013 18.1835   2
  -3  -4  -4 460.059 11.9326   1
   3  -4   4 470.161 10.8988   1
   3  -4   4 477.371 10.9339   1
   4  -4   4 78.0733 4.80240   1
  -4  -4  -4 74.8644 5.83663   1
  -4  -4  -4 85.6543 6.69694   1
   4  -4   4 89.8032 4.88364   1
   4  -4   4 77.6420 9.63176   2
  -4  -4  -4 85.2571 9.41680   2
   5  -4   4 64.6252 4.74886   1
   5  -4   4 73.5464 5.16673   1
   5  -4   4 60.8976 8.80841   2
  -5  -4  -4 62.1137 8.64339   2
  -5  -4  -4 71.4005 6.12236   1
   6  -4   4 27.6941 3.91139   1
  -6  -4  -4 21.7796 6.54721   2
  -6  -4  -4 25.1710 4.50600   1
  -6  -4  -4 27.8415 4.62570   1
   7  -4   4 421.900 12.6570   1
  -7  -4  -4 408.936 18.9843   2
  -7  -4  -4 398.418 13.9987   1
   8  -4   4 45.3050 5.45658   1
  -8  -4  -4 55.6462 6.78512   1
  -8  -4  -4 47.8614 8.94204   2
  -9  -4  -4 30.0658 8.37942   2
   9  -4   4 40.4501 5.62131   1
  -9  -4  -4 38.3385 6.26204   1
 -10  -4  -4 135.110 14.2510   2
  10  -4   4 114.363 8.84334   1
 -10  -4  -4 102.417 9.26896   1
 -11  -4  -4 -0.7797 4.20001   1
  11  -4   4 8.05350 4.26276   1
 -11  -4  -4 -2.4143 5.63296   2
 -12  -4  -4 22.1495 6.22093   1
  12  -4   4 15.7457 5.08356   1
 -12  -4  -4 18.9909 7.95618   2
  13  -4   4 36.4952 6.55017   1
 -13  -4  -4 39.9702 10.1594   2
 -13  -4  -4 37.5894 7.61631   1
 -14  -4  -4 62.2926 9.20988   1
  14  -4   4 45.3714 7.70255   1
 -14  -4  -4 55.2893 11.0849   2
  15  -4   4 22.9158 6.64225   1
 -15  -4  -4 18.5840 6.78058   1
 -15  -4  -4 30.1466 9.23110   2
  16  -4   4 6.92755 5.68762   1
 -16  -4  -4 9.07167 7.55701   2
 -16  -4  -4 3.75330 6.03427   1
 -17  -4  -4 17.3241 8.93306   2
  17  -4   4 -0.5667 5.64015   1
  16  -5  -4 -2.9261 4.76783   1
 -16  -5   4 6.48212 6.04875   1
 -16  -5   4 3.23478 6.68269   2
 -15  -5   4 -2.8006 5.63702   2
 -15  -5   4 -3.8514 5.12508   1
  15  -5  -4 6.76930 4.96880   1
 -14  -5   4 -4.0683 4.64847   1
  14  -5  -4 1.33475 4.34408   1
 -14  -5   4 -4.3814 5.84117   2
 -13  -5   4 -3.2550 5.41312   2
 -13  -5   4 -5.1515 4.07274   1
  13  -5  -4 -2.2205 3.60777   1
 -12  -5   4 41.8832 7.09526   1
  12  -5  -4 39.4860 5.99955   1
 -12  -5   4 32.0250 9.08998   2
 -11  -5   4 28.9150 9.41560   2
 -11  -5   4 34.4003 6.47215   1
  11  -5  -4 30.3875 5.13351   1
 -10  -5   4 113.362 9.66478   1
 -10  -5   4 123.892 15.6062   2
  10  -5  -4 97.8990 7.55753   1
  -9  -5   4 36.6373 9.34254   2
  -9  -5   4 38.7898 6.24864   1
   9  -5  -4 34.7053 4.63787   1
  -8  -5   4 -1.6218 3.52627   1
   8  -5  -4 1.35715 2.66013   1
  -8  -5   4 3.82921 6.51573   2
  -7  -5   4 69.8695 11.1291   2
  -7  -5   4 70.0185 6.72520   1
   7  -5  -4 88.0096 5.45354   1
  -6  -5   4 80.3039 6.84955   1
   6  -5  -4 77.3152 4.71117   1
  -6  -5   4 95.3472 12.9989   2
  -5  -5   4 -3.2867 5.70346   2
   5  -5  -4 2.50341 1.84762   1
  -5  -5   4 4.33243 3.05931   1
   5  -5  -4 -2.1535 5.14883   2
   5  -5  -4 5.58832 1.82880   1
   4  -5  -4 44.3988 2.83146   1
  -4  -5   4 44.8501 9.41283   2
  -4  -5   4 38.5268 4.52028   1
   4  -5  -4 52.6480 3.16755   1
   4  -5  -4 55.1577 9.23920   2
   3  -5  -4 115.730 11.1928   2
  -3  -5   4 122.761 13.3414   2
  -3  -5   4 128.081 6.69227   1
   2  -5  -4 89.8498 3.41921   1
  -2  -5   4 101.031 12.5657   2
   2  -5  -4 86.8458 10.1915   2
  -2  -5   4 87.2641 5.44780   1
  -1  -5   4 33.6468 4.15603   1
   1  -5  -4 33.6648 7.68358   2
  -1  -5   4 30.8123 8.24027   2
   1  -5  -4 33.1375 2.70002   1
   1  -5  -4 35.7936 2.77572   1
  -1  -5   4 33.8439 3.47497   1
   0  -5   4 95.3768 4.98895   1
   0  -5   4 89.0765 4.66806   1
   0  -5   4 82.4374 10.6723   2
   0  -5  -4 102.172 11.1622   2
   0  -5  -4 94.0870 4.51850   1
   0  -5  -4 99.2784 4.60802   1
  -1  -5  -4 -3.4558 2.02327   1
   1  -5   4 -0.0561 1.97940   1
  -1  -5  -4 -5.5021 2.11319   1
   1  -5   4 -1.0522 1.87602   1
   1  -5   4 -4.6225 4.28609   2
  -1  -5  -4 3.58688 5.60619   2
  -2  -5  -4 150.389 12.9933   2
  -2  -5  -4 157.421 6.92854   1
   2  -5   4 144.607 6.70980   1
   2  -5   4 167.953 13.8743   2
   2  -5   4 155.821 6.09476   1
  -3  -5  -4 1.83788 2.61615   1
   3  -5   4 -4.4854 4.85915   2
   3  -5   4 -1.5055 2.08632   1
  -3  -5  -4 -2.3273 5.33653   2
  -4  -5  -4 50.4120 5.21421   1
   4  -5   4 41.5405 8.88900   2
  -4  -5  -4 51.6151 9.79413   2
   4  -5   4 39.9552 4.05635   1
  -5  -5  -4 12.8227 4.07339   1
  -5  -5  -4 25.2901 4.46529   1
   5  -5   4 17.1908 3.41594   1
   5  -5   4 14.1247 6.86886   2
  -5  -5  -4 24.5407 7.95716   2
   6  -5   4 0.51277 2.73169   1
  -6  -5  -4 -0.9841 3.20577   1
  -6  -5  -4 -2.5918 5.62426   2
   7  -5   4 12.9017 3.67965   1
  -7  -5  -4 9.79405 4.25483   1
  -7  -5  -4 4.94565 6.69337   2
  -8  -5  -4 26.9348 5.71753   1
  -8  -5  -4 16.4021 7.95405   2
   8  -5   4 20.0343 4.38030   1
  -9  -5  -4 13.0562 7.22417   2
   9  -5   4 10.1627 4.18241   1
  -9  -5  -4 11.4367 5.04183   1
 -10  -5  -4 10.8083 4.85254   1
  10  -5   4 11.5348 4.43331   1
 -10  -5  -4 13.4444 7.46888   2
  11  -5   4 5.68549 4.47268   1
 -11  -5  -4 1.14243 4.46967   1
 -11  -5  -4 7.31738 6.98918   2
  12  -5   4 103.052 9.58742   1
 -12  -5  -4 112.072 15.2181   2
 -12  -5  -4 121.815 11.2445   1
 -13  -5  -4 30.5059 9.87873   2
 -13  -5  -4 21.4908 6.55952   1
  13  -5   4 20.7402 6.15016   1
 -14  -5  -4 11.8023 8.86803   2
  14  -5   4 -1.4325 4.78907   1
 -14  -5  -4 8.19971 6.07805   1
 -12  -6   4 1.54679 5.06718   1
 -12  -6   4 5.98461 8.39205   2
  12  -6  -4 -3.4695 3.68816   1
  11  -6  -4 47.2765 6.02879   1
 -11  -6   4 42.7227 11.1254   2
 -11  -6   4 50.3146 7.72350   1
 -10  -6   4 29.9544 10.3696   2
  10  -6  -4 23.2063 4.67491   1
 -10  -6   4 27.1325 6.27487   1
  -9  -6   4 17.5993 9.40319   2
   9  -6  -4 5.80709 3.28634   1
  -9  -6   4 12.1806 4.87134   1
  -8  -6   4 51.3972 11.0163   2
   8  -6  -4 29.9380 4.03214   1
  -8  -6   4 37.4350 5.99863   1
  -7  -6   4 55.7940 6.46520   1
   7  -6  -4 54.7000 4.59670   1
  -7  -6   4 74.3382 13.1063   2
  -6  -6   4 57.9190 6.22212   1
  -6  -6   4 47.9205 11.2338   2
   6  -6  -4 51.3280 4.07459   1
   5  -6  -4 278.230 7.53517   1
  -5  -6   4 295.067 11.3390   1
  -5  -6   4 277.674 19.3204   2
   5  -6  -4 297.317 18.5990   2
  -4  -6   4 12.2396 3.64064   1
   4  -6  -4 9.49402 8.98771   2
  -4  -6   4 6.58577 7.33356   2
  -3  -6   4 196.165 8.57659   1
  -3  -6   4 212.504 17.8481   2
   3  -6  -4 219.288 16.2004   2
  -2  -6   4 241.345 8.74853   1
   2  -6  -4 239.107 6.30181   1
   2  -6  -4 245.665 17.1656   2
  -2  -6   4 241.275 17.8649   2
  -1  -6   4 -4.8851 6.37966   2
  -1  -6   4 1.87773 2.31320   1
   1  -6  -4 -0.6442 1.72003   1
   1  -6  -4 -1.4911 5.77501   2
   0  -6  -4 39.4387 3.74478   1
   0  -6   4 25.9460 9.05125   2
   0  -6   4 37.2029 3.83353   1
   0  -6  -4 41.5769 9.41081   2
   1  -6   4 40.2625 3.88788   1
  -1  -6  -4 33.5845 3.96448   1
   1  -6   4 30.8561 8.71170   2
  -1  -6  -4 56.1028 11.3260   2
   2  -6   4 106.988 14.1738   2
   2  -6   4 125.527 5.97589   1
  -2  -6  -4 155.553 16.8185   2
  -2  -6  -4 104.769 6.61256   1
   3  -6   4 -1.2027 6.86272   2
  -3  -6  -4 3.19194 7.15251   2
  -3  -6  -4 1.55775 2.76271   1
  -3  -6  -4 3.34677 2.98292   1
   3  -6   4 -2.3811 2.23170   1
   4  -6   4 67.3774 5.39163   1
  -4  -6  -4 77.3732 6.56033   1
  -4  -6  -4 103.459 14.5118   2
  -4  -6  -4 70.9481 6.45636   1
   4  -6   4 86.5598 13.6190   2
   5  -6   4 3.01294 7.46797   2
   5  -6   4 0.39066 2.58942   1
  -5  -6  -4 2.34523 7.48970   2
  -5  -6  -4 -1.6623 3.38828   1
  -6  -6  -4 69.6574 13.7458   2
  -6  -6  -4 38.3354 6.04768   1
   6  -6   4 41.9496 4.92416   1
  -7  -6  -4 21.9090 5.42599   1
  -7  -6  -4 24.4519 9.73591   2
   7  -6   4 27.4414 4.50030   1
  -8  -6  -4 33.2596 11.3388   2
  -8  -6  -4 8.99232 4.73058   1
   8  -6   4 18.6319 4.47973   1
  -9  -6  -4 24.8027 6.11267   1
  -9  -6  -4 15.5344 8.99624   2
   9  -6   4 17.8982 4.67236   1
 -10  -6  -4 2.64952 4.74783   1
 -10  -6  -4 12.4449 9.90808   2
  10  -6   4 -3.8398 3.85044   1
 -11  -6  -4 37.4599 11.8234   2
  11  -6   4 21.0230 5.79226   1
 -11  -6  -4 10.7619 6.00515   1
  -6  -7   4 -3.9446 7.84265   2
   6  -7  -4 1.64145 2.28434   1
  -6  -7   4 2.45476 4.05310   1
  -5  -7   4 45.3661 5.96631   1
  -5  -7   4 33.1304 11.0104   2
   5  -7  -4 49.0802 12.2785   2
  -4  -7   4 47.6446 11.5757   2
   4  -7  -4 51.7734 13.5432   2
  -4  -7   4 42.5020 5.38194   1
  -3  -7   4 20.1300 4.04456   1
   3  -7  -4 13.1647 11.2025   2
  -3  -7   4 12.2546 9.15526   2
  -2  -7   4 -0.5102 2.91706   1
  -2  -7   4 3.14813 8.60985   2
   2  -7  -4 2.80937 8.50712   2
  -1  -7   4 73.0597 5.90880   1
   1  -7  -4 79.6415 4.76047   1
  -1  -7   4 96.1400 15.3240   2
   1  -7  -4 90.6522 14.2878   2
   0  -7   4 37.7854 10.9837   2
   0  -7   4 35.4726 4.25938   1
   0  -7  -4 33.5613 3.70809   1
   0  -7  -4 43.6495 10.8010   2
   1  -7   4 4.31003 2.69227   1
  -1  -7  -4 2.46091 2.50730   1
  -1  -7  -4 3.68390 2.83947   1
  -1  -7  -4 12.8806 8.33143   2
   1  -7   4 -0.9844 7.50584   2
  -2  -7  -4 29.6220 10.7347   2
   2  -7   4 10.2885 9.32133   2
  -2  -7  -4 18.6989 3.96711   1
   2  -7   4 17.9759 3.32091   1
  -3  -7  -4 -0.0338 3.28576   1
   3  -7   4 -1.6605 2.52258   1
   3  -7   4 0.09337 7.95864   2
  -3  -7  -4 -2.1655 8.98701   2
   4  -7   4 -1.3418 9.01232   2
   4  -7   4 7.59609 3.09305   1
  -4  -7  -4 27.8253 12.1659   2
  -4  -7  -4 5.45619 3.91742   1
  22   0  -5 -3.2582 6.66777   1
 -22   0   5 -18.044 10.6194   2
  21   0  -5 -6.4812 5.95275   1
 -21   0   5 -21.275 10.6310   2
 -20   0   5 -22.634 10.1575   2
  20   0  -5 5.46417 6.19552   1
  19   0  -5 2.46898 5.54657   1
 -19   0   5 -9.9025 3.93865   1
  18   0  -5 -4.0418 4.56969   1
 -18   0   5 -0.2965 4.64397   1
 -17   0   5 2.91686 4.77905   1
  17   0  -5 -8.3465 4.17375   1
 -16   0   5 -5.4019 2.17869   3
  16   0  -5 -0.1574 4.83213   1
 -16   0   5 2.03325 4.28140   1
  15   0  -5 -4.7433 2.28951   3
 -15   0   5 0.93801 2.59841   3
 -15   0   5 -1.4333 3.83885   1
  15   0  -5 0.41804 3.94616   1
 -14   0   5 -2.3049 3.43235   1
  14   0  -5 -2.6276 2.00946   3
 -14   0   5 -4.3314 1.66818   3
  14   0  -5 -5.4258 3.50580   1
 -13   0   5 1.49224 2.00264   3
 -13   0   5 -2.3234 3.07408   1
  13   0  -5 1.81333 3.46908   1
  13   0  -5 -3.8814 1.90653   3
 -12   0   5 1.93943 2.06685   3
 -12   0   5 -1.4255 2.57969   1
  12   0  -5 4.81612 3.04175   1
  12   0  -5 2.90388 2.00343   3
 -11   0   5 2.57924 2.01516   3
  11   0  -5 -0.9665 1.63110   3
  11   0  -5 -4.6761 2.58481   1
 -11   0   5 -2.1723 2.52611   1
 -10   0   5 3.59277 2.67305   1
  10   0  -5 1.02104 1.66285   3
 -10   0   5 0.87516 1.57693   3
  10   0  -5 1.93903 2.74979   1
  -9   0   5 -0.1052 1.40683   3
   9   0  -5 -1.4213 2.17129   1
  -9   0   5 -1.3045 2.03060   1
   9   0  -5 -0.6309 1.51974   3
   8   0  -5 -1.5426 2.05210   1
   8   0  -5 0.56775 1.39190   3
  -8   0   5 0.97779 1.50513   3
  -8   0   5 -0.7032 2.12045   1
  -7   0   5 1.22438 2.12862   1
  -7   0   5 -1.3116 1.07743   3
   7   0  -5 1.77915 2.14615   1
   6   0  -5 5.90694 2.33600   1
  -6   0   5 -1.0587 2.63682   2
  -6   0   5 -0.8290 1.21372   3
  -6   0   5 -1.2029 1.72812   1
   5   0  -5 -0.3455 1.66701   1
  -5   0   5 -0.3851 1.04359   3
  -5   0   5 -1.9273 1.42445   1
  -5   0   5 0.90505 1.87370   2
  -4   0   5 1.16984 1.11050   3
  -4   0   5 0.90852 1.57038   1
  -4   0   5 -1.4831 1.48294   2
   4   0  -5 -0.6638 1.58038   1
  -3   0   5 -1.3778 1.47704   1
  -3   0   5 -0.0212 1.43612   2
   3   0  -5 2.55920 1.66717   1
   2   0  -5 -0.8245 1.49464   1
  -2   0   5 2.85950 1.67461   1
  -2   0   5 0.54057 1.20830   2
   1   0  -5 -4.0884 1.66357   1
  -1   0   5 -2.0022 1.39582   2
  -1   0   5 -2.5855 1.65662   1
   0   0  -5 0.45803 1.61383   1
   0   0   5 -1.7783 1.36156   1
   0   0  -5 6.48476 1.51795   3
  -1   0  -5 -0.4549 1.09371   3
   1   0   5 -0.3750 1.62837   1
  -1   0  -5 1.62135 1.64761   1
   1   0   5 0.71032 1.33342   3
   2   0   5 -0.0535 1.65865   1
  -2   0  -5 -0.9607 1.61855   1
   2   0   5 -1.1762 1.04622   3
  -2   0  -5 -1.0200 1.04519   3
   3   0   5 4.24921 2.01151   1
  -3   0  -5 -0.4517 1.55250   1
  -3   0  -5 -0.6395 1.10750   3
   3   0   5 -1.4051 1.11772   3
  -4   0  -5 1.14070 1.18940   3
   4   0   5 -0.2089 1.25359   3
   4   0   5 -1.0899 1.72090   1
  -4   0  -5 8.47032 2.45965   1
  -5   0  -5 0.36940 1.95913   1
  -5   0  -5 0.66790 2.11949   1
   5   0   5 -1.6722 1.21172   3
   5   0   5 1.51045 2.29750   1
  -5   0  -5 -2.0568 1.39327   3
  -6   0  -5 -0.4901 1.38185   3
  -6   0  -5 -2.4702 1.95930   1
  -6   0  -5 -0.1281 2.23426   1
   6   0   5 -1.6345 1.44111   3
   6   0   5 -0.6273 2.34303   1
  -7   0  -5 -0.9666 2.29269   1
   7   0   5 -2.1334 2.10788   1
   7   0   5 -2.3532 1.47222   3
  -7   0  -5 -1.3796 1.54174   3
  -8   0  -5 -0.7880 1.62753   3
   8   0   5 -1.4418 2.61108   1
   8   0   5 -0.8812 1.68351   3
  -8   0  -5 -0.5842 2.40947   1
   9   0   5 0.52681 1.75263   3
   9   0   5 3.75994 3.15981   1
  -9   0  -5 4.52064 2.29898   3
  -9   0  -5 1.74643 2.83380   1
  10   0   5 0.76943 2.07903   3
 -10   0  -5 0.00445 1.80784   3
 -10   0  -5 -3.4316 2.48432   1
  10   0   5 -1.3336 3.00082   1
 -11   0  -5 3.82924 2.71486   3
  11   0   5 -0.1391 2.10585   3
  11   0   5 -0.9803 3.15924   1
 -11   0  -5 0.38333 3.29101   1
  12   0   5 -3.3763 2.17840   3
 -12   0  -5 -2.7799 3.56764   1
  12   0   5 -7.4654 3.43425   1
 -12   0  -5 1.43726 2.84225   3
 -13   0  -5 -0.3213 4.49643   1
 -13   0  -5 0.90414 2.63698   3
  13   0   5 2.10913 4.87903   1
 -14   0  -5 -1.2016 4.77640   1
  14   0   5 4.23992 5.00013   1
 -14   0  -5 1.85156 3.12741   3
 -15   0  -5 0.91189 4.74049   1
  15   0   5 6.20445 5.09895   1
 -16   0  -5 10.5336 5.70674   1
  16   0   5 4.35056 5.68295   1
  17   0   5 6.29882 5.66323   1
 -17   0  -5 -2.4806 4.81870   1
  18   0   5 -1.1282 5.24325   1
 -18   0  -5 2.24605 6.79461   1
  19   0   5 -4.3340 5.27562   1
  20   0   5 -9.6584 5.45428   1
  22  -1  -5 26.1057 9.13940   1
 -22  -1   5 24.5577 9.50817   2
  22   1  -5 13.0759 8.49098   1
 -21  -1   5 4.79670 6.25062   1
 -21  -1   5 -0.7097 6.69685   2
  21  -1  -5 3.14668 6.55088   1
  21   1  -5 6.53119 6.39468   1
  20  -1  -5 16.0217 7.08185   1
 -20  -1   5 19.0785 5.08991   3
 -20  -1   5 32.5313 7.94441   1
 -20  -1   5 31.3259 9.47435   2
  20   1  -5 8.99301 6.27118   1
 -19  -1   5 4.73476 6.87906   2
 -19  -1   5 3.64741 5.47941   1
  19  -1  -5 2.38191 5.52227   1
 -19  -1   5 1.45173 3.23482   3
  19   1  -5 3.57585 4.98974   1
 -18  -1   5 202.107 13.4402   1
 -18  -1   5 208.860 10.8427   3
  18  -1  -5 224.665 14.3829   1
 -18  -1   5 209.510 17.2518   2
  18   1  -5 196.378 13.5290   1
 -17  -1   5 243.069 11.1643   3
  17  -1  -5 252.427 14.4313   1
 -17  -1   5 246.940 17.2122   2
 -17  -1   5 232.460 13.9007   1
  17   1  -5 249.944 14.0327   1
 -16  -1   5 38.5988 9.33113   2
 -16  -1   5 34.5207 5.08640   3
  16  -1  -5 39.5945 7.33814   1
 -16  -1   5 32.9703 6.68146   1
  16   1  -5 34.0068 6.83080   1
 -16   1   5 32.9316 6.30595   1
 -15  -1   5 754.649 22.6178   1
 -15  -1   5 730.074 27.1439   2
  15  -1  -5 768.492 23.0357   1
 -15  -1   5 758.655 19.2645   3
 -15   1   5 707.011 20.3949   1
  15   1  -5 772.208 22.8846   1
 -14  -1   5 889.054 24.1326   1
  14  -1  -5 904.209 24.2960   1
 -14  -1   5 845.651 28.2400   2
 -14  -1   5 892.653 20.7748   3
  14   1  -5 886.615 23.9915   1
 -14   1   5 897.346 22.4697   1
  13  -1  -5 124.942 8.97676   1
 -13  -1   5 122.754 8.97288   1
 -13  -1   5 128.130 11.0007   2
 -13  -1   5 125.934 7.02803   3
 -13   1   5 125.777 7.99306   1
  13   1  -5 120.051 8.83872   1
 -12  -1   5 51.3182 6.39598   1
 -12  -1   5 41.9088 4.40695   3
  12  -1  -5 42.2196 5.63976   1
 -12  -1   5 56.6222 8.30454   2
 -12   1   5 59.0284 5.92966   1
  12   1  -5 39.6343 5.76812   1
 -11  -1   5 355.281 12.7633   1
  11  -1  -5 361.072 12.9073   1
 -11  -1   5 366.240 15.8524   2
 -11  -1   5 365.834 10.9107   3
  11   1  -5 374.522 13.0755   1
 -11   1   5 362.825 11.8197   1
  10  -1  -5 2.40956 2.93640   1
 -10  -1   5 -0.8693 2.65245   1
 -10  -1   5 1.16033 3.43379   2
 -10  -1   5 0.54328 1.57216   3
  10   1  -5 -2.9731 2.38218   1
 -10   1   5 -1.5271 2.18006   1
  -9  -1   5 12.0282 2.59425   3
   9  -1  -5 22.2705 3.82587   1
  -9  -1   5 16.4730 3.69393   1
  -9  -1   5 19.7772 4.86090   2
   9   1  -5 19.4446 3.68204   1
  -9   1   5 17.7265 3.20725   1
   8  -1  -5 174.886 7.76527   1
  -8  -1   5 186.657 8.15982   1
  -8  -1   5 182.409 6.54181   3
  -8  -1   5 170.824 9.34102   2
  -8   1   5 178.831 7.02247   1
   8   1  -5 187.711 8.05995   1
   7  -1  -5 1458.46 27.2949   1
  -7  -1   5 1543.75 31.2757   2
  -7  -1   5 1489.22 25.3162   3
  -7  -1   5 1521.50 27.8509   1
  -7   1   5 1511.88 26.2392   1
   7   1  -5 1508.80 27.6633   1
  -6  -1   5 53.6542 5.40312   2
  -6  -1   5 58.0171 3.47065   3
   6  -1  -5 60.8126 4.58846   1
  -6  -1   5 46.6692 4.19216   1
  -6   1   5 58.5956 3.96064   1
   5  -1  -5 171.272 6.37908   1
  -5  -1   5 175.452 5.40700   3
  -5  -1   5 182.921 8.25163   2
  -5  -1   5 178.870 6.71474   1
   5   1  -5 180.848 6.69564   1
  -5   1   5 169.904 5.77516   1
  -4  -1   5 9633.32 137.452   2
  -4  -1   5 9344.17 133.987   1
   4  -1  -5 9415.24 133.501   1
   4   1  -5 9578.83 133.983   1
  -4   1   5 9572.55 132.598   1
   3  -1  -5 4717.68 68.3469   1
  -3  -1   5 4712.37 66.7411   3
  -3  -1   5 4697.27 68.7477   1
  -3  -1   5 4623.34 66.5225   3
  -3  -1   5 4775.30 71.8410   2
  -3   1   5 4792.19 67.4939   1
   3   1  -5 4661.54 68.4772   1
  -2  -1   5 3903.16 55.7461   3
  -2  -1   5 3917.81 57.7427   1
  -2  -1   5 3852.70 55.5715   3
  -2  -1   5 3928.46 60.4411   2
   2  -1  -5 3929.94 57.4838   1
   2   1  -5 3981.52 57.5165   1
  -2   1   5 3980.42 56.7261   1
   0  -1   5 1693.54 25.4220   3
   0  -1   5 1685.87 27.4713   1
   0  -1  -5 1721.72 27.5390   1
   0  -1  -5 1691.66 26.1372   2
   0  -1   5 1669.70 30.0241   2
   0  -1   5 1738.72 25.4040   3
   0   1   5 1709.06 26.9481   1
   0   1  -5 1737.17 27.2072   1
   1  -1   5 1981.36 29.3025   3
  -1  -1  -5 1936.90 31.5543   1
   1  -1   5 2000.26 31.6039   1
   1  -1   5 1996.45 34.6397   2
  -1   1  -5 1954.31 31.1463   1
   1   1   5 2031.28 31.3089   1
  -2  -1  -5 1208.97 21.8245   1
   2  -1   5 1226.02 19.3701   3
   2  -1   5 1253.36 21.7590   1
  -2  -1  -5 1216.89 19.6695   3
  -2   1  -5 1246.60 21.3941   1
   2   1   5 1247.60 21.5777   1
  -3  -1  -5 7017.34 101.170   1
   3  -1   5 7084.56 100.754   1
   3  -1   5 6996.75 97.7822   3
  -3  -1  -5 6907.58 98.3663   3
  -3   1  -5 6935.48 100.065   1
   3   1   5 7115.82 100.613   1
   4  -1   5 626.792 14.2674   1
   4  -1   5 643.118 12.0060   3
  -4  -1  -5 627.901 14.6806   1
  -4  -1  -5 641.408 12.5381   3
   4   1   5 623.207 14.1549   1
  -4   1  -5 627.976 13.7950   1
  -4   1  -5 643.561 13.9248   1
  -5  -1  -5 3755.04 59.0283   1
   5  -1   5 3770.63 55.0037   3
  -5  -1  -5 3715.23 55.8354   3
   5  -1   5 3848.41 58.6057   1
  -5   1  -5 3792.70 57.7701   1
   5   1   5 3707.00 58.2435   1
  -6  -1  -5 170.988 6.24409   3
   6  -1   5 161.724 5.56994   3
  -6  -1  -5 155.205 7.41922   1
  -6  -1  -5 153.231 7.30412   1
   6  -1   5 148.881 7.30414   1
  -6   1  -5 164.774 7.11660   1
   6   1   5 150.354 7.37654   1
  -7  -1  -5 206.522 9.08082   1
   7  -1   5 209.208 6.67077   3
   7  -1   5 220.313 9.11248   1
  -7  -1  -5 211.832 7.41085   3
  -7  -1  -5 207.705 8.98766   1
   7   1   5 217.392 8.93760   1
  -7   1  -5 210.749 8.43880   1
  -8  -1  -5 302.797 9.36312   3
  -8  -1  -5 288.234 11.2288   1
   8  -1   5 304.104 8.57347   3
   8  -1   5 310.097 11.2424   1
  -8   1  -5 307.995 10.6820   1
   8   1   5 304.058 11.2215   1
   9  -1   5 163.084 6.43353   3
   9  -1   5 159.251 8.91993   1
  -9  -1  -5 144.736 6.87244   3
  -9  -1  -5 150.908 8.89484   1
   9   1   5 157.153 8.75741   1
  -9   1  -5 163.234 8.28992   1
 -10  -1  -5 73.7541 7.50085   1
  10  -1   5 62.4614 4.62942   3
  10  -1   5 59.0537 6.84989   1
 -10  -1  -5 73.8771 6.09116   3
  10   1   5 58.3554 6.66616   1
 -10   1  -5 70.5501 6.65330   1
 -10   1  -5 61.3641 5.39801   3
  11  -1   5 398.288 14.9674   1
  11  -1   5 401.278 11.2005   3
 -11  -1  -5 386.673 12.1974   3
 -11  -1  -5 393.528 14.9654   1
 -11   1  -5 396.511 12.6180   3
 -11   1  -5 388.007 13.9823   1
  11   1   5 369.788 14.6066   1
 -12  -1  -5 260.710 10.4148   3
  12  -1   5 264.900 9.40985   3
 -12  -1  -5 257.065 12.8376   1
  12  -1   5 288.174 13.3630   1
 -12   1  -5 254.689 12.0081   1
  12   1   5 242.937 12.5042   1
 -13  -1  -5 8.87879 3.41266   3
  13  -1   5 3.80579 5.09525   1
  13  -1   5 3.37149 2.66439   3
 -13  -1  -5 1.58042 4.51207   1
  13   1   5 12.7709 5.02380   1
 -13   1  -5 6.50672 4.47850   1
  14  -1   5 -5.8758 4.58505   1
  14  -1   5 -0.2246 2.56065   3
 -14  -1  -5 -2.6469 2.56990   3
 -14  -1  -5 0.13219 4.73331   1
 -14   1  -5 -6.8706 3.91439   1
  14   1   5 -4.8934 4.31283   1
  15  -1   5 149.977 7.86070   3
 -15  -1  -5 142.019 9.01218   3
 -15  -1  -5 121.805 10.9717   1
  15  -1   5 129.855 11.7385   1
  15   1   5 159.501 11.8600   1
  16  -1   5 18.0244 6.60327   1
  16  -1   5 13.6022 3.58156   3
 -16  -1  -5 5.74438 5.52352   1
 -16  -1  -5 11.0866 3.83108   3
  16   1   5 12.4232 5.71181   1
  17  -1   5 34.1720 7.98124   1
 -17  -1  -5 21.0772 4.53877   3
  17  -1   5 20.7549 4.07471   3
 -17  -1  -5 17.9343 6.73126   1
  17   1   5 19.0596 6.67799   1
 -18  -1  -5 8.60455 5.97739   1
 -18  -1  -5 5.00608 3.83239   3
  18  -1   5 -2.8785 5.85069   1
  18  -1   5 -1.1083 3.00873   3
  18   1   5 5.02777 6.01230   1
 -19  -1  -5 -2.6375 5.59552   1
 -19  -1  -5 4.50505 3.86799   3
  19  -1   5 -1.9149 6.54575   1
  19   1   5 -8.0626 5.24656   1
 -21  -2   5 15.3200 4.67409   3
 -21  -2   5 16.5083 7.98193   2
 -21  -2   5 17.0678 7.08429   1
  21  -2  -5 20.9405 8.04447   1
 -20  -2   5 3.06654 5.74438   1
 -20  -2   5 3.04284 3.27841   3
  20  -2  -5 4.80048 6.21923   1
 -20  -2   5 -4.9499 5.48809   2
 -19  -2   5 -3.0476 4.81734   1
 -19  -2   5 -1.5303 5.61425   2
 -19  -2   5 0.35024 3.02588   3
  19  -2  -5 4.83935 6.00492   1
 -18  -2   5 -1.7369 5.22010   1
  18  -2  -5 -6.0115 4.77279   1
 -18  -2   5 -0.3978 2.68436   3
 -18  -2   5 -2.8799 5.27237   2
 -17  -2   5 21.5805 8.16992   2
  17  -2  -5 28.9608 6.94640   1
 -17  -2   5 10.7382 3.70475   3
 -17  -2   5 11.1239 6.01016   1
  17   2  -5 28.7121 6.71451   1
  16  -2  -5 53.3735 7.95708   1
 -16  -2   5 52.6978 5.68392   3
 -16  -2   5 39.1433 7.26519   1
 -16  -2   5 49.2742 9.30835   2
  16   2  -5 45.6007 7.36762   1
 -15  -2   5 337.822 15.5572   1
 -15  -2   5 327.500 11.5011   3
 -15  -2   5 320.745 18.4345   2
  15  -2  -5 328.848 15.2597   1
  15   2  -5 306.843 14.2605   1
 -14  -2   5 40.5533 8.87485   2
 -14  -2   5 53.4566 7.92431   1
 -14  -2   5 46.4385 4.90281   3
  14  -2  -5 54.4093 7.40983   1
  14   2  -5 55.1813 7.24958   1
 -13  -2   5 226.766 8.92498   3
 -13  -2   5 229.086 12.2403   1
  13  -2  -5 237.987 12.2572   1
 -13  -2   5 251.099 15.9425   2
  13   2  -5 231.750 11.4250   1
 -12  -2   5 277.532 15.4858   2
  12  -2  -5 271.406 12.0274   1
 -12  -2   5 270.258 9.24926   3
 -12  -2   5 280.433 12.8128   1
  12   2  -5 284.285 11.9320   1
 -12   2   5 285.032 10.2660   1
  11  -2  -5 17.4255 4.33286   1
 -11  -2   5 14.5803 4.99627   2
 -11  -2   5 12.0635 4.22385   1
 -11  -2   5 18.4171 3.04236   3
 -11   2   5 14.3163 3.28351   1
  11   2  -5 12.9384 4.01151   1
 -10  -2   5 770.338 20.0771   1
 -10  -2   5 738.594 23.7337   2
 -10  -2   5 785.460 16.0657   3
  10  -2  -5 806.288 19.5022   1
  10   2  -5 811.470 19.5857   1
 -10   2   5 802.623 16.9340   1
  -9  -2   5 206.783 9.43480   1
  -9  -2   5 198.712 6.62016   3
  -9  -2   5 201.687 11.7054   2
   9  -2  -5 203.373 8.90184   1
   9   2  -5 195.355 8.64063   1
  -8  -2   5 356.429 8.64285   3
   8  -2  -5 362.711 11.1696   1
  -8  -2   5 367.584 15.2252   2
  -8  -2   5 362.951 11.9177   1
   8   2  -5 349.412 11.0066   1
  -7  -2   5 365.497 8.26539   3
  -7  -2   5 376.156 11.5239   1
  -7  -2   5 394.356 15.2238   2
  -7  -2   5 373.508 8.24606   3
   7  -2  -5 349.222 10.4126   1
   7   2  -5 369.182 10.7934   1
  -6  -2   5 85.1831 7.80579   2
  -6  -2   5 91.9380 5.69881   1
  -6  -2   5 86.4004 3.22434   3
   6  -2  -5 86.9424 5.03798   1
  -6  -2   5 85.0878 3.19730   3
   6   2  -5 93.2756 5.13020   1
  -5  -2   5 19.7582 3.04985   1
  -5  -2   5 16.0277 4.42034   2
   5  -2  -5 14.1917 2.51334   1
   5   2  -5 16.4453 2.63258   1
  -4  -2   5 -0.0521 2.00492   1
   4  -2  -5 0.78563 1.68965   1
  -4  -2   5 12.8868 4.13010   2
   4   2  -5 0.77839 1.69350   1
  -3  -2   5 4660.38 75.1910   2
   3  -2  -5 4684.82 67.0086   1
   3  -2  -5 4566.39 68.3453   2
   3  -2  -5 4643.22 67.1009   1
  -3  -2   5 4720.46 68.4581   1
   2  -2  -5 442.654 10.5255   2
   2  -2  -5 435.534 9.32007   1
  -2  -2   5 475.971 10.5491   1
  -2  -2   5 452.452 14.4650   2
   2  -2  -5 454.253 9.66063   1
   1  -2  -5 2954.46 45.8402   2
   1  -2  -5 3053.10 45.4690   1
   1  -2  -5 3016.04 44.4027   1
  -1  -2   5 2942.06 44.9163   1
  -1  -2   5 2961.01 51.5407   2
   0  -2   5 995.298 23.1076   2
   0  -2   5 993.782 17.6290   1
   0  -2  -5 954.297 18.8414   2
   0  -2  -5 953.301 17.2193   1
  -1  -2  -5 1606.35 28.9299   2
   1  -2   5 1611.65 26.6676   1
  -1  -2  -5 1630.81 26.8131   1
   1  -2   5 1640.36 32.9077   2
   2  -2   5 1270.49 22.0393   1
   2  -2   5 1230.26 27.6996   2
  -2  -2  -5 1259.29 22.4055   1
  -2  -2  -5 1250.17 24.6553   2
  -3  -2  -5 1114.00 23.7463   2
  -3  -2  -5 1094.29 21.1232   1
   3  -2   5 1099.78 26.1632   2
   3  -2   5 1138.17 20.6651   1
  -4  -2  -5 1687.59 33.3216   2
  -4  -2  -5 1711.17 30.5530   1
   4  -2   5 1754.49 29.8151   1
   4   2   5 1739.35 29.0535   1
  -5  -2  -5 266.069 11.4922   2
   5  -2   5 281.898 9.20749   1
  -5  -2  -5 269.948 9.69610   1
   5   2   5 277.638 8.80355   1
   6  -2   5 2.33464 2.47867   1
  -6  -2  -5 1.50799 3.57374   2
  -6  -2  -5 1.28272 2.44655   1
  -6  -2  -5 3.99657 1.45129   3
  -6   2  -5 3.90124 2.08412   1
   6   2   5 3.37870 2.36020   1
  -7  -2  -5 1539.11 30.4702   1
  -7  -2  -5 1541.32 25.2475   3
   7  -2   5 1544.06 29.5600   1
  -7  -2  -5 1490.75 34.3862   2
  -7  -2  -5 1541.38 30.4122   1
   7   2   5 1495.97 28.8669   1
  -7   2  -5 1554.08 27.2002   1
  -8  -2  -5 446.727 18.1936   2
   8  -2   5 425.870 13.6881   1
  -8  -2  -5 431.949 10.4690   3
  -8  -2  -5 438.631 14.3462   1
  -8   2  -5 429.990 11.9084   1
   8   2   5 420.582 13.1558   1
  -9  -2  -5 -3.4124 5.72165   2
  -9  -2  -5 -0.2058 1.83603   3
   9  -2   5 1.77091 3.34419   1
  -9  -2  -5 -1.0456 3.37640   1
   9   2   5 -1.9084 2.76877   1
  -9   2  -5 0.26924 2.58454   1
 -10  -2  -5 46.5009 6.67777   1
 -10  -2  -5 28.9885 8.83205   2
 -10  -2  -5 31.9310 3.80391   3
  10  -2   5 43.7310 6.11203   1
 -10   2  -5 39.0670 4.97373   1
  10   2   5 34.7180 5.47344   1
  11  -2   5 136.061 4.25733   3
  11  -2   5 128.250 9.78628   1
 -11  -2  -5 131.836 6.86666   3
 -11  -2  -5 142.472 10.1869   1
 -11  -2  -5 111.895 12.8108   2
  11   2   5 135.875 9.19304   1
 -12  -2  -5 16.7788 8.72632   2
  12  -2   5 25.9875 2.46623   3
  12  -2   5 23.3611 5.93941   1
 -12  -2  -5 23.6430 3.98894   3
 -12  -2  -5 13.0481 5.30748   1
  12   2   5 15.7218 5.14344   1
  13  -2   5 635.387 20.5905   1
 -13  -2  -5 578.031 26.3795   2
 -13  -2  -5 601.384 15.9857   3
 -13  -2  -5 588.494 20.7454   1
  13   2   5 613.837 19.7169   1
 -14  -2  -5 203.838 20.1325   2
 -14  -2  -5 212.323 13.5120   1
 -14  -2  -5 209.436 9.58652   3
  14  -2   5 236.209 13.5891   1
  14   2   5 204.540 12.6110   1
 -15  -2  -5 -7.1667 9.54915   2
 -15  -2  -5 -2.1580 5.04651   1
  15  -2   5 -0.5593 4.95142   1
 -15  -2  -5 2.10832 3.04597   3
 -16  -2  -5 -2.8730 5.40085   1
 -16  -2  -5 -1.8867 10.0168   2
  16  -2   5 -4.2428 5.02207   1
 -16  -2  -5 -3.2627 2.61793   3
 -17  -2  -5 131.288 8.88523   3
 -17  -2  -5 119.318 17.8190   2
 -17  -2  -5 127.998 12.4412   1
  17  -2   5 121.773 12.7713   1
 -18  -2  -5 -1.4213 3.07237   3
 -18  -2  -5 5.15526 10.2651   2
  18  -2   5 0.10709 5.87715   1
 -18  -2  -5 3.61739 6.01052   1
 -19  -2  -5 3.86203 5.90413   1
 -19  -2  -5 -8.8116 7.96238   2
 -19  -2  -5 2.96295 3.55816   3
  19  -2   5 8.82083 7.15750   1
 -20  -3   5 4.06421 3.23247   3
 -20  -3   5 8.16723 7.25505   1
 -20  -3   5 7.56910 7.48484   2
  20  -3  -5 -1.4288 6.06265   1
  19  -3  -5 -1.2654 5.58661   1
 -19  -3   5 4.28745 6.74913   2
 -19  -3   5 9.46072 6.33157   1
 -19  -3   5 -1.9979 2.54899   3
 -18  -3   5 1.84281 6.09728   2
  18  -3  -5 0.50783 5.51047   1
 -18  -3   5 0.47468 5.62265   1
 -18  -3   5 3.52810 2.60833   3
 -17  -3   5 -2.3472 5.34332   1
 -17  -3   5 3.60812 2.60246   3
  17  -3  -5 -0.2588 5.23497   1
 -17  -3   5 0.19404 6.03348   2
  16  -3  -5 21.0627 6.27320   1
 -16  -3   5 10.0073 7.15437   2
 -16  -3   5 13.6414 2.96904   3
 -16  -3   5 11.4401 5.87343   1
  15  -3  -5 62.9328 8.23196   1
 -15  -3   5 88.1618 10.0758   1
 -15  -3   5 90.2403 5.37774   3
 -15  -3   5 84.7534 11.9073   2
 -14  -3   5 11.6842 2.41585   3
  14  -3  -5 6.68862 5.06020   1
 -14  -3   5 6.80890 5.20309   1
 -14  -3   5 2.03028 5.29693   2
 -13  -3   5 22.6974 7.79923   2
 -13  -3   5 18.2927 2.51963   3
  13  -3  -5 12.7315 5.03914   1
 -13  -3   5 8.17495 5.16213   1
 -12  -3   5 -4.9192 5.52552   2
 -12  -3   5 2.63573 1.55965   3
 -12  -3   5 -1.9981 4.44808   1
  12  -3  -5 -0.9768 4.17834   1
 -12  -3   5 3.97787 1.51249   3
 -11  -3   5 -3.2602 3.96523   1
  11  -3  -5 -5.7645 3.24354   1
 -11  -3   5 -2.2904 4.77361   2
 -10  -3   5 -1.5333 3.40010   1
 -10  -3   5 -2.1215 4.70895   2
  10  -3  -5 -2.9646 2.75447   1
  10   3  -5 2.06237 2.83535   1
  -9  -3   5 230.200 10.7059   1
  -9  -3   5 250.708 15.0114   2
   9  -3  -5 241.431 9.62152   1
   9   3  -5 241.154 8.99702   1
  -8  -3   5 4.63900 4.66828   2
   8  -3  -5 0.79098 2.43992   1
  -8  -3   5 0.20038 3.02102   1
  -7  -3   5 4.07131 2.95187   1
  -7  -3   5 -2.1522 3.42343   2
   7  -3  -5 3.45010 3.19645   1
   7  -3  -5 1.92951 2.41461   1
   6  -3  -5 -0.6239 1.64340   1
  -6  -3   5 -0.2012 3.66314   2
   6  -3  -5 -5.6374 1.69485   1
  -6  -3   5 -1.6151 2.26735   1
  -5  -3   5 63.1469 5.13497   1
   5  -3  -5 60.5675 3.73710   1
  -5  -3   5 53.6817 7.28714   2
   5  -3  -5 60.9522 4.01533   1
  -4  -3   5 435.905 11.3221   1
   4  -3  -5 446.954 9.41084   1
  -4  -3   5 438.272 17.1301   2
   4  -3  -5 414.838 12.9921   2
   4  -3  -5 424.116 9.62995   1
   3  -3  -5 221.066 9.26640   2
   3  -3  -5 225.303 5.95382   1
  -3  -3   5 221.746 7.47376   1
   3  -3  -5 229.965 6.22177   1
  -3  -3   5 241.436 12.1692   2
   2  -3  -5 631.965 11.8091   1
  -2  -3   5 658.233 20.4637   2
  -2  -3   5 646.873 13.3993   1
   2  -3  -5 638.177 16.3425   2
  -2  -3   5 626.734 13.3521   1
   2  -3  -5 630.332 12.0335   1
  -1  -3   5 200.021 6.46741   1
  -1  -3   5 188.356 10.8409   2
   1  -3  -5 208.074 8.91047   2
  -1  -3   5 200.121 6.37461   1
   1  -3  -5 200.353 5.70310   1
   1  -3  -5 207.924 5.88543   1
   0  -3  -5 296.288 7.55260   1
   0  -3  -5 277.453 10.6445   2
   0  -3   5 285.744 7.65039   1
   0  -3   5 276.643 13.2519   2
   0  -3   5 287.973 7.76761   1
   0  -3  -5 276.691 7.29108   1
   1  -3   5 3.49718 1.64072   1
  -1  -3  -5 3.01043 2.83894   2
  -1  -3  -5 6.23556 1.94008   1
  -1  -3  -5 2.97477 1.74297   1
   1  -3   5 5.62619 4.04009   2
   1  -3   5 4.62394 1.88059   1
   2  -3   5 24.1400 2.95447   1
  -2  -3  -5 28.5963 3.27736   1
  -2  -3  -5 31.4143 4.87196   2
   2  -3   5 27.7959 5.54253   2
   2  -3   5 25.3730 2.84789   1
  -3  -3  -5 473.665 15.8660   2
   3  -3   5 523.851 18.6232   2
   3  -3   5 502.597 11.9599   1
   3  -3   5 495.065 11.7927   1
  -3  -3  -5 528.404 12.8777   1
  -4  -3  -5 207.877 10.8133   2
   4  -3   5 202.451 7.46048   1
   4  -3   5 201.893 12.4363   2
  -4  -3  -5 207.142 8.26776   1
  -5  -3  -5 450.459 16.4925   2
   5  -3   5 457.397 12.2851   1
  -5  -3  -5 451.374 13.2558   1
   6  -3   5 7.11620 2.98680   1
  -6  -3  -5 10.4607 4.47974   2
  -6  -3  -5 4.88994 3.04652   1
   7  -3   5 6.83658 3.30792   1
  -7  -3  -5 7.00320 3.47035   1
  -7  -3  -5 7.49496 4.45281   2
  -7  -3  -5 1.38036 3.03079   1
  -8  -3  -5 24.2524 5.07673   1
   8  -3   5 27.4369 4.91831   1
  -8  -3  -5 32.4131 6.95196   2
  -8  -3  -5 29.7042 5.13727   1
  -9  -3  -5 2.35232 3.91861   1
  -9  -3  -5 -2.3665 4.33541   2
   9  -3   5 -2.7096 3.44032   1
 -10  -3  -5 70.7960 8.11202   1
 -10  -3  -5 84.0626 10.8775   2
  10  -3   5 64.2133 7.27962   1
  11  -3   5 89.0315 8.47087   1
 -11  -3  -5 95.4943 11.8627   2
 -11  -3  -5 83.0838 8.87507   1
  12  -3   5 161.351 10.8735   1
 -12  -3  -5 160.262 5.64795   3
 -12  -3  -5 176.682 12.3486   1
 -12  -3  -5 163.469 15.1493   2
  13  -3   5 73.6513 8.92772   1
 -13  -3  -5 52.6439 8.23599   1
 -13  -3  -5 57.6834 4.24122   3
 -13  -3  -5 60.5744 10.7078   2
  14  -3   5 86.5150 9.60841   1
 -14  -3  -5 97.4068 10.1688   1
 -14  -3  -5 94.4504 13.7571   2
 -14  -3  -5 102.243 5.54656   3
 -15  -3  -5 9.44708 2.81797   3
  15  -3   5 0.66525 5.23530   1
 -15  -3  -5 4.49083 5.51782   1
 -15  -3  -5 6.52981 7.02469   2
  16  -3   5 3.47658 5.44384   1
 -16  -3  -5 -0.2004 2.26870   3
 -16  -3  -5 9.35204 6.53844   2
 -16  -3  -5 3.38719 5.52127   1
  17  -3   5 58.3321 9.58356   1
 -17  -3  -5 42.6892 4.78880   3
 -17  -3  -5 54.5115 12.2788   2
 -17  -3  -5 49.2655 9.58963   1
  18  -3   5 -2.8187 6.33926   1
 -18  -3  -5 6.47377 6.95567   1
 -18  -3  -5 18.3514 8.77809   2
 -18  -3  -5 1.04813 2.77048   3
 -18  -4   5 -4.5718 5.31588   1
  18  -4  -5 -0.3193 5.12081   1
 -18  -4   5 5.89257 7.33855   2
 -17  -4   5 1.21038 5.75406   1
  17  -4  -5 -1.8747 4.89993   1
 -17  -4   5 8.09292 6.81029   2
 -16  -4   5 15.7666 6.22055   1
 -16  -4   5 9.68820 7.72344   2
  16  -4  -5 6.05643 5.29367   1
 -15  -4   5 171.586 17.0774   2
  15  -4  -5 165.406 11.7382   1
 -15  -4   5 159.942 12.4725   1
 -14  -4   5 68.4565 11.9892   2
 -14  -4   5 58.7490 8.28960   1
  14  -4  -5 63.8682 7.89431   1
 -13  -4   5 3.99173 6.75609   2
 -13  -4   5 0.31558 4.55755   1
  13  -4  -5 -2.0267 3.96675   1
  12  -4  -5 241.051 11.7461   1
 -12  -4   5 232.216 17.7314   2
 -12  -4   5 228.153 12.7404   1
 -11  -4   5 -5.2538 5.50461   2
 -11  -4   5 4.35353 4.55461   1
  11  -4  -5 -5.2741 3.19634   1
  10  -4  -5 18.7848 4.38685   1
 -10  -4   5 30.0902 8.69087   2
 -10  -4   5 23.4109 5.45374   1
   9  -4  -5 440.159 13.2651   1
  -9  -4   5 470.797 22.0522   2
  -9  -4   5 427.589 15.1565   1
  -8  -4   5 287.771 17.2587   2
  -8  -4   5 258.186 11.3429   1
   8  -4  -5 277.853 9.78061   1
  -7  -4   5 34.6807 8.11917   2
   7  -4  -5 31.0738 3.90250   1
   7  -4  -5 28.7982 3.55202   1
  -7  -4   5 30.8028 4.74561   1
   6  -4  -5 99.4118 5.35675   1
  -6  -4   5 122.259 11.2490   2
   6  -4  -5 103.955 5.05936   1
  -6  -4   5 107.988 7.09512   1
  -5  -4   5 76.2754 5.88551   1
   5  -4  -5 84.2298 4.54735   1
   5  -4  -5 83.8130 8.28289   2
   5  -4  -5 80.4425 4.13129   1
  -5  -4   5 74.9048 10.3112   2
   4  -4  -5 123.682 4.92745   1
  -4  -4   5 134.496 6.48470   1
  -4  -4   5 136.445 6.79444   1
   4  -4  -5 124.037 9.27432   2
   4  -4  -5 120.962 4.57128   1
  -4  -4   5 128.842 11.0675   2
  -3  -4   5 12.2227 2.75385   1
   3  -4  -5 10.0148 1.87749   1
  -3  -4   5 10.9293 2.84643   1
   3  -4  -5 10.3176 4.17739   2
  -3  -4   5 6.04757 5.40057   2
   3  -4  -5 12.4193 2.05576   1
   2  -4  -5 277.511 6.98892   1
   2  -4  -5 270.466 6.74892   1
  -2  -4   5 278.332 14.9437   2
   2  -4  -5 301.441 12.9123   2
  -2  -4   5 269.780 8.41348   1
  -2  -4   5 268.627 8.27365   1
  -1  -4   5 18.3279 2.84909   1
   1  -4  -5 29.6214 5.67903   2
   1  -4  -5 28.2093 2.70450   1
   1  -4  -5 27.8715 2.71418   1
  -1  -4   5 26.7829 6.34662   2
  -1  -4   5 27.1929 3.04957   1
   0  -4  -5 677.308 13.4304   1
   0  -4  -5 665.949 19.8985   2
   0  -4   5 648.871 13.6311   1
   0  -4   5 647.379 13.6742   1
   0  -4  -5 674.392 13.2185   1
   0  -4   5 638.410 22.8304   2
  -1  -4  -5 112.659 5.33068   1
  -1  -4  -5 121.032 9.16929   2
  -1  -4  -5 109.909 5.25610   1
   1  -4   5 111.435 11.5130   2
   1  -4   5 106.582 5.18468   1
   1  -4   5 99.3755 4.93982   1
  -2  -4  -5 54.9854 4.48023   1
  -2  -4  -5 53.5200 7.26947   2
  -2  -4  -5 47.0333 4.32005   1
   2  -4   5 49.3765 3.97392   1
   2  -4   5 50.0868 8.45947   2
   2  -4   5 50.9922 4.13616   1
  -3  -4  -5 219.304 12.7821   2
  -3  -4  -5 223.065 8.26810   1
   3  -4   5 214.914 7.61463   1
   3  -4   5 225.149 7.54914   1
   3  -4   5 207.236 13.6840   2
  -3  -4  -5 212.519 8.43206   1
  -4  -4  -5 102.218 9.97362   2
   4  -4   5 80.4433 10.1124   2
   4  -4   5 103.389 5.84813   1
   4  -4   5 99.1801 5.54426   1
  -4  -4  -5 104.978 6.81271   1
  -5  -4  -5 122.615 7.70725   1
  -5  -4  -5 130.484 10.9558   2
   5  -4   5 113.767 12.2673   2
   5  -4   5 149.372 7.18791   1
  -6  -4  -5 3.52901 5.11719   2
  -6  -4  -5 3.43547 3.25231   1
   6  -4   5 -0.9301 2.82762   1
   7  -4   5 346.097 12.0237   1
  -7  -4  -5 325.400 12.8941   1
  -7  -4  -5 343.711 13.3154   1
  -7  -4  -5 324.455 17.4025   2
  -8  -4  -5 154.183 14.1190   2
  -8  -4  -5 158.952 9.97740   1
   8  -4   5 160.170 9.23591   1
   9  -4   5 29.6491 5.40689   1
  -9  -4  -5 23.4061 5.63646   1
  -9  -4  -5 30.8657 8.99389   2
 -10  -4  -5 598.003 25.3950   2
  10  -4   5 632.064 18.9083   1
 -10  -4  -5 606.641 20.1778   1
  11  -4   5 -0.4194 3.75307   1
 -11  -4  -5 0.84082 6.28375   2
 -11  -4  -5 1.70719 4.13510   1
 -12  -4  -5 -0.4252 5.68696   2
  12  -4   5 -5.0573 4.01223   1
 -12  -4  -5 -9.2536 3.60443   1
  13  -4   5 -1.1023 4.22651   1
 -13  -4  -5 -2.3712 4.47782   1
 -13  -4  -5 6.84228 6.87833   2
 -14  -4  -5 26.4377 9.69091   2
 -14  -4  -5 7.21969 5.53494   1
  14  -4   5 10.3414 5.67646   1
  15  -4   5 35.5593 7.42392   1
 -15  -4  -5 30.5270 7.73636   1
 -15  -4  -5 41.5383 10.8355   2
  16  -4   5 -2.9274 5.10438   1
 -16  -4  -5 5.13686 6.35472   1
 -16  -4  -5 7.98518 7.35208   2
  16  -5  -5 -2.3342 4.94843   1
 -16  -5   5 5.49418 7.88636   2
 -16  -5   5 4.93048 5.93918   1
 -15  -5   5 13.6590 6.52938   1
  15  -5  -5 23.1698 6.12936   1
 -15  -5   5 21.5816 9.33853   2
 -14  -5   5 56.2413 8.49071   1
 -14  -5   5 63.3217 12.1298   2
  14  -5  -5 54.5607 7.62077   1
 -13  -5   5 -3.4249 6.03479   2
 -13  -5   5 5.17110 4.98284   1
  13  -5  -5 -2.1592 3.72224   1
 -12  -5   5 7.52218 4.72925   1
  12  -5  -5 2.78671 3.89459   1
 -12  -5   5 0.74699 5.62427   2
 -11  -5   5 67.3007 8.10427   1
  11  -5  -5 71.2891 7.12919   1
 -11  -5   5 59.4629 11.8460   2
 -10  -5   5 152.047 16.9365   2
  10  -5  -5 126.498 8.04666   1
 -10  -5   5 129.167 10.1629   1
  -9  -5   5 24.4693 8.03333   2
  -9  -5   5 37.9063 5.93392   1
   9  -5  -5 36.1573 4.82906   1
  -8  -5   5 119.337 8.83077   1
  -8  -5   5 101.612 13.3016   2
   8  -5  -5 115.140 6.74033   1
  -7  -5   5 111.230 13.5015   2
  -7  -5   5 132.640 8.65486   1
   7  -5  -5 122.937 6.30116   1
  -6  -5   5 13.9026 7.29902   2
   6  -5  -5 23.5020 3.20967   1
  -6  -5   5 16.4131 4.08742   1
   5  -5  -5 259.594 14.7896   2
   5  -5  -5 263.407 7.62364   1
  -5  -5   5 241.568 10.0104   1
  -5  -5   5 252.388 16.9042   2
   4  -5  -5 104.373 4.72126   1
   4  -5  -5 101.297 4.38884   1
  -4  -5   5 115.363 7.05632   1
  -4  -5   5 117.983 13.7673   2
   4  -5  -5 103.536 11.6159   2
   3  -5  -5 40.4085 8.08690   2
  -3  -5   5 44.1484 4.70411   1
  -3  -5   5 43.2211 9.40052   2
   3  -5  -5 41.5345 3.13152   1
   3  -5  -5 44.2239 3.34617   1
   2  -5  -5 408.872 9.05294   1
   2  -5  -5 398.228 17.8197   2
  -2  -5   5 388.798 11.2079   1
   2  -5  -5 416.337 9.31786   1
  -2  -5   5 427.929 21.3513   2
  -1  -5   5 681.361 14.9874   1
   1  -5  -5 684.195 13.4142   1
  -1  -5   5 681.288 26.3536   2
   1  -5  -5 703.913 23.6008   2
   1  -5  -5 673.056 13.5469   1
   0  -5  -5 2.25590 2.20836   1
   0  -5   5 1.34817 2.25056   1
   0  -5  -5 -1.7108 5.05563   2
   0  -5   5 11.7939 7.16418   2
   0  -5  -5 1.94891 3.28280   1
  -1  -5  -5 225.873 7.99184   1
   1  -5   5 219.072 7.68043   1
   1  -5   5 235.199 16.6930   2
  -1  -5  -5 226.529 14.6252   2
  -2  -5  -5 41.3502 8.54044   2
   2  -5   5 21.1218 7.68673   2
   2  -5   5 27.6253 3.57839   1
  -2  -5  -5 27.3701 3.88321   1
  -3  -5  -5 176.903 13.6562   2
   3  -5   5 138.530 6.60111   1
  -3  -5  -5 143.538 7.68239   1
   3  -5   5 132.353 13.2436   2
  -4  -5  -5 3.97481 3.14325   1
   4  -5   5 0.67964 2.53640   1
   4  -5   5 4.83646 6.69577   2
  -4  -5  -5 -2.0238 5.07206   2
   5  -5   5 184.474 8.31672   1
  -5  -5  -5 210.406 9.91183   1
   5  -5   5 182.023 15.9923   2
  -5  -5  -5 192.093 14.8082   2
  -6  -5  -5 53.5212 6.39668   1
   6  -5   5 50.7893 5.45979   1
  -6  -5  -5 77.7707 12.1867   2
  -6  -5  -5 52.5596 6.29606   1
  -7  -5  -5 13.0170 4.44139   1
  -7  -5  -5 18.2838 7.85964   2
   7  -5   5 15.7851 4.01700   1
   8  -5   5 44.4687 5.85684   1
  -8  -5  -5 25.9530 5.86688   1
  -8  -5  -5 31.8561 9.06610   2
   9  -5   5 45.7988 6.11180   1
  -9  -5  -5 37.7538 6.59776   1
  -9  -5  -5 71.5647 11.9345   2
  10  -5   5 -3.5635 3.57802   1
 -10  -5  -5 2.50357 4.38549   1
 -10  -5  -5 -3.2783 5.92134   2
 -11  -5  -5 -0.6843 6.57081   2
  11  -5   5 0.58144 3.89412   1
 -11  -5  -5 -3.2598 4.17939   1
 -12  -5  -5 7.50807 5.35950   1
 -12  -5  -5 22.5696 8.85344   2
  12  -5   5 17.0574 5.75871   1
 -13  -5  -5 0.90984 7.36616   2
 -13  -5  -5 -7.6496 4.65187   1
  13  -5   5 2.59230 5.16994   1
  14  -5   5 2.31066 5.15397   1
 -14  -5  -5 1.42870 9.32839   2
 -14  -5  -5 3.50721 5.83808   1
 -12  -6   5 1.77675 4.80339   1
  12  -6  -5 -3.2073 3.62969   1
 -12  -6   5 -5.1829 5.64922   2
  11  -6  -5 8.31167 4.14425   1
 -11  -6   5 20.0197 9.69331   2
 -11  -6   5 4.48184 4.66018   1
 -10  -6   5 44.2629 7.09563   1
 -10  -6   5 53.9856 11.8762   2
  10  -6  -5 50.8551 5.84886   1
   9  -6  -5 21.9599 4.09051   1
  -9  -6   5 37.1099 6.24124   1
  -9  -6   5 23.6066 9.30314   2
   8  -6  -5 -3.2925 2.48781   1
  -8  -6   5 -13.385 5.77912   2
  -8  -6   5 0.76291 3.64379   1
   7  -6  -5 19.7055 3.41946   1
  -7  -6   5 20.8405 4.89978   1
  -7  -6   5 30.2057 9.45384   2
   6  -6  -5 39.6977 3.89562   1
  -6  -6   5 40.1410 10.2731   2
  -6  -6   5 41.8148 5.79973   1
   5  -6  -5 31.3981 3.31760   1
  -5  -6   5 36.9350 5.29004   1
  -5  -6   5 34.4386 9.95520   2
   5  -6  -5 39.4748 10.1094   2
   4  -6  -5 14.7051 2.57437   1
  -4  -6   5 13.4567 7.98848   2
  -4  -6   5 9.80523 3.44204   1
   4  -6  -5 7.80330 7.11432   2
   3  -6  -5 83.7092 4.49296   1
  -3  -6   5 81.5936 12.7200   2
   3  -6  -5 105.052 13.2082   2
  -3  -6   5 86.2081 6.51215   1
   2  -6  -5 -3.1700 5.89593   2
   2  -6  -5 5.82227 2.19810   1
  -2  -6   5 -1.8222 6.56640   2
  -2  -6   5 4.31110 2.91072   1
   1  -6  -5 14.8579 7.72314   2
  -1  -6   5 12.3348 8.23745   2
  -1  -6   5 10.2427 3.06096   1
   1  -6  -5 10.6722 2.60574   1
   0  -6   5 4.80906 6.87518   2
   0  -6  -5 12.3307 7.56974   2
   0  -6   5 1.31597 2.57822   1
   0  -6  -5 1.79255 2.35504   1
  -1  -6  -5 171.454 16.9588   2
  -1  -6  -5 118.863 6.51493   1
   1  -6   5 97.2538 13.3249   2
   1  -6   5 109.481 6.21608   1
   2  -6   5 0.39175 6.96310   2
   2  -6   5 3.50781 2.64326   1
  -2  -6  -5 12.0783 8.62316   2
  -2  -6  -5 0.75764 2.83597   1
   3  -6   5 60.4026 5.12756   1
  -3  -6  -5 78.8913 12.1826   2
  -3  -6  -5 52.4965 5.55321   1
   3  -6   5 68.2257 13.0741   2
  -4  -6  -5 104.068 7.95587   1
  -4  -6  -5 91.7573 7.39646   1
   4  -6   5 100.166 6.53969   1
  -4  -6  -5 114.543 15.4994   2
   4  -6   5 114.980 15.5484   2
   5  -6   5 36.0774 9.77833   2
  -5  -6  -5 27.1501 5.11530   1
   5  -6   5 32.0702 4.57395   1
  -5  -6  -5 48.3602 11.8680   2
  -6  -6  -5 19.9503 9.81638   2
  -6  -6  -5 16.4353 5.01133   1
   6  -6   5 16.3410 4.01293   1
   7  -6   5 0.31679 3.35256   1
  -7  -6  -5 3.38270 4.26664   1
  -7  -6  -5 -2.5458 7.30489   2
   8  -6   5 33.5783 5.36417   1
  -8  -6  -5 46.1038 12.0677   2
  -8  -6  -5 19.5892 5.70134   1
  -9  -6  -5 0.04213 4.50420   1
  -9  -6  -5 9.94111 9.24189   2
   9  -6   5 3.70966 4.08020   1
  10  -6   5 -4.4763 3.88647   1
 -10  -6  -5 2.24658 4.69197   1
 -10  -6  -5 5.33805 8.62553   2
  -6  -7   5 5.08701 4.00907   1
  -6  -7   5 1.83286 9.01973   2
   6  -7  -5 5.85854 2.47000   1
   5  -7  -5 24.3602 2.98421   1
  -5  -7   5 32.6393 5.45377   1
  -5  -7   5 10.8702 8.85159   2
  -4  -7   5 75.7984 13.4713   2
  -4  -7   5 78.0323 7.12110   1
   4  -7  -5 147.782 17.6348   2
   3  -7  -5 -2.6184 1.84366   1
   3  -7  -5 15.5112 9.12231   2
  -3  -7   5 -0.4790 7.92109   2
  -3  -7   5 1.56403 3.19996   1
  -2  -7   5 13.5091 9.66628   2
  -2  -7   5 8.12227 3.54318   1
   2  -7  -5 38.3209 10.7763   2
   2  -7  -5 9.49642 2.67021   1
  -1  -7   5 95.3798 15.0570   2
  -1  -7   5 110.035 7.00041   1
   1  -7  -5 146.168 16.7753   2
   1  -7  -5 112.874 5.97445   1
   0  -7   5 6.75164 8.46362   2
   0  -7  -5 1.20298 2.58367   1
   0  -7   5 0.71829 2.75979   1
   1  -7   5 0.06438 8.09866   2
   1  -7   5 4.09215 2.78899   1
  -1  -7  -5 -0.7894 2.56718   1
  -1  -7  -5 -9.9047 6.63817   2
   2  -7   5 131.553 18.2654   2
  -2  -7  -5 121.348 7.78355   1
   2  -7   5 108.039 6.72680   1
  -2  -7  -5 133.403 17.4355   2
  -2  -7  -5 106.842 7.40694   1
   3  -7   5 -0.3255 8.70099   2
   3  -7   5 1.63269 2.94733   1
  -3  -7  -5 -0.4646 3.42302   1
  -3  -7  -5 -1.6295 8.09831   2
  -4  -7  -5 38.6611 12.0726   2
   4  -7   5 29.2437 11.5517   2
  22   0  -6 -9.3914 5.92024   1
 -22   0   6 -1.9567 9.97043   2
 -21   0   6 284.414 24.3702   2
  21   0  -6 320.715 18.7515   1
  20   0  -6 2.68296 5.85884   1
 -20   0   6 -18.036 10.2014   2
 -19   0   6 187.829 19.6600   2
  19   0  -6 247.195 15.4046   1
 -19   0   6 233.727 14.1939   1
 -18   0   6 5.74348 11.0459   2
 -18   0   6 10.6845 5.20305   1
  18   0  -6 15.6390 6.15180   1
 -17   0   6 173.210 11.6146   1
  17   0  -6 184.561 12.8051   1
 -16   0   6 48.5937 6.36912   3
  16   0  -6 50.8392 7.84485   1
 -16   0   6 56.2477 7.76183   1
  15   0  -6 -4.4707 2.40440   3
 -15   0   6 0.36047 2.43983   3
  15   0  -6 4.96199 4.51362   1
 -15   0   6 -1.0964 3.90975   1
  14   0  -6 -4.1014 4.03156   1
  14   0  -6 0.41823 2.30084   3
 -14   0   6 1.52366 3.75627   1
 -14   0   6 1.16286 2.51899   3
  13   0  -6 523.859 17.4496   1
  13   0  -6 524.696 14.1682   3
 -13   0   6 554.589 15.0494   3
 -13   0   6 539.577 16.6838   1
  12   0  -6 0.01341 3.02976   1
  12   0  -6 3.07292 2.23780   3
 -12   0   6 0.51309 2.00968   3
 -12   0   6 3.48078 2.84102   1
  11   0  -6 1106.00 21.8563   3
 -11   0   6 1138.66 22.5792   3
 -11   0   6 1119.95 24.6309   1
  11   0  -6 1110.97 25.1777   1
  10   0  -6 350.221 12.1216   1
 -10   0   6 355.925 10.3696   3
 -10   0   6 369.861 12.0101   1
  10   0  -6 336.332 9.84366   3
   9   0  -6 1.77497 2.37450   1
  -9   0   6 1.44938 2.47168   1
  -9   0   6 2.84581 1.79729   3
  -9   0   6 7.59924 4.67700   2
  -8   0   6 443.668 12.4633   1
  -8   0   6 431.658 10.9006   3
   8   0  -6 441.209 12.8131   1
  -8   0   6 468.379 14.6597   2
  -7   0   6 307.561 9.55463   1
   7   0  -6 283.708 9.65970   1
  -7   0   6 286.161 10.2854   2
  -7   0   6 295.536 8.22728   3
  -6   0   6 187.270 7.04345   1
  -6   0   6 168.453 5.85641   3
   6   0  -6 163.146 6.96905   1
  -6   0   6 180.178 7.24250   2
   5   0  -6 2.57151 1.93610   1
  -5   0   6 3.31212 1.24250   3
  -5   0   6 6.28297 2.00174   2
  -5   0   6 6.03888 2.04519   1
  -4   0   6 24.8864 2.72356   2
  -4   0   6 21.3202 2.81890   1
   4   0  -6 25.4281 3.10559   1
  -3   0   6 54.0947 3.83420   1
  -3   0   6 50.0882 3.21718   2
   2   0  -6 9999.99 138.558   1
  -2   0   6 9693.56 138.068   1
   1   0  -6 863.421 16.5686   1
  -1   0   6 853.575 16.4257   1
  -1   0   6 858.868 15.2910   2
   0   0  -6 7771.57 111.088   3
   0   0   6 7983.31 112.580   1
   0   0  -6 8071.36 112.733   1
   1   0   6 1512.12 25.8381   1
  -1   0  -6 1509.60 25.9150   1
  -1   0  -6 1514.00 24.5120   3
   1   0   6 1515.99 25.8763   3
   2   0   6 596.869 13.5325   1
  -2   0  -6 622.647 13.7555   1
   2   0   6 630.181 12.4855   3
  -2   0  -6 631.168 12.4860   3
  -3   0  -6 1421.94 23.8373   3
   3   0   6 1417.53 25.3977   1
  -3   0  -6 1392.72 25.3973   1
   3   0   6 1381.01 23.6367   3
  -4   0  -6 2528.73 41.8364   1
   4   0   6 2546.02 41.8023   1
  -4   0  -6 2532.90 39.8496   3
   4   0   6 2558.54 39.7347   3
   5   0   6 1.54536 2.47807   1
  -5   0  -6 -0.1572 2.15495   1
  -5   0  -6 -1.1096 1.49197   3
   5   0   6 -1.6750 1.37438   3
   6   0   6 93.0736 6.33544   1
  -6   0  -6 82.5717 5.86664   1
  -6   0  -6 82.5880 5.65659   1
   6   0   6 90.6073 4.92715   3
   7   0   6 140.873 6.24678   3
  -7   0  -6 127.614 6.23838   3
   7   0   6 140.016 7.73117   1
  -7   0  -6 133.554 7.47452   1
   8   0   6 1327.00 24.9423   3
  -8   0  -6 1312.25 27.4629   1
  -8   0  -6 1324.33 25.1614   3
   8   0   6 1286.33 27.4192   1
   9   0   6 17.1516 3.95478   1
   9   0   6 23.1043 3.41091   3
  -9   0  -6 23.3018 3.28042   3
  -9   0  -6 20.9730 4.35173   1
  10   0   6 1170.43 24.0221   3
  10   0   6 1189.03 27.4185   1
 -10   0  -6 1198.45 26.9877   1
 -10   0  -6 1170.55 24.4624   3
  11   0   6 38.7357 4.61434   3
 -11   0  -6 49.0991 6.51647   1
 -11   0  -6 42.7367 5.45383   3
  11   0   6 33.8094 5.80824   1
  12   0   6 531.569 15.5815   3
  12   0   6 504.099 18.0368   1
 -12   0  -6 527.063 15.5828   3
 -12   0  -6 491.559 17.4567   1
 -13   0  -6 3.60446 3.47136   3
  13   0   6 -3.4337 4.69623   1
 -13   0  -6 -1.5055 4.80453   1
 -14   0  -6 603.643 20.4916   1
  14   0   6 567.488 20.7255   1
 -14   0  -6 563.148 17.4017   3
 -15   0  -6 650.819 22.0048   1
  15   0   6 660.290 22.9534   1
 -16   0  -6 -5.6215 4.89276   1
  16   0   6 -1.7322 4.88748   1
  17   0   6 18.2240 6.86636   1
 -17   0  -6 8.26377 5.85281   1
  18   0   6 1.91029 5.91401   1
  19   0   6 -3.9332 5.84794   1
  22  -1  -6 6.60040 7.69789   1
 -22  -1   6 17.5357 8.26076   2
  22   1  -6 4.35103 7.08151   1
  21  -1  -6 38.7212 9.26730   1
 -21  -1   6 33.0947 8.23787   1
 -21  -1   6 34.4510 9.94184   2
  21   1  -6 36.0632 8.47533   1
 -20  -1   6 235.986 18.7917   2
  20  -1  -6 231.324 16.0746   1
 -20  -1   6 208.540 11.9128   3
 -20  -1   6 227.678 15.1538   1
  20   1  -6 231.422 15.4151   1
 -19  -1   6 37.1340 9.26792   2
 -19  -1   6 33.8234 7.32164   1
 -19  -1   6 39.6561 6.19691   3
  19  -1  -6 47.9391 8.73261   1
  19   1  -6 39.0110 8.12048   1
 -18  -1   6 49.8827 10.1200   2
 -18  -1   6 38.0794 7.86701   1
 -18  -1   6 45.1273 6.09577   3
  18  -1  -6 41.1667 8.18579   1
  18   1  -6 39.1841 7.56730   1
 -17  -1   6 13.0314 3.74162   3
 -17  -1   6 18.2407 6.39197   1
 -17  -1   6 15.4065 6.53670   2
  17  -1  -6 16.7001 6.30575   1
  17   1  -6 1.30538 4.95775   1
 -16  -1   6 -2.1528 4.59633   1
 -16  -1   6 12.3382 6.25142   2
  16  -1  -6 7.11445 5.38445   1
 -16  -1   6 4.04845 3.36475   3
  16   1  -6 -0.9668 4.54903   1
 -16   1   6 6.63364 4.66454   1
 -15  -1   6 12.2051 5.16278   1
  15  -1  -6 13.3145 5.45060   1
 -15  -1   6 13.1973 3.26408   3
 -15  -1   6 10.5350 6.61916   2
  15   1  -6 12.2368 5.15781   1
 -15   1   6 8.88992 4.69863   1
 -14  -1   6 28.6387 4.48265   3
 -14  -1   6 31.5642 7.38329   2
 -14  -1   6 27.6091 5.83183   1
  14  -1  -6 26.2729 5.78816   1
  14   1  -6 29.6141 5.86636   1
 -14   1   6 26.8110 5.19158   1
 -13  -1   6 30.3686 7.09879   2
 -13  -1   6 22.6245 3.87490   3
  13  -1  -6 24.4531 5.48804   1
 -13  -1   6 15.9587 4.57633   1
 -13   1   6 22.0401 4.41573   1
  13   1  -6 19.7628 5.10546   1
 -12  -1   6 284.567 12.1151   1
 -12  -1   6 262.443 9.55093   3
  12  -1  -6 264.458 11.7687   1
 -12  -1   6 256.953 14.0359   2
 -12   1   6 261.130 10.5322   1
  12   1  -6 263.519 11.6232   1
 -11  -1   6 3.69642 3.66395   2
 -11  -1   6 3.87959 2.22686   3
  11  -1  -6 8.42864 3.88052   1
 -11  -1   6 8.88145 4.00343   1
  11   1  -6 5.92277 3.37583   1
 -11   1   6 3.74695 2.90893   1
 -10  -1   6 1002.07 26.3242   2
 -10  -1   6 1029.47 20.5786   3
  10  -1  -6 1035.11 23.2754   1
 -10  -1   6 1047.57 23.4963   1
 -10   1   6 1018.60 21.6675   1
  10   1  -6 1030.73 23.1848   1
  -9  -1   6 154.515 9.59194   2
  -9  -1   6 157.710 6.50740   3
  -9  -1   6 163.207 8.23282   1
   9  -1  -6 161.905 8.06620   1
  -9   1   6 169.217 7.32749   1
   9   1  -6 158.957 8.03139   1
   8  -1  -6 663.502 16.2510   1
  -8  -1   6 644.015 16.2531   1
  -8  -1   6 661.016 14.2061   3
  -8  -1   6 649.312 18.7869   2
  -8   1   6 666.818 15.1309   1
   8   1  -6 649.527 16.2822   1
  -7  -1   6 241.591 7.32144   3
   7  -1  -6 235.720 8.65697   1
  -7  -1   6 215.195 8.52653   1
  -7  -1   6 227.211 10.2198   2
   7   1  -6 247.587 8.92916   1
  -7   1   6 231.764 7.89336   1
  -6  -1   6 125.485 5.02167   3
   6  -1  -6 123.952 6.09003   1
  -6  -1   6 139.438 6.60215   1
  -6  -1   6 135.848 7.72504   2
  -6   1   6 139.190 5.85587   1
   6   1  -6 126.777 6.24546   1
   5  -1  -6 501.237 12.0645   1
  -5  -1   6 504.398 10.7045   3
  -5  -1   6 491.169 14.2262   2
  -5   1   6 523.238 11.5079   1
   5   1  -6 500.486 12.2998   1
  -4  -1   6 414.257 10.6714   1
  -4  -1   6 411.880 9.20635   3
  -4  -1   6 424.811 9.14315   3
   4  -1  -6 422.811 10.5158   1
  -4  -1   6 427.636 12.4369   2
   4   1  -6 412.863 10.5219   1
  -4   1   6 421.012 9.82390   1
  -3  -1   6 460.886 12.5736   2
  -3  -1   6 449.266 9.25464   3
  -3  -1   6 446.039 10.8425   1
   3  -1  -6 466.992 10.8268   1
  -3  -1   6 467.130 9.48108   3
  -3   1   6 446.154 10.0807   1
   3   1  -6 449.923 10.7399   1
  -2  -1   6 1094.66 22.0193   2
  -2  -1   6 1090.20 18.1807   3
  -2  -1   6 1088.41 18.0477   3
   2  -1  -6 1097.97 19.7998   1
  -2  -1   6 1114.06 20.1465   1
   2   1  -6 1137.73 20.0227   1
  -2   1   6 1121.84 19.2976   1
  -1  -1   6 1328.00 23.0184   1
  -1  -1   6 1311.76 25.0649   2
   1  -1  -6 1300.68 19.3847   2
  -1  -1   6 1315.00 20.8264   3
   1  -1  -6 1305.77 22.8108   1
  -1  -1   6 1341.13 20.9832   3
   1   1  -6 1301.71 22.5616   1
  -1   1   6 1325.59 22.1992   1
   0  -1  -6 3495.76 51.9907   1
   0  -1   6 3392.84 54.4339   2
   0  -1   6 3388.14 49.5135   3
   0  -1   6 3458.11 51.9731   1
   0   1   6 3408.49 51.2130   1
   0   1  -6 3451.16 51.4970   1
   1  -1   6 202.083 6.84635   1
   1  -1   6 196.531 8.31258   2
   1  -1   6 193.488 5.31043   3
  -1  -1  -6 215.144 7.05028   1
  -1   1  -6 198.246 6.64979   1
   1   1   6 191.898 6.52810   1
  -2  -1  -6 382.549 8.34424   3
   2  -1   6 375.094 8.15472   3
  -2  -1  -6 352.347 9.92817   1
   2  -1   6 365.771 9.94222   1
  -2   1  -6 392.514 9.93375   1
   2   1   6 373.490 9.89296   1
  -3  -1  -6 92.5409 4.11666   3
   3  -1   6 91.5888 5.30463   1
   3  -1   6 91.8999 3.87951   3
  -3  -1  -6 89.1447 5.33830   1
  -3   1  -6 89.6340 4.93097   1
   3   1   6 84.0738 5.06487   1
   4  -1   6 685.127 15.6121   1
  -4  -1  -6 663.457 15.8038   1
  -4  -1  -6 688.271 13.5838   3
   4  -1   6 673.650 13.0525   3
   4   1   6 639.129 15.2574   1
  -4   1  -6 711.320 15.3031   1
  -4   1  -6 661.039 15.0114   1
  -5  -1  -6 15.5406 3.26022   1
   5  -1   6 10.4377 1.94475   3
  -5  -1  -6 9.65867 2.16489   3
   5  -1   6 8.11026 2.74682   1
  -5   1  -6 6.95426 2.68969   1
   5   1   6 7.97735 2.79574   1
  -6  -1  -6 0.15872 1.40109   3
   6  -1   6 3.32264 1.58605   3
   6  -1   6 1.41227 2.45065   1
  -6  -1  -6 -1.1786 2.32895   1
   6   1   6 4.01828 2.57696   1
  -6   1  -6 0.06141 2.21964   1
  -7  -1  -6 521.999 15.3149   1
  -7  -1  -6 556.212 15.7309   1
   7  -1   6 547.098 15.3723   1
   7  -1   6 558.091 12.4234   3
  -7  -1  -6 551.115 13.1323   3
   7   1   6 554.562 15.3131   1
  -7   1  -6 560.115 14.7403   1
   8  -1   6 274.635 8.31108   3
   8  -1   6 278.553 11.1096   1
  -8  -1  -6 270.199 9.02183   3
  -8  -1  -6 252.637 10.9419   1
   8   1   6 267.459 10.8065   1
  -8   1  -6 273.349 10.3087   1
   9  -1   6 159.094 9.19020   1
   9  -1   6 145.812 6.37589   3
  -9  -1  -6 144.262 7.06592   3
  -9  -1  -6 144.420 9.01163   1
  -9   1  -6 153.998 8.41340   1
  -9   1  -6 155.566 7.68578   3
   9   1   6 161.099 9.02160   1
  10  -1   6 109.780 8.49496   1
  10  -1   6 127.624 6.26546   3
 -10  -1  -6 117.425 8.82940   1
 -10  -1  -6 120.879 6.88620   3
  10   1   6 115.582 8.58424   1
 -10   1  -6 122.499 7.22250   3
 -10   1  -6 124.394 8.12260   1
  11  -1   6 30.4153 5.80463   1
 -11  -1  -6 22.2341 3.89037   3
  11  -1   6 28.1155 3.76407   3
 -11  -1  -6 32.9317 5.78086   1
 -11   1  -6 34.9472 5.61286   1
 -11   1  -6 24.2412 4.15587   3
  11   1   6 20.8751 5.19769   1
 -12  -1  -6 658.681 17.4612   3
  12  -1   6 670.010 21.0368   1
  12  -1   6 670.720 16.1350   3
 -12  -1  -6 679.263 21.0733   1
  12   1   6 663.642 20.7371   1
 -12   1  -6 677.456 19.8050   1
  13  -1   6 231.677 13.3068   1
 -13  -1  -6 234.049 13.2670   1
 -13  -1  -6 227.963 10.4231   3
  13  -1   6 227.630 9.37411   3
 -13   1  -6 251.679 12.4158   1
  13   1   6 228.387 13.0795   1
  14  -1   6 39.6369 4.84616   3
  14  -1   6 41.1497 7.42515   1
 -14  -1  -6 37.9324 7.25968   1
 -14  -1  -6 35.7607 5.13505   3
  14   1   6 47.2869 7.99824   1
 -14   1  -6 44.7962 7.05141   1
  15  -1   6 30.0259 4.39516   3
 -15  -1  -6 33.6604 7.16363   1
  15  -1   6 29.3893 7.09276   1
 -15  -1  -6 25.3087 4.63339   3
  15   1   6 25.5112 6.68964   1
  16  -1   6 45.0262 5.20677   3
 -16  -1  -6 50.6095 6.57666   3
  16  -1   6 39.1946 8.07351   1
 -16  -1  -6 47.5233 8.10951   1
  16   1   6 43.7872 8.36410   1
 -17  -1  -6 0.22705 3.13946   3
  17  -1   6 -4.4282 5.52225   1
 -17  -1  -6 -2.3882 5.35519   1
  17  -1   6 -0.2950 2.70276   3
  17   1   6 1.71547 5.19120   1
  18  -1   6 13.0928 6.84039   1
 -18  -1  -6 16.3691 6.92947   1
 -18  -1  -6 -1.4965 3.36117   3
  18   1   6 3.48665 5.70416   1
 -19  -1  -6 11.8889 6.72759   1
  19  -1   6 -6.6886 6.11426   1
 -19  -1  -6 7.00127 4.58802   3
  19   1   6 -8.1793 5.94738   1
 -21  -2   6 -1.0011 3.19656   3
 -21  -2   6 0.93479 6.32035   1
  21  -2  -6 2.11568 6.68786   1
 -21  -2   6 4.70650 6.72070   2
 -20  -2   6 9.17262 7.43285   2
 -20  -2   6 7.54066 3.63396   3
 -20  -2   6 12.6914 6.43851   1
  20  -2  -6 12.6840 6.91011   1
 -19  -2   6 7.22483 7.09881   2
 -19  -2   6 12.4111 6.69495   1
  19  -2  -6 27.8088 7.61106   1
 -19  -2   6 8.26522 3.72362   3
 -18  -2   6 -0.4545 2.68048   3
 -18  -2   6 0.21599 4.98242   1
  18  -2  -6 -3.3030 4.87473   1
 -18  -2   6 1.87103 5.98430   2
 -17  -2   6 10.1093 6.02099   1
  17  -2  -6 14.4404 6.09536   1
 -17  -2   6 10.9440 6.73924   2
 -17  -2   6 9.00599 3.50535   3
  17   2  -6 9.98250 5.40370   1
 -16  -2   6 0.81063 5.07880   1
 -16  -2   6 -2.2997 2.60702   3
 -16  -2   6 -1.1819 4.74149   2
  16  -2  -6 -8.4794 4.14247   1
  16   2  -6 -1.2021 3.97943   1
 -15  -2   6 -0.2271 4.72443   1
  15  -2  -6 -2.9123 4.11938   1
 -15  -2   6 4.59032 3.06616   3
 -15  -2   6 0.14806 5.68425   2
  15   2  -6 -0.3921 4.00932   1
 -14  -2   6 4.30057 5.26446   2
 -14  -2   6 -0.0820 4.39962   1
  14  -2  -6 -0.5932 4.20116   1
 -14  -2   6 6.18633 2.66877   3
  14   2  -6 -1.4198 3.72745   1
 -13  -2   6 115.722 10.1406   1
  13  -2  -6 96.7959 8.62673   1
 -13  -2   6 100.065 11.6427   2
 -13  -2   6 116.320 6.69155   3
  13   2  -6 92.1286 8.35815   1
 -12  -2   6 151.933 6.99244   3
 -12  -2   6 122.865 10.7930   2
  12  -2  -6 132.210 9.33263   1
 -12  -2   6 142.708 9.89172   1
  12   2  -6 144.972 9.07905   1
 -12   2   6 126.898 8.27364   1
 -11  -2   6 -0.4057 1.80431   3
  11  -2  -6 -2.6456 3.15907   1
 -11  -2   6 0.37410 3.94133   2
 -11  -2   6 -2.8725 3.33485   1
  11   2  -6 -2.0085 2.76793   1
 -11   2   6 -1.1835 2.43161   1
 -10  -2   6 49.2590 5.98801   1
 -10  -2   6 64.8561 4.49427   3
 -10  -2   6 62.6827 7.93681   2
  10  -2  -6 52.9715 5.81551   1
  10   2  -6 64.8474 6.24504   1
 -10   2   6 71.3943 5.35835   1
  -9  -2   6 177.401 9.18772   1
  -9  -2   6 184.622 11.6727   2
   9  -2  -6 178.470 8.63049   1
  -9  -2   6 183.925 6.50740   3
   9   2  -6 200.307 8.86674   1
   8  -2  -6 3.32428 2.95920   1
  -8  -2   6 5.34252 1.84084   3
  -8  -2   6 -0.5202 2.77757   1
  -8  -2   6 3.02085 3.37140   2
   8   2  -6 2.43944 2.73995   1
  -7  -2   6 2875.98 43.0886   3
  -7  -2   6 2934.16 43.3033   3
   7  -2  -6 2872.57 46.7351   1
  -7  -2   6 2916.98 54.3046   2
  -7  -2   6 2896.80 48.1755   1
   7   2  -6 2880.52 46.8787   1
   6  -2  -6 240.067 8.19300   1
  -6  -2   6 236.375 5.91100   3
  -6  -2   6 232.086 11.3944   2
  -6  -2   6 239.200 5.88863   3
  -6  -2   6 243.262 9.03398   1
   6   2  -6 236.178 8.12552   1
  -5  -2   6 1.20039 2.06333   1
  -5  -2   6 0.28321 3.01423   2
  -5  -2   6 -1.0847 0.85307   3
  -5  -2   6 -1.0185 0.86960   3
   5  -2  -6 0.48687 1.85054   1
   5   2  -6 -1.0990 1.63043   1
   4  -2  -6 1841.26 30.4423   1
  -4  -2   6 1898.36 37.2932   2
  -4  -2   6 1854.10 31.5337   1
   4   2  -6 1830.65 30.2909   1
  -3  -2   6 3507.71 59.9209   2
   3  -2  -6 3535.30 52.3154   2
   3  -2  -6 3551.31 52.8517   1
  -3  -2   6 3551.93 53.8279   1
   3   2  -6 3473.54 53.3550   1
   2  -2  -6 1048.94 18.5290   1
   2  -2  -6 1005.83 17.9782   2
  -2  -2   6 986.956 23.6147   2
  -2  -2   6 994.904 18.9235   1
  -1  -2   6 0.48517 2.75800   2
  -1  -2   6 -0.6930 1.93217   1
   1  -2  -6 -0.6844 1.77072   1
   1  -2  -6 -0.4899 1.61431   2
   0  -2   6 4816.26 78.0976   2
   0  -2  -6 4820.27 71.7892   2
   0  -2   6 4943.57 71.4151   1
   0  -2  -6 4847.25 71.1601   1
   1  -2   6 768.711 15.7284   1
   1  -2   6 774.253 20.5207   2
  -1  -2  -6 786.201 15.8490   1
  -1  -2  -6 753.443 16.6331   2
  -2  -2  -6 1999.97 33.4443   1
   2  -2   6 2047.30 33.2545   1
  -2  -2  -6 1956.95 35.0763   2
   2  -2   6 1980.78 39.2522   2
   3  -2   6 4286.35 70.8828   2
   3  -2   6 4180.47 63.5418   1
  -3  -2  -6 4128.02 66.3414   2
  -3  -2  -6 4225.99 64.2629   1
   3   2   6 4116.67 62.1994   1
  -4  -2  -6 -1.3293 2.50804   2
   4  -2   6 0.61932 2.12782   1
  -4  -2  -6 -0.7232 2.02061   1
   4   2   6 1.66689 1.99937   1
  -5  -2  -6 27.4650 4.00049   1
   5  -2   6 40.4800 4.61295   1
  -5  -2  -6 37.3306 5.56916   2
  -5   2  -6 32.7979 3.41503   1
   5   2   6 33.4638 3.98356   1
  -6  -2  -6 2.11945 1.46963   3
  -6  -2  -6 3.57630 3.89029   2
   6  -2   6 -0.6485 2.57267   1
  -6  -2  -6 2.94164 2.65462   1
  -6   2  -6 3.50855 2.29317   1
   6   2   6 -1.5403 2.22804   1
   7  -2   6 65.7603 6.08437   1
  -7  -2  -6 76.0764 8.87668   2
  -7  -2  -6 56.4154 5.89189   1
  -7  -2  -6 77.0255 4.28656   3
  -7  -2  -6 68.5252 6.25221   1
   7   2   6 76.8650 6.11637   1
  -7   2  -6 74.1669 5.42352   1
  -8  -2  -6 23.8824 7.33880   2
  -8  -2  -6 17.6671 4.09668   1
  -8  -2  -6 17.8475 2.85367   3
  -8  -2  -6 16.3141 4.16438   1
   8  -2   6 13.8775 4.15361   1
  -8   2  -6 20.7183 3.72210   1
   8   2   6 15.0373 3.86278   1
  -9  -2  -6 14.3145 4.64309   1
  -9  -2  -6 14.5688 7.51391   2
   9  -2   6 12.5086 4.44824   1
  -9  -2  -6 13.5376 2.87544   3
   9   2   6 11.6900 4.18125   1
  -9   2  -6 12.5047 3.58298   1
  10  -2   6 255.144 6.18287   3
  10  -2   6 254.060 12.2139   1
 -10  -2  -6 272.570 12.9652   1
 -10  -2  -6 250.624 17.6098   2
 -10  -2  -6 264.254 9.06433   3
 -10   2  -6 263.240 10.4432   1
  10   2   6 258.528 11.8796   1
 -11  -2  -6 308.472 14.2505   1
  11  -2   6 298.253 7.26515   3
 -11  -2  -6 305.258 18.9215   2
  11  -2   6 303.920 13.8163   1
 -11  -2  -6 304.080 10.3376   3
  11   2   6 314.681 13.5759   1
  12  -2   6 89.2222 9.07927   1
 -12  -2  -6 103.048 13.9991   2
 -12  -2  -6 87.9908 9.23357   1
  12  -2   6 98.2195 4.36952   3
 -12  -2  -6 110.700 6.99995   3
  12   2   6 108.218 9.42129   1
 -13  -2  -6 316.157 11.2730   3
 -13  -2  -6 326.476 22.9261   2
  13  -2   6 335.588 15.5793   1
  13  -2   6 305.053 7.91361   3
 -13  -2  -6 338.662 15.8292   1
  13   2   6 309.213 14.4700   1
 -14  -2  -6 63.9802 6.20302   3
  14  -2   6 57.0664 3.91359   3
 -14  -2  -6 56.6088 8.50838   1
 -14  -2  -6 52.0286 12.3710   2
  14  -2   6 69.3841 9.01515   1
  14   2   6 53.6383 8.97217   1
 -15  -2  -6 -8.1411 8.94171   2
 -15  -2  -6 5.81860 3.22717   3
 -15  -2  -6 6.68748 5.21145   1
  15  -2   6 -0.3645 5.05159   1
 -16  -2  -6 15.1076 6.43525   1
 -16  -2  -6 27.2034 4.82847   3
 -16  -2  -6 5.51504 10.0895   2
  16  -2   6 24.9968 7.30712   1
 -17  -2  -6 31.3539 13.3259   2
 -17  -2  -6 55.1005 6.41654   3
 -17  -2  -6 43.8177 8.92083   1
  17  -2   6 45.1608 8.69971   1
  18  -2   6 12.0672 6.97053   1
 -18  -2  -6 5.38383 3.73814   3
 -18  -2  -6 -7.6668 10.7415   2
 -18  -2  -6 -1.5214 6.06089   1
 -20  -3   6 12.9555 8.31334   2
  20  -3  -6 9.06427 6.93817   1
 -20  -3   6 6.33405 6.91949   1
 -20  -3   6 3.45834 3.18086   3
 -19  -3   6 38.7673 8.87853   1
  19  -3  -6 26.2637 7.35036   1
 -19  -3   6 27.4361 8.84091   2
 -19  -3   6 29.5176 4.55331   3
 -18  -3   6 5.06089 6.13369   1
 -18  -3   6 5.23703 7.31020   2
 -18  -3   6 2.92175 2.60080   3
  18  -3  -6 2.68221 5.61856   1
 -17  -3   6 6.26635 6.61666   2
 -17  -3   6 -10.657 4.70667   1
  17  -3  -6 -0.4619 4.86573   1
 -17  -3   6 -2.0472 2.08811   3
 -16  -3   6 10.3699 5.77293   1
 -16  -3   6 4.34893 2.31204   3
  16  -3  -6 5.49461 4.82376   1
 -16  -3   6 7.50601 6.16446   2
 -15  -3   6 287.739 15.1965   1
 -15  -3   6 292.565 19.2879   2
 -15  -3   6 266.352 8.75009   3
  15  -3  -6 257.097 14.0296   1
 -14  -3   6 689.940 27.6348   2
 -14  -3   6 747.370 23.1017   1
 -14  -3   6 686.335 14.7789   3
  14  -3  -6 725.481 21.9947   1
 -13  -3   6 306.586 14.6640   1
 -13  -3   6 324.541 8.54624   3
  13  -3  -6 333.819 14.0774   1
 -13  -3   6 316.779 8.55599   3
 -13  -3   6 337.006 19.5812   2
 -12  -3   6 105.141 12.1510   2
 -12  -3   6 124.782 4.66993   3
 -12  -3   6 127.592 4.77861   3
  12  -3  -6 121.908 9.29789   1
 -12  -3   6 126.272 10.1073   1
 -11  -3   6 1422.46 31.7646   1
 -11  -3   6 1439.08 39.2792   2
  11  -3  -6 1445.31 30.2577   1
 -10  -3   6 8.08349 5.44223   2
 -10  -3   6 -2.5533 3.57396   1
  10  -3  -6 4.45706 3.38522   1
  10   3  -6 5.39730 3.59628   1
   9  -3  -6 26.7167 4.41104   1
  -9  -3   6 34.0903 7.59881   2
  -9  -3   6 24.9932 4.74508   1
   9   3  -6 28.7533 4.11753   1
  -8  -3   6 265.346 15.0200   2
  -8  -3   6 259.608 10.9164   1
   8  -3  -6 260.707 9.55127   1
   8   3  -6 261.785 9.74844   1
   7  -3  -6 654.155 15.2764   1
  -7  -3   6 621.504 22.0839   2
  -7  -3   6 658.434 16.9020   1
  -6  -3   6 438.981 12.9035   1
   6  -3  -6 462.048 11.3183   1
  -6  -3   6 442.168 17.9081   2
   6  -3  -6 463.728 11.7300   1
   5  -3  -6 925.148 17.9306   1
  -5  -3   6 944.506 19.8256   1
   5  -3  -6 914.931 17.4156   1
  -5  -3   6 928.413 26.5562   2
   4  -3  -6 270.678 9.87292   2
   4  -3  -6 276.359 7.89656   1
  -4  -3   6 248.639 13.0152   2
   4  -3  -6 271.143 7.47380   1
  -4  -3   6 284.031 9.15975   1
  -3  -3   6 267.878 8.60393   1
  -3  -3   6 273.068 13.3478   2
   3  -3  -6 273.747 9.81737   2
   3  -3  -6 273.854 7.35154   1
   3  -3  -6 277.645 7.68442   1
   2  -3  -6 763.277 17.7242   2
  -2  -3   6 747.840 15.7605   1
   2  -3  -6 773.555 14.8192   1
  -2  -3   6 747.995 22.5885   2
   2  -3  -6 746.122 14.3375   1
   1  -3  -6 959.272 21.0206   2
  -1  -3   6 980.370 18.6867   1
  -1  -3   6 977.020 26.3544   2
   1  -3  -6 981.870 18.0149   1
   1  -3  -6 968.045 17.6449   1
   0  -3  -6 2.76882 2.50373   2
   0  -3  -6 1.09141 1.61586   1
   0  -3  -6 3.47656 1.79236   1
   0  -3   6 -2.4461 3.18681   2
   0  -3   6 2.57034 1.82033   1
  -1  -3  -6 64.8441 5.95654   2
   1  -3   6 56.3481 7.12973   2
   1  -3   6 76.0299 4.65163   1
  -1  -3  -6 74.9353 4.61684   1
  -2  -3  -6 218.005 10.1833   2
   2  -3   6 237.013 7.99677   1
  -2  -3  -6 234.089 8.23948   1
   2  -3   6 228.789 12.4212   2
   3  -3   6 5.01018 4.39503   2
  -3  -3  -6 4.45649 3.18092   2
  -3  -3  -6 3.94173 2.41101   1
   3  -3   6 -1.4227 1.97580   1
  -4  -3  -6 3.94159 3.30547   2
   4  -3   6 2.57072 2.49459   1
  -4  -3  -6 2.41981 2.58910   1
   4  -3   6 4.85707 4.82758   2
  -5  -3  -6 110.275 7.14601   1
   5  -3   6 104.077 6.48423   1
  -5  -3  -6 95.2115 8.68205   2
   6  -3   6 497.399 14.0464   1
  -6  -3  -6 504.427 15.0832   1
  -6  -3  -6 480.090 17.7600   2
  -7  -3  -6 0.63476 3.09936   1
  -7  -3  -6 -0.0590 3.11971   1
  -7  -3  -6 -0.6622 3.75525   2
   7  -3   6 -2.0640 3.02319   1
   8  -3   6 1711.57 33.8978   1
  -8  -3  -6 1685.71 40.3104   2
  -8  -3  -6 1730.17 35.3698   1
  -8  -3  -6 1740.31 35.2133   1
   9  -3   6 69.7067 7.43730   1
  -9  -3  -6 57.8798 8.98251   2
  -9  -3  -6 63.4367 7.57320   1
 -10  -3  -6 86.0468 8.96889   1
 -10  -3  -6 98.4291 11.9341   2
  10  -3   6 86.2924 8.51423   1
  11  -3   6 175.534 11.3136   1
 -11  -3  -6 168.361 11.7182   1
 -11  -3  -6 163.197 14.4994   2
 -12  -3  -6 354.348 20.2490   2
  12  -3   6 344.274 15.2094   1
 -12  -3  -6 324.579 8.45092   3
 -12  -3  -6 352.425 16.0904   1
 -13  -3  -6 7.74009 6.53789   2
 -13  -3  -6 2.64304 1.97385   3
 -13  -3  -6 1.96762 5.11786   1
  13  -3   6 2.15708 4.91565   1
 -14  -3  -6 4.14582 5.30428   1
 -14  -3  -6 5.23598 2.38789   3
 -14  -3  -6 8.13324 7.03180   2
  14  -3   6 7.68442 5.49394   1
 -15  -3  -6 43.1348 9.61089   2
 -15  -3  -6 38.7603 7.95078   1
 -15  -3  -6 31.8608 3.83858   3
  15  -3   6 29.2814 7.29992   1
 -16  -3  -6 6.97331 6.62276   2
  16  -3   6 -6.2940 5.01882   1
 -16  -3  -6 4.35719 2.66571   3
 -16  -3  -6 4.26232 5.88933   1
 -17  -3  -6 14.7938 7.00725   1
  17  -3   6 10.5960 6.90413   1
 -17  -3  -6 13.0021 3.28628   3
 -17  -3  -6 10.8547 7.93524   2
 -18  -4   6 1.27554 7.46469   2
 -18  -4   6 8.11381 6.73948   1
  18  -4  -6 6.31542 5.79815   1
  17  -4  -6 -4.1038 4.71690   1
 -17  -4   6 2.42361 5.73786   1
 -17  -4   6 1.56289 5.98056   2
  16  -4  -6 45.5996 7.71367   1
 -16  -4   6 38.5704 10.5866   2
 -16  -4   6 32.1061 7.31930   1
 -15  -4   6 7.82843 7.46758   2
  15  -4  -6 16.0766 5.52365   1
 -15  -4   6 10.7267 5.72000   1
 -14  -4   6 12.2188 7.16440   2
  14  -4  -6 4.08582 4.85523   1
 -14  -4   6 9.66228 5.53620   1
 -13  -4   6 78.4748 9.04383   1
 -13  -4   6 66.7103 11.0593   2
  13  -4  -6 77.8243 8.02712   1
  12  -4  -6 286.968 12.8415   1
 -12  -4   6 298.901 14.3033   1
 -12  -4   6 321.833 19.9600   2
  11  -4  -6 203.692 10.3506   1
 -11  -4   6 189.861 11.2809   1
 -11  -4   6 182.319 15.2610   2
 -10  -4   6 323.718 19.4421   2
 -10  -4   6 324.895 13.7033   1
  10  -4  -6 310.930 11.8846   1
   9  -4  -6 527.876 14.9035   1
  -9  -4   6 542.313 17.1314   1
  -9  -4   6 549.033 24.1424   2
   8  -4  -6 3.49738 2.84379   1
  -8  -4   6 2.49011 5.65941   2
  -8  -4   6 3.91430 3.82968   1
   7  -4  -6 0.61720 2.53575   1
   7  -4  -6 0.78192 2.85212   1
  -7  -4   6 0.15581 5.07269   2
  -7  -4   6 -1.4238 3.20638   1
   6  -4  -6 524.145 12.7319   1
   6  -4  -6 508.062 12.1909   1
  -6  -4   6 530.358 14.8783   1
  -6  -4   6 542.386 22.5045   2
   5  -4  -6 162.368 6.51687   1
   5  -4  -6 170.126 6.21639   1
  -5  -4   6 188.132 13.8405   2
  -5  -4   6 181.118 8.43133   1
   5  -4  -6 180.563 10.3988   2
   4  -4  -6 67.1075 7.28973   2
   4  -4  -6 63.5925 4.01286   1
  -4  -4   6 60.2540 8.78229   2
  -4  -4   6 62.4921 5.30440   1
   4  -4  -6 69.4847 4.38204   1
   3  -4  -6 74.3684 4.40868   1
   3  -4  -6 79.7198 7.81522   2
  -3  -4   6 70.3315 9.58184   2
  -3  -4   6 74.0810 5.28214   1
  -3  -4   6 81.5021 5.56023   1
   3  -4  -6 81.1170 4.18375   1
  -2  -4   6 412.318 11.1591   1
   2  -4  -6 408.428 14.7132   2
  -2  -4   6 414.651 11.2147   1
   2  -4  -6 408.509 9.64515   1
   2  -4  -6 417.436 9.93516   1
  -2  -4   6 398.965 18.5369   2
   1  -4  -6 137.557 9.29782   2
   1  -4  -6 136.736 5.54003   1
  -1  -4   6 135.177 12.0453   2
  -1  -4   6 142.097 6.24656   1
   1  -4  -6 139.324 5.77605   1
  -1  -4   6 141.305 6.46600   1
   0  -4  -6 466.397 11.3823   1
   0  -4   6 462.091 11.5749   1
   0  -4  -6 452.033 10.9691   1
   0  -4  -6 472.649 16.3043   2
   0  -4   6 452.466 19.8733   2
   0  -4   6 471.261 11.7590   1
  -1  -4  -6 393.671 10.4300   1
  -1  -4  -6 391.196 10.6749   1
   1  -4   6 363.083 17.9607   2
  -1  -4  -6 361.729 14.9554   2
   1  -4   6 374.455 10.4108   1
   1  -4   6 375.477 10.2451   1
   2  -4   6 -0.3011 2.04200   1
  -2  -4  -6 2.12923 2.40319   1
   2  -4   6 -2.0732 4.88094   2
  -2  -4  -6 1.12738 3.66842   2
   2  -4   6 -0.4963 2.15262   1
  -2  -4  -6 2.02596 2.47194   1
  -3  -4  -6 803.641 18.4112   1
   3  -4   6 794.841 17.2790   1
   3  -4   6 806.898 17.5211   1
   3  -4   6 844.206 27.9291   2
  -3  -4  -6 806.833 24.0101   2
  -4  -4  -6 345.949 11.8066   1
  -4  -4  -6 335.685 15.8594   2
   4  -4   6 341.768 17.7831   2
   4  -4   6 343.107 10.8466   1
  -5  -4  -6 75.3608 9.51402   2
   5  -4   6 76.1649 6.18231   1
  -5  -4  -6 68.4253 6.46246   1
   6  -4   6 0.95626 3.24510   1
  -6  -4  -6 2.43820 3.75294   1
  -6  -4  -6 -1.7384 4.69161   2
  -7  -4  -6 1697.77 34.3970   1
  -7  -4  -6 1638.08 34.1151   1
   7  -4   6 1624.79 32.1221   1
  -7  -4  -6 1629.83 40.8832   2
  -8  -4  -6 78.9150 8.02085   1
  -8  -4  -6 84.8113 11.5591   2
  -8  -4  -6 90.3819 8.45176   1
   8  -4   6 85.1099 7.54767   1
  -9  -4  -6 29.8375 5.95374   1
   9  -4   6 31.9018 5.73966   1
  -9  -4  -6 49.4162 9.85560   2
 -10  -4  -6 221.967 16.8535   2
 -10  -4  -6 231.966 13.2079   1
  10  -4   6 212.150 11.7282   1
  11  -4   6 15.9456 5.08572   1
 -11  -4  -6 20.3689 8.03619   2
 -11  -4  -6 11.5587 5.24816   1
 -12  -4  -6 -2.7396 4.79825   1
  12  -4   6 3.65948 4.55326   1
 -12  -4  -6 1.70245 6.16121   2
 -13  -4  -6 -5.2411 4.41231   1
 -13  -4  -6 1.51569 6.52994   2
  13  -4   6 -0.5833 4.73976   1
 -14  -4  -6 -0.5338 6.33681   2
  14  -4   6 2.66600 5.15230   1
 -14  -4  -6 -2.3300 5.06616   1
 -15  -4  -6 5.52683 6.23742   1
 -15  -4  -6 5.37793 7.47946   2
  15  -4   6 8.46734 5.87967   1
 -16  -4  -6 17.8526 9.14803   2
 -16  -4  -6 4.15583 6.43753   1
  16  -4   6 1.31904 6.05496   1
  16  -5  -6 35.8990 7.46071   1
 -16  -5   6 43.8430 8.95045   1
 -16  -5   6 33.2981 10.8332   2
 -15  -5   6 3.32524 5.86623   1
  15  -5  -6 1.84360 4.63051   1
 -15  -5   6 8.16161 8.13786   2
 -14  -5   6 5.88803 5.58015   1
  14  -5  -6 5.00554 4.58437   1
 -14  -5   6 3.02414 6.35474   2
 -13  -5   6 3.42057 6.51649   2
 -13  -5   6 5.63755 4.98487   1
  13  -5  -6 1.26605 4.14655   1
 -12  -5   6 1.14018 4.52885   1
  12  -5  -6 -4.7712 3.29226   1
 -12  -5   6 -2.2311 5.49417   2
  11  -5  -6 55.2544 6.26885   1
 -11  -5   6 43.5532 7.00256   1
 -11  -5   6 54.0679 11.3450   2
 -10  -5   6 66.2733 11.6993   2
 -10  -5   6 64.4336 7.77664   1
  10  -5  -6 61.4327 6.32306   1
   9  -5  -6 112.625 7.47536   1
  -9  -5   6 86.3671 12.7104   2
  -9  -5   6 97.8849 8.63320   1
  -8  -5   6 35.9695 8.84806   2
   8  -5  -6 57.1225 5.27960   1
  -8  -5   6 51.7157 6.47357   1
  -7  -5   6 1.74024 6.23236   2
   7  -5  -6 -1.1786 2.45035   1
  -7  -5   6 -2.0218 3.24428   1
  -6  -5   6 -3.6454 2.96684   1
   6  -5  -6 -3.5009 2.14757   1
  -6  -5   6 0.20470 5.35919   2
   5  -5  -6 -1.2846 2.01388   1
   5  -5  -6 0.27804 4.88385   2
  -5  -5   6 -4.5271 2.94398   1
  -5  -5   6 8.69831 6.25775   2
   4  -5  -6 -0.5046 2.02909   1
   4  -5  -6 5.64506 5.39731   2
  -4  -5   6 1.62710 3.12111   1
  -4  -5   6 6.47582 6.46340   2
  -3  -5   6 16.7777 7.61499   2
   3  -5  -6 16.8984 2.82690   1
   3  -5  -6 23.3213 6.53831   2
  -3  -5   6 15.2260 3.66777   1
  -2  -5   6 35.3150 4.46867   1
  -2  -5   6 58.5221 10.7756   2
   2  -5  -6 38.6477 3.81260   1
   2  -5  -6 36.1339 7.28738   2
   1  -5  -6 529.794 12.5848   1
  -1  -5   6 561.193 13.8399   1
  -1  -5   6 588.563 25.0083   2
   1  -5  -6 537.439 20.4897   2
   0  -5  -6 88.5655 10.9303   2
   0  -5   6 81.0063 5.71079   1
   0  -5  -6 82.6849 5.47534   1
   0  -5   6 71.1436 11.3264   2
  -1  -5  -6 47.6397 8.56602   2
   1  -5   6 44.1079 9.86910   2
   1  -5   6 46.0614 4.59031   1
  -1  -5  -6 50.3684 4.66129   1
  -2  -5  -6 309.987 16.4562   2
  -2  -5  -6 275.564 10.0606   1
   2  -5   6 276.388 9.46385   1
   2  -5   6 287.028 18.5579   2
  -3  -5  -6 60.9815 5.97147   1
   3  -5   6 43.3450 9.26369   2
   3  -5   6 58.8817 5.10940   1
  -3  -5  -6 65.6248 10.3345   2
   4  -5   6 107.198 13.9206   2
  -4  -5  -6 95.4590 7.44721   1
  -4  -5  -6 110.828 12.7674   2
   4  -5   6 100.738 6.69559   1
   5  -5   6 1.07356 2.99972   1
  -5  -5  -6 1.18354 5.60566   2
   5  -5   6 4.83975 6.08756   2
  -5  -5  -6 -1.3706 3.27448   1
  -6  -5  -6 146.757 14.6918   2
   6  -5   6 152.236 8.54416   1
  -6  -5  -6 135.032 9.24529   1
  -6  -5  -6 148.844 9.47054   1
  -7  -5  -6 0.73621 3.87510   1
  -7  -5  -6 -2.5217 5.74757   2
   7  -5   6 1.53750 3.36511   1
  -7  -5  -6 -1.4328 3.38073   1
  -8  -5  -6 13.1051 5.04981   1
   8  -5   6 13.0519 4.50257   1
  -8  -5  -6 16.0957 7.76651   2
   9  -5   6 88.6551 8.11206   1
  -9  -5  -6 75.0231 12.1808   2
  -9  -5  -6 58.4595 7.78923   1
 -10  -5  -6 4.49970 4.70502   1
 -10  -5  -6 12.5367 7.61138   2
  10  -5   6 0.58760 3.92350   1
 -11  -5  -6 3.10997 6.63429   2
  11  -5   6 2.26980 4.30382   1
 -11  -5  -6 -6.4441 4.15675   1
  12  -5   6 -3.8201 4.40977   1
 -12  -5  -6 -2.0003 4.58715   1
 -12  -5  -6 4.57312 7.19515   2
 -13  -5  -6 -2.8155 4.91098   1
 -13  -5  -6 4.28646 7.62926   2
  13  -5   6 -4.0548 4.78275   1
  12  -6  -6 90.7200 8.44689   1
 -12  -6   6 112.949 16.5335   2
 -12  -6   6 100.764 10.6999   1
 -11  -6   6 3.24137 7.09371   2
 -11  -6   6 4.03253 4.77726   1
  11  -6  -6 1.15229 3.65504   1
  10  -6  -6 101.634 7.91760   1
 -10  -6   6 88.1208 9.31931   1
 -10  -6   6 113.117 15.9575   2
  -9  -6   6 8.67386 7.96737   2
  -9  -6   6 5.63960 4.60813   1
   9  -6  -6 9.63344 3.55207   1
  -8  -6   6 -1.0867 6.93554   2
   8  -6  -6 2.38349 2.95261   1
  -8  -6   6 -0.5470 3.67383   1
  -7  -6   6 -0.3019 3.59446   1
  -7  -6   6 -5.7076 5.06992   2
   7  -6  -6 1.06128 2.58039   1
  -6  -6   6 12.9283 4.23079   1
  -6  -6   6 24.4342 8.56627   2
   6  -6  -6 15.0743 3.11913   1
   5  -6  -6 39.6076 3.99323   1
  -5  -6   6 38.4763 5.37324   1
  -5  -6   6 50.5112 11.0143   2
   5  -6  -6 65.0921 10.7043   2
   4  -6  -6 43.6046 3.89541   1
   4  -6  -6 67.3500 11.3314   2
  -4  -6   6 41.1204 5.38059   1
  -4  -6   6 50.1428 10.9325   2
   3  -6  -6 5.24409 6.85714   2
   3  -6  -6 8.77059 2.44535   1
  -3  -6   6 4.38065 7.29435   2
  -3  -6   6 8.70502 3.27632   1
  -2  -6   6 28.4271 4.40877   1
   2  -6  -6 31.7578 3.58165   1
   2  -6  -6 37.7805 8.82072   2
  -2  -6   6 37.4139 10.0960   2
   1  -6  -6 17.2822 3.25369   1
  -1  -6   6 15.5848 7.46633   2
  -1  -6   6 20.2563 3.91880   1
   1  -6  -6 23.3345 8.17150   2
   0  -6   6 92.4291 6.36401   1
   0  -6  -6 65.8571 5.45923   1
   0  -6   6 79.8597 13.1838   2
   0  -6  -6 99.4766 13.2051   2
   1  -6   6 120.483 6.94217   1
  -1  -6  -6 164.775 16.5620   2
   1  -6   6 95.5839 13.2910   2
  -1  -6  -6 114.891 6.94984   1
  -2  -6  -6 17.6114 8.21270   2
   2  -6   6 18.3968 3.65962   1
   2  -6   6 26.0097 9.68842   2
  -2  -6  -6 7.29519 3.35756   1
  -3  -6  -6 44.5615 5.47724   1
  -3  -6  -6 46.7117 10.6002   2
   3  -6   6 44.5195 4.89399   1
   3  -6   6 47.5595 11.3912   2
  -4  -6  -6 140.963 16.9638   2
  -4  -6  -6 80.5655 7.27839   1
   4  -6   6 82.1759 13.2788   2
   4  -6   6 94.7696 6.79416   1
  -5  -6  -6 -0.0048 8.08579   2
   5  -6   6 2.80615 3.09179   1
  -5  -6  -6 3.12929 3.84636   1
  -5  -6  -6 3.01076 3.66803   1
   5  -6   6 -1.3300 7.84255   2
  -6  -6  -6 12.9834 4.79526   1
  -6  -6  -6 21.9848 10.2506   2
   6  -6   6 11.6766 3.99427   1
   7  -6   6 83.7427 7.53596   1
  -7  -6  -6 83.6614 8.71250   1
  -7  -6  -6 123.360 16.8508   2
  -8  -6  -6 141.731 18.1474   2
  -8  -6  -6 112.998 10.3722   1
   8  -6   6 100.129 8.61494   1
  -9  -6  -6 3.19586 4.85599   1
  -9  -6  -6 7.94433 9.58349   2
   9  -6   6 3.67779 4.33502   1
 -10  -6  -6 22.7432 6.62763   1
  10  -6   6 18.4285 5.58741   1
 -10  -6  -6 30.6813 11.9701   2
  -1  -7   6 14.1035 3.94585   1
   1  -7  -6 10.2224 3.16972   1
  -1  -7   6 10.6363 8.11854   2
   0  -7   6 2.72203 3.13479   1
   0  -7  -6 -0.6904 2.68336   1
   0  -7  -6 12.4783 6.40708   2
   0  -7   6 2.39326 8.25373   2
   1  -7   6 26.7876 4.43373   1
   1  -7   6 26.3904 11.1573   2
  -1  -7  -6 62.7440 10.9941   2
  -1  -7  -6 19.2329 4.12222   1
   2  -7   6 43.7169 12.7587   2
   2  -7   6 31.9605 4.62879   1
  -2  -7  -6 36.5864 5.15193   1
  -3  -7  -6 0.26896 3.33994   1
   3  -7   6 -3.4780 7.33165   2
 -22   0   7 -2.5823 8.76781   2
  22   0  -7 -8.3740 6.00682   1
 -21   0   7 2.05295 9.01982   2
  21   0  -7 13.3703 7.32334   1
  20   0  -7 7.37703 6.18344   1
 -20   0   7 -15.874 7.96680   2
 -19   0   7 3.99037 5.26284   1
 -19   0   7 -16.149 7.91982   2
  19   0  -7 7.19824 6.13373   1
 -18   0   7 -13.524 8.00179   2
 -18   0   7 -4.7766 4.16817   1
  18   0  -7 -0.4508 4.69707   1
  17   0  -7 -1.8236 4.77690   1
 -17   0   7 -2.8107 4.38713   1
 -17   0   7 2.44218 8.62427   2
  16   0  -7 -8.6103 4.38462   1
 -16   0   7 -0.7464 3.70954   3
 -16   0   7 -10.218 3.76881   1
 -16   0   7 -4.1919 7.37783   2
 -15   0   7 -2.9540 2.39620   3
  15   0  -7 -6.0162 3.88872   1
 -15   0   7 -2.6128 3.68190   1
 -15   0   7 -6.0167 7.47760   2
 -14   0   7 -5.3496 6.87122   2
 -14   0   7 -1.9625 2.53423   3
 -14   0   7 -7.9395 3.48439   1
  14   0  -7 -5.0201 3.76628   1
 -13   0   7 -2.7275 5.98319   2
  13   0  -7 0.95835 4.08374   1
 -13   0   7 -1.3320 2.29125   3
 -13   0   7 4.17239 3.81609   1
 -12   0   7 0.73075 2.01112   3
  12   0  -7 5.02328 3.38570   1
 -12   0   7 2.88248 5.64747   2
 -12   0   7 3.74692 3.10372   1
 -11   0   7 -3.1514 4.53071   2
 -11   0   7 -0.5779 2.68640   1
 -11   0   7 0.57605 1.86163   3
  11   0  -7 -0.3559 2.92712   1
 -10   0   7 -0.1710 2.45359   1
  10   0  -7 -0.3962 2.49556   1
 -10   0   7 1.33495 3.79067   2
 -10   0   7 0.79731 1.59468   3
  -9   0   7 -0.0501 1.43574   3
  -9   0   7 -2.1267 2.08914   1
  -9   0   7 -0.8861 3.03429   2
   9   0  -7 -0.7227 2.31158   1
  -8   0   7 -1.8999 1.85220   1
  -8   0   7 -0.4066 2.52485   2
  -8   0   7 0.20106 1.38851   3
   8   0  -7 3.81179 2.35051   1
  -7   0   7 0.51637 2.08761   1
   7   0  -7 1.11016 2.06822   1
  -7   0   7 -1.4610 2.04736   2
  -7   0   7 -0.9488 1.28284   3
  -6   0   7 -1.0066 1.38888   3
   6   0  -7 -1.0556 2.00173   1
  -6   0   7 0.89988 2.00863   1
  -6   0   7 -1.5065 1.87723   2
  -5   0   7 -0.3558 1.19703   3
   5   0  -7 3.97988 2.09831   1
  -5   0   7 -0.6011 1.56596   2
  -5   0   7 -1.5852 1.67835   1
  -4   0   7 1.90083 1.54946   2
  -4   0   7 -1.6003 1.52934   1
   4   0  -7 1.57426 1.77412   1
  -3   0   7 -1.3644 1.29964   2
   3   0  -7 -0.5986 1.72224   1
  -3   0   7 -2.4222 1.68198   1
  -2   0   7 -1.1362 1.59525   1
  -2   0   7 -0.2843 1.30029   2
   2   0  -7 -0.1294 1.47145   1
  -1   0   7 -1.7865 1.58212   1
  -1   0   7 -0.2153 1.48186   2
   1   0  -7 -2.2225 1.49246   1
   0   0   7 0.64408 1.80442   1
   0   0  -7 1.04630 1.37358   3
   0   0  -7 -0.2222 1.49648   1
  -1   0  -7 -1.8797 1.22178   3
  -1   0  -7 -0.7262 1.68377   1
   1   0   7 -1.6023 1.23512   3
   1   0   7 -1.1001 1.96442   1
   2   0   7 -4.3476 1.31253   3
   2   0   7 -3.7412 1.77381   1
  -2   0  -7 -2.2830 2.12500   1
  -2   0  -7 -2.9602 1.44943   3
   3   0   7 -1.2650 2.14550   1
  -3   0  -7 -2.5994 1.68711   1
  -3   0  -7 -2.8266 1.37855   3
   3   0   7 -2.0880 1.39858   3
  -4   0  -7 -0.8882 2.03388   1
  -4   0  -7 -1.5997 1.31087   3
   4   0   7 -0.4700 2.13878   1
   4   0   7 3.97358 1.85072   3
  -5   0  -7 0.41096 1.60483   3
   5   0   7 1.09815 1.52858   3
   5   0   7 -0.5260 2.16565   1
  -5   0  -7 -2.5323 2.01445   1
  -6   0  -7 -0.9364 2.47283   1
   6   0   7 2.76580 2.65532   1
   6   0   7 0.11554 1.68584   3
  -6   0  -7 -0.2747 1.34053   3
  -6   0  -7 0.01554 2.68269   1
  -7   0  -7 1.06469 2.50752   1
   7   0   7 -0.0309 1.72885   3
  -7   0  -7 -2.2259 1.55789   3
  -7   0  -7 -2.8902 2.14834   1
   7   0   7 -0.5860 2.70169   1
   8   0   7 1.54799 2.89667   1
   8   0   7 0.15667 1.72004   3
  -8   0  -7 2.46265 2.99270   1
  -8   0  -7 -0.6537 1.54964   3
   9   0   7 -2.5073 3.02169   1
  -9   0  -7 0.66855 3.00427   1
   9   0   7 -0.7801 2.00002   3
  -9   0  -7 -2.9916 1.53719   3
  10   0   7 0.82552 2.43335   3
  10   0   7 -0.4604 3.08167   1
 -10   0  -7 1.13930 2.07419   3
 -10   0  -7 -1.5617 3.13713   1
  11   0   7 -2.0423 3.46962   1
  11   0   7 -1.0660 2.28997   3
 -11   0  -7 -2.5156 2.13307   3
 -11   0  -7 -3.0497 3.36686   1
 -12   0  -7 -6.2506 3.94315   1
 -12   0  -7 -3.1948 2.55438   3
  12   0   7 -0.5422 4.66426   1
  13   0   7 -1.1173 4.73588   1
 -13   0  -7 -5.8774 2.52637   3
 -13   0  -7 0.52980 4.79406   1
  14   0   7 -1.1654 4.48692   1
 -14   0  -7 0.87884 3.24003   3
 -14   0  -7 1.57710 4.83598   1
 -15   0  -7 -2.4254 5.04207   1
  15   0   7 0.00879 4.93677   1
 -16   0  -7 8.58358 5.63050   1
  16   0   7 0.63586 5.28766   1
  17   0   7 -0.7857 5.52922   1
 -17   0  -7 2.82150 5.59376   1
  18   0   7 5.81010 6.82665   1
  19   0   7 -4.2799 6.14475   1
 -21  -1   7 42.7421 8.58798   1
 -21  -1   7 38.5185 9.78028   2
  21  -1  -7 28.1438 8.72881   1
  21   1  -7 31.6170 8.11575   1
 -20  -1   7 1.44157 3.35649   3
 -20  -1   7 4.78441 5.60254   1
 -20  -1   7 5.44259 6.70173   2
  20  -1  -7 -1.9040 6.08751   1
  20   1  -7 -5.6992 5.18880   1
 -19  -1   7 48.0635 10.2009   2
  19  -1  -7 34.4801 8.49149   1
 -19  -1   7 31.3167 7.62616   1
 -19  -1   7 49.1276 6.50119   3
  19   1  -7 32.2101 7.28363   1
 -18  -1   7 4.77508 6.13966   2
  18  -1  -7 -12.090 4.29903   1
 -18  -1   7 -0.7899 2.86535   3
 -18  -1   7 -3.0573 4.66000   1
  18   1  -7 -4.5939 4.72240   1
 -17  -1   7 23.2509 7.69793   2
 -17  -1   7 23.7379 4.36581   3
  17  -1  -7 33.6640 7.21515   1
 -17  -1   7 28.9258 6.73683   1
  17   1  -7 22.2700 6.18289   1
 -16  -1   7 3.11877 5.60126   2
 -16  -1   7 1.31850 3.11010   3
  16  -1  -7 -4.3341 4.80232   1
 -16  -1   7 -4.8282 4.60336   1
 -16   1   7 1.51294 4.30118   1
  16   1  -7 3.13722 5.01364   1
 -15  -1   7 74.5283 10.5319   2
 -15  -1   7 65.7646 8.17929   1
 -15  -1   7 61.0232 6.51238   3
  15  -1  -7 63.9798 8.07893   1
 -15   1   7 59.2618 6.93307   1
  15   1  -7 63.3765 8.17307   1
 -14  -1   7 234.625 12.4222   1
 -14  -1   7 232.385 14.6367   2
 -14  -1   7 235.107 9.94218   3
  14  -1  -7 239.727 12.6478   1
 -14   1   7 212.570 10.8337   1
  14   1  -7 239.782 12.2863   1
  13  -1  -7 435.960 15.8986   1
 -13  -1   7 415.696 18.2540   2
 -13  -1   7 433.449 15.4911   1
 -13  -1   7 444.726 13.1652   3
  13   1  -7 442.112 15.7404   1
 -13   1   7 429.018 14.3843   1
 -12  -1   7 19.7087 5.61265   2
 -12  -1   7 19.9184 4.52759   1
 -12  -1   7 25.0213 3.62851   3
  12  -1  -7 23.5903 5.24450   1
 -12   1   7 20.6497 4.08201   1
  12   1  -7 25.5427 4.76094   1
 -11  -1   7 1033.61 21.4298   3
  11  -1  -7 1046.62 24.5406   1
 -11  -1   7 1034.69 27.7224   2
 -11  -1   7 1066.88 24.5074   1
 -11   1   7 1018.61 22.6700   1
  11   1  -7 1046.89 24.3843   1
 -10  -1   7 13.5380 4.47771   2
  10  -1  -7 13.1594 3.75560   1
 -10  -1   7 11.1317 2.59309   3
 -10  -1   7 18.0645 3.89740   1
 -10   1   7 7.81314 2.89539   1
  10   1  -7 4.46161 3.20035   1
  -9  -1   7 278.654 8.82005   3
  -9  -1   7 264.281 10.4634   1
  -9  -1   7 268.389 12.2580   2
   9  -1  -7 269.756 10.4545   1
   9   1  -7 277.423 10.5774   1
  -9   1   7 250.230 9.18169   1
   8  -1  -7 281.518 10.4303   1
  -8  -1   7 282.629 10.4872   1
  -8  -1   7 296.983 12.1592   2
  -8  -1   7 298.968 8.80111   3
   8   1  -7 300.605 10.5517   1
  -8   1   7 280.506 9.37895   1
   7  -1  -7 11.7321 3.02375   1
  -7  -1   7 12.4491 3.62719   2
  -7  -1   7 13.1279 3.33751   1
  -7  -1   7 9.76821 2.14385   3
  -7   1   7 8.40830 2.57710   1
   7   1  -7 5.48711 2.70474   1
  -6  -1   7 184.289 6.24393   3
   6  -1  -7 199.803 7.75905   1
  -6  -1   7 184.481 7.72616   1
  -6  -1   7 193.618 9.11826   2
   6   1  -7 177.373 7.56607   1
  -6   1   7 188.864 7.02772   1
  -5  -1   7 613.804 14.5971   1
   5  -1  -7 628.147 14.5024   1
  -5  -1   7 643.233 16.5536   2
  -5  -1   7 627.204 12.7540   3
   5   1  -7 607.526 14.4156   1
  -5   1   7 638.269 13.7640   1
  -4  -1   7 127.549 4.91037   3
  -4  -1   7 129.821 6.90394   2
   4  -1  -7 124.054 5.80402   1
  -4  -1   7 126.881 4.73976   3
  -4   1   7 129.066 3.33052   2
  -4   1   7 140.565 5.67241   1
   4   1  -7 124.911 5.89480   1
  -3  -1   7 139.022 4.92745   3
   3  -1  -7 148.592 6.16192   1
  -3  -1   7 134.262 6.07144   1
  -3  -1   7 145.392 4.89084   3
  -3  -1   7 149.888 7.06148   2
   3   1  -7 152.078 6.21850   1
  -3   1   7 130.750 5.43556   1
  -2  -1   7 1857.89 28.6007   3
  -2  -1   7 1831.18 28.6975   3
  -2  -1   7 1805.05 32.6296   2
  -2  -1   7 1819.11 30.8802   1
   2  -1  -7 1839.90 30.8045   1
  -2   1   7 1882.90 30.1108   1
   2   1  -7 1777.15 30.4753   1
   1  -1  -7 5520.46 80.5167   1
  -1  -1   7 5517.92 80.7288   1
  -1  -1   7 5466.69 82.9424   2
  -1  -1   7 5479.15 78.1430   3
   1  -1  -7 5401.07 76.0072   2
  -1   1   7 5593.99 79.8660   1
   1   1  -7 5488.76 80.2184   1
   0  -1   7 2015.14 35.5916   2
   0  -1   7 1995.03 33.3138   1
   0  -1  -7 2007.46 33.4378   1
   0  -1   7 2019.04 30.9890   3
   0   1  -7 1996.09 32.9459   1
   0   1   7 1997.20 32.6866   1
  -1  -1  -7 6.92903 2.33391   1
   1  -1   7 6.51126 2.96899   2
   1  -1   7 8.38290 1.69225   3
   1  -1   7 6.49296 2.26181   1
   1   1   7 5.20494 2.19625   1
  -1   1  -7 4.96624 2.07303   1
   2  -1   7 71.1845 4.91040   1
   2  -1   7 62.1670 3.38484   3
  -2  -1  -7 60.7823 4.72680   1
  -2  -1  -7 61.5521 3.52225   3
   2   1   7 65.7526 4.73605   1
  -2   1  -7 69.3221 4.58894   1
   3  -1   7 437.672 9.86963   3
  -3  -1  -7 449.964 12.4101   1
  -3  -1  -7 441.375 10.1281   3
   3  -1   7 457.612 12.2370   1
   3   1   7 445.786 11.9802   1
  -3   1  -7 445.786 11.8031   1
   4  -1   7 -1.6680 1.18650   3
   4  -1   7 -0.4800 2.30203   1
  -4  -1  -7 2.03572 2.35621   1
  -4  -1  -7 0.84530 1.62608   3
   4   1   7 1.25649 2.24924   1
  -4   1  -7 2.56508 2.20288   1
   5  -1   7 4.11958 2.56466   1
  -5  -1  -7 2.86688 2.59412   1
  -5  -1  -7 1.45739 1.64890   3
   5  -1   7 2.20947 1.48067   3
  -5   1  -7 -0.4547 2.22267   1
   5   1   7 -1.1214 2.19853   1
  -5   1  -7 -3.5097 2.01944   1
   6  -1   7 2.63796 2.85755   1
  -6  -1  -7 2.52393 2.99671   1
  -6  -1  -7 1.75396 1.91786   3
   6  -1   7 6.27715 1.98138   3
   6   1   7 8.07924 3.08682   1
  -6   1  -7 1.54657 2.49023   1
   7  -1   7 185.926 6.75234   3
  -7  -1  -7 177.511 9.05450   1
  -7  -1  -7 165.552 6.97889   3
   7  -1   7 175.907 8.94422   1
  -7  -1  -7 164.156 8.94792   1
   7   1   7 173.713 8.73124   1
  -7   1  -7 178.688 8.40599   1
  -8  -1  -7 678.656 18.6224   1
   8  -1   7 674.140 18.5380   1
  -8  -1  -7 656.932 15.7257   3
  -8  -1  -7 648.089 18.4840   1
   8  -1   7 668.419 14.8751   3
  -8   1  -7 651.369 16.2747   3
   8   1   7 680.341 18.2848   1
  -8   1  -7 676.576 17.6224   1
  -9  -1  -7 -1.4980 3.27870   1
   9  -1   7 4.47979 3.59087   1
  -9  -1  -7 -1.0585 1.92607   3
   9  -1   7 0.52904 1.92715   3
  -9   1  -7 1.47562 2.40105   3
  -9   1  -7 -1.7251 2.82086   1
   9   1   7 -0.0289 3.17092   1
  10  -1   7 161.724 7.24227   3
 -10  -1  -7 157.947 7.92120   3
 -10  -1  -7 148.006 9.56035   1
  10  -1   7 154.630 10.0986   1
  10   1   7 143.199 9.58329   1
 -10   1  -7 155.201 8.28084   3
 -10   1  -7 148.134 9.06438   1
  11  -1   7 219.347 8.71652   3
 -11  -1  -7 237.375 9.97781   3
  11  -1   7 226.254 12.2964   1
 -11  -1  -7 245.930 12.6382   1
 -11   1  -7 220.861 11.2611   1
  11   1   7 210.465 11.8922   1
  12  -1   7 234.868 13.3265   1
  12  -1   7 250.271 9.60966   3
 -12  -1  -7 246.501 13.2953   1
 -12  -1  -7 264.668 10.8718   3
 -12   1  -7 265.497 12.9448   1
  12   1   7 239.596 13.0643   1
 -13  -1  -7 21.5127 6.16554   1
 -13  -1  -7 31.8721 5.34347   3
  13  -1   7 32.0599 4.41834   3
  13  -1   7 36.8255 7.41789   1
 -13   1  -7 44.6115 7.01693   1
  13   1   7 36.3574 7.10693   1
 -14  -1  -7 2.93109 4.65918   1
  14  -1   7 1.19363 2.65002   3
  14  -1   7 1.32237 5.23582   1
 -14  -1  -7 2.06756 2.91008   3
 -14   1  -7 3.78507 5.27016   1
  14   1   7 1.98097 4.80688   1
 -15  -1  -7 123.749 8.73509   3
  15  -1   7 124.304 11.9712   1
 -15  -1  -7 128.409 11.9514   1
  15  -1   7 122.587 7.68913   3
  15   1   7 119.994 11.3675   1
 -16  -1  -7 257.502 15.4357   1
  16  -1   7 220.130 10.0435   3
  16  -1   7 261.607 16.2000   1
 -16  -1  -7 244.429 11.9422   3
  16   1   7 228.753 15.2001   1
  17  -1   7 27.8972 7.98322   1
 -17  -1  -7 31.0631 8.15006   1
 -17  -1  -7 25.9909 5.70092   3
  17   1   7 28.4992 7.51509   1
 -18  -1  -7 -0.1834 3.42451   3
  18  -1   7 0.89405 6.15365   1
 -18  -1  -7 1.57838 5.98233   1
  18   1   7 -1.6623 5.82575   1
 -19  -1  -7 78.7366 11.2468   1
  19  -1   7 82.0075 12.3598   1
 -21  -2   7 3.28557 6.34974   1
  21  -2  -7 -0.7292 6.62867   1
 -21  -2   7 -2.8781 3.08346   3
 -21  -2   7 0.51749 7.17621   2
 -20  -2   7 -0.9609 5.88792   1
 -20  -2   7 -5.9943 2.56132   3
 -20  -2   7 6.69055 6.84739   2
  20  -2  -7 11.9093 6.92044   1
 -19  -2   7 -0.0830 5.24030   1
 -19  -2   7 1.79933 3.08154   3
  19  -2  -7 1.81654 5.46269   1
 -19  -2   7 1.29577 6.34962   2
 -18  -2   7 25.6638 8.82922   2
 -18  -2   7 17.5201 4.32188   3
  18  -2  -7 22.5759 6.96999   1
 -18  -2   7 26.5800 7.25497   1
 -17  -2   7 16.8419 4.23412   3
 -17  -2   7 13.1740 6.28295   1
  17  -2  -7 16.3891 5.84802   1
 -17  -2   7 25.0429 8.08667   2
  17   2  -7 17.7634 6.00835   1
 -16  -2   7 85.6789 7.20101   3
  16  -2  -7 90.8079 10.2787   1
 -16  -2   7 88.4187 12.4938   2
 -16  -2   7 77.3510 9.29912   1
  16   2  -7 101.027 10.0640   1
 -15  -2   7 16.8683 3.93858   3
 -15  -2   7 9.51709 6.29751   2
 -15  -2   7 23.6704 6.37104   1
  15  -2  -7 14.5289 5.41618   1
  15   2  -7 24.8159 5.74730   1
 -14  -2   7 0.85206 2.25412   3
 -14  -2   7 4.05827 4.75905   1
  14  -2  -7 -2.5766 4.05612   1
 -14  -2   7 3.89666 5.31117   2
  14   2  -7 -0.4035 3.91464   1
 -13  -2   7 16.0108 3.29591   3
 -13  -2   7 18.7478 6.77400   2
  13  -2  -7 22.4141 5.56813   1
 -13  -2   7 22.1402 5.85137   1
  13   2  -7 10.0667 4.78249   1
 -12  -2   7 300.660 16.3578   2
  12  -2  -7 287.480 12.9830   1
 -12  -2   7 301.750 13.4342   1
 -12  -2   7 319.594 10.1239   3
  12   2  -7 305.013 12.7114   1
  11  -2  -7 174.144 9.72506   1
 -11  -2   7 201.315 7.64585   3
 -11  -2   7 199.094 13.2692   2
 -11  -2   7 186.333 10.4942   1
 -11   2   7 199.186 8.40858   1
  11   2  -7 198.626 9.91479   1
 -10  -2   7 762.090 20.5475   1
 -10  -2   7 812.712 16.8067   3
 -10  -2   7 842.433 25.4964   2
  10  -2  -7 814.128 20.3069   1
 -10   2   7 817.483 17.5429   1
  10   2  -7 798.430 19.8994   1
  -9  -2   7 798.108 24.1720   2
  -9  -2   7 814.972 20.4322   1
  -9  -2   7 826.017 16.4352   3
   9  -2  -7 821.169 19.6923   1
  -9   2   7 826.730 18.2548   1
   9   2  -7 836.148 19.7248   1
  -8  -2   7 356.808 9.22703   3
  -8  -2   7 371.401 12.4747   1
   8  -2  -7 377.075 11.8549   1
  -8  -2   7 367.294 15.3664   2
  -8  -2   7 369.503 9.18768   3
   8   2  -7 376.327 11.8018   1
  -7  -2   7 3360.82 49.8793   3
   7  -2  -7 3396.37 53.8360   1
  -7  -2   7 3298.14 60.5463   2
  -7  -2   7 3323.23 54.8095   1
  -7  -2   7 3445.33 50.1243   3
   7   2  -7 3387.02 53.8650   1
  -6  -2   7 2027.23 35.9750   1
  -6  -2   7 2054.11 31.2740   3
  -6  -2   7 2072.42 41.4567   2
  -6  -2   7 2062.25 31.3531   3
   6  -2  -7 2009.91 34.8038   1
   6   2  -7 2057.75 35.0574   1
  -5  -2   7 298.785 6.60085   3
  -5  -2   7 307.714 6.61005   3
   5  -2  -7 293.803 9.19742   1
  -5  -2   7 281.152 9.70449   1
  -5  -2   7 310.757 12.9956   2
   5   2  -7 293.843 9.08421   1
  -4  -2   7 62.4732 4.81567   1
  -4  -2   7 64.2365 2.47255   3
  -4  -2   7 57.9480 6.55526   2
  -4  -2   7 59.5655 2.47249   3
   4  -2  -7 62.1583 4.44934   1
   4   2  -7 66.0315 4.38078   1
  -3  -2   7 1066.79 25.4899   2
  -3  -2   7 1076.55 20.8383   1
   3  -2  -7 1113.14 20.4251   1
   3   2  -7 1035.20 19.5450   1
  -2  -2   7 1479.05 31.6250   2
   2  -2  -7 1547.47 26.5118   1
   2  -2  -7 1516.59 24.4065   2
  -2  -2   7 1535.16 27.0354   1
   2   2  -7 1546.30 25.6893   1
   1  -2  -7 167.926 5.76735   2
   1  -2  -7 163.988 6.59128   1
  -1  -2   7 178.457 7.00747   1
  -1  -2   7 175.144 9.39780   2
   1   2  -7 174.930 6.39672   1
   0  -2   7 1083.30 20.8571   1
   0  -2  -7 1085.02 20.2916   2
   0  -2  -7 1127.41 21.0857   1
   0  -2   7 1100.66 25.7502   2
   0   2  -7 1081.04 24.2702   1
  -1  -2  -7 5801.69 85.0314   1
  -1  -2  -7 5574.50 84.9532   2
   1  -2   7 5858.16 91.8116   2
   1  -2   7 5909.04 85.1198   1
  -1   2  -7 5675.82 89.4068   1
   2  -2   7 1195.19 27.9312   2
  -2  -2  -7 1154.63 22.5716   1
   2  -2   7 1166.27 22.4000   1
  -2  -2  -7 1147.53 23.3162   2
   2   2   7 1112.02 20.8661   1
  -2   2  -7 1146.48 21.3589   1
   3  -2   7 2.70571 2.33630   1
  -3  -2  -7 4.01922 2.41637   1
  -3  -2  -7 4.95401 2.74124   2
   3   2   7 3.31531 2.14325   1
  -3   2  -7 6.21225 2.16930   1
  -3   2  -7 0.54175 1.96908   1
   4  -2   7 492.909 13.4717   1
  -4  -2  -7 499.112 13.8734   1
  -4  -2  -7 506.235 15.2528   2
   4   2   7 492.236 12.6304   1
  -4   2  -7 479.187 11.8740   1
   5  -2   7 31.2473 4.24323   1
  -5  -2  -7 23.2062 4.15460   1
  -5  -2  -7 31.6014 5.41650   2
  -5   2  -7 32.7216 3.73019   1
   5   2   7 28.5778 3.92312   1
   6  -2   7 263.082 10.4286   1
  -6  -2  -7 255.462 13.2532   2
  -6  -2  -7 252.473 7.19844   3
  -6  -2  -7 250.456 10.5073   1
   6   2   7 261.391 9.89031   1
  -6   2  -7 246.578 8.83370   1
   7  -2   7 262.636 10.8761   1
  -7  -2  -7 237.995 7.51081   3
  -7  -2  -7 254.793 11.0777   1
  -7  -2  -7 260.459 14.3246   2
   7   2   7 240.616 9.98273   1
  -7   2  -7 261.019 9.40018   1
  -8  -2  -7 343.609 9.72905   3
  -8  -2  -7 368.911 13.7636   1
  -8  -2  -7 368.417 17.7609   2
  -8  -2  -7 337.222 13.3025   1
   8  -2   7 349.928 13.0864   1
   8  -2   7 343.833 7.12998   3
  -8   2  -7 340.020 11.3064   1
   8   2   7 347.091 12.5369   1
   9  -2   7 30.3392 5.29389   1
  -9  -2  -7 44.1427 9.29120   2
  -9  -2  -7 30.7936 3.71357   3
  -9  -2  -7 30.8532 5.34081   1
  -9  -2  -7 24.7666 5.31977   1
   9  -2   7 39.5318 2.77119   3
  -9   2  -7 41.6482 5.22419   1
   9   2   7 32.5111 5.48044   1
 -10  -2  -7 251.730 12.7988   1
 -10  -2  -7 216.022 8.53618   3
  10  -2   7 227.750 11.9001   1
  10  -2   7 225.501 6.29572   3
  10   2   7 231.945 11.4055   1
 -11  -2  -7 1062.02 22.4896   3
  11  -2   7 1112.40 19.1070   3
  11  -2   7 1136.04 28.2196   1
 -11  -2  -7 1120.82 28.8438   1
  11   2   7 1134.86 27.6480   1
  12  -2   7 35.4286 6.99946   1
 -12  -2  -7 31.8618 4.52572   3
 -12  -2  -7 28.8256 6.47904   1
  12  -2   7 22.6907 2.75529   3
  12   2   7 33.1599 6.49450   1
 -13  -2  -7 257.152 14.4610   1
  13  -2   7 258.727 7.55213   3
 -13  -2  -7 250.334 10.4361   3
 -13  -2  -7 286.601 22.4268   2
  13  -2   7 301.324 15.3789   1
  13   2   7 276.163 14.0458   1
 -14  -2  -7 27.9112 6.99205   1
  14  -2   7 26.8556 3.10727   3
  14  -2   7 34.8399 7.34568   1
 -14  -2  -7 36.5861 5.03011   3
 -14  -2  -7 37.0623 12.6016   2
 -15  -2  -7 17.9975 6.46904   1
 -15  -2  -7 7.46343 11.8730   2
  15  -2   7 25.5903 6.89127   1
 -15  -2  -7 19.4603 4.22739   3
  15  -2   7 20.0763 2.82368   3
  16  -2   7 -3.8183 5.25805   1
 -16  -2  -7 -10.669 9.69753   2
 -16  -2  -7 3.46820 5.62843   1
 -16  -2  -7 4.31630 3.43267   3
  17  -2   7 -0.0048 5.77950   1
 -17  -2  -7 -15.926 11.0537   2
 -17  -2  -7 1.21542 5.87425   1
 -17  -2  -7 2.42050 3.14258   3
 -18  -2  -7 20.0406 13.5623   2
 -18  -2  -7 29.8913 8.31137   1
 -18  -2  -7 28.9155 5.32747   3
  18  -2   7 40.9069 9.38712   1
  20  -3  -7 1.02795 6.52352   1
 -20  -3   7 1.55384 6.46012   1
 -20  -3   7 -5.4521 2.44649   3
 -20  -3   7 0.40402 7.20033   2
  19  -3  -7 22.0537 7.08677   1
 -19  -3   7 16.8121 7.07584   1
 -19  -3   7 17.2031 9.09482   2
 -19  -3   7 15.8531 3.73365   3
 -18  -3   7 5.99728 5.91998   1
 -18  -3   7 4.79279 6.26881   2
  18  -3  -7 3.22067 5.78194   1
 -18  -3   7 6.67255 2.94824   3
  17  -3  -7 0.92748 5.24289   1
 -17  -3   7 2.55878 2.58797   3
 -17  -3   7 -5.3335 5.26730   1
 -17  -3   7 5.48539 6.83391   2
 -16  -3   7 24.1566 3.52829   3
 -16  -3   7 26.3409 6.91192   1
  16  -3  -7 13.6282 5.66314   1
 -16  -3   7 22.8622 8.13249   2
 -15  -3   7 18.7155 7.62330   2
  15  -3  -7 4.21898 5.02420   1
 -15  -3   7 11.3207 5.94596   1
 -15  -3   7 8.26098 2.57593   3
 -14  -3   7 10.6703 2.52897   3
 -14  -3   7 5.45331 5.39868   1
  14  -3  -7 -1.5689 4.37176   1
 -14  -3   7 3.22432 6.13978   2
 -14  -3   7 7.76337 2.24065   3
 -13  -3   7 140.556 11.1795   1
  13  -3  -7 135.655 10.4105   1
 -13  -3   7 108.538 12.7107   2
 -13  -3   7 143.907 5.62445   3
 -13  -3   7 133.503 5.60990   3
 -12  -3   7 21.0771 7.72398   2
  12  -3  -7 21.2833 5.11720   1
 -12  -3   7 25.5096 2.64249   3
 -12  -3   7 26.7322 2.57774   3
 -12  -3   7 25.0035 6.10831   1
 -11  -3   7 125.451 13.4454   2
  11  -3  -7 107.730 8.59661   1
 -11  -3   7 96.4298 8.91307   1
 -10  -3   7 28.9053 5.43224   1
 -10  -3   7 25.8577 7.32457   2
  10  -3  -7 43.2931 5.77263   1
  -9  -3   7 4.55719 3.81831   1
  -9  -3   7 3.39188 5.03583   2
   9  -3  -7 1.29567 3.07877   1
   9   3  -7 0.18123 2.64039   1
   8  -3  -7 33.7344 4.50140   1
  -8  -3   7 38.8101 5.32166   1
  -8  -3   7 26.7971 6.15590   2
   8   3  -7 41.9153 4.52845   1
  -7  -3   7 525.658 15.0571   1
  -7  -3   7 502.348 19.8041   2
   7  -3  -7 506.215 13.5659   1
  -6  -3   7 43.7269 7.42758   2
   6  -3  -7 42.5331 4.19836   1
  -6  -3   7 28.3142 4.10616   1
   5  -3  -7 24.8088 3.25682   1
  -5  -3   7 25.2964 6.15844   2
  -5  -3   7 26.0986 3.80982   1
   5  -3  -7 28.3301 4.27719   1
  -4  -3   7 17.1843 3.29553   1
  -4  -3   7 13.1115 5.22396   2
   4  -3  -7 13.4381 2.59556   1
   4  -3  -7 10.3765 2.86628   2
   4  -3  -7 11.8795 2.34080   1
   3  -3  -7 296.399 8.66844   1
   3  -3  -7 286.349 8.26677   1
  -3  -3   7 303.920 9.72433   1
  -3  -3   7 320.449 14.7219   2
   3  -3  -7 301.605 9.88948   2
  -2  -3   7 115.686 9.64504   2
  -2  -3   7 128.126 6.24006   1
   2  -3  -7 126.123 5.40905   1
   2  -3  -7 128.763 5.71094   1
   2  -3  -7 124.228 6.69936   2
   1  -3  -7 16.6311 3.28448   2
   1  -3  -7 16.1841 2.95406   1
  -1  -3   7 15.9897 2.92525   1
  -1  -3   7 15.9906 5.16126   2
   1  -3  -7 13.9078 2.61633   1
   0  -3   7 56.3168 7.23196   2
   0  -3  -7 70.1164 5.69364   2
   0  -3  -7 69.7663 4.88388   1
   0  -3   7 67.8722 4.98118   1
   1  -3   7 359.427 15.8997   2
  -1  -3  -7 372.331 12.4374   2
  -1  -3  -7 371.485 10.7124   1
   1  -3   7 372.591 10.6769   1
  -2  -3  -7 793.657 20.1647   2
   2  -3   7 788.932 24.2122   2
  -2  -3  -7 777.316 17.4976   1
   2  -3   7 798.517 17.3486   1
   3  -3   7 5.46248 4.60346   2
  -3  -3  -7 6.28107 2.71417   1
  -3  -3  -7 0.30194 2.87432   2
   3  -3   7 3.77907 2.56242   1
  -4  -3  -7 1.35457 2.56418   1
  -4  -3  -7 0.60185 3.00999   2
   4  -3   7 2.00778 3.80484   2
   4  -3   7 3.25132 2.66131   1
   5  -3   7 310.260 10.9276   1
  -5  -3  -7 306.071 13.7048   2
  -5  -3  -7 301.732 11.6357   1
  -6  -3  -7 209.078 10.1184   1
   6  -3   7 217.252 9.72734   1
  -6  -3  -7 208.659 12.3699   2
   7  -3   7 23.6399 4.96705   1
  -7  -3  -7 44.6552 7.41235   2
  -7  -3  -7 37.5646 5.69158   1
  -8  -3  -7 66.0584 7.27602   1
  -8  -3  -7 58.3262 7.02947   1
  -8  -3  -7 70.5336 9.11357   2
   8  -3   7 67.5000 7.16527   1
  -9  -3  -7 4.83661 4.22975   1
  -9  -3  -7 8.63028 4.60626   1
  -9  -3  -7 -1.1355 4.38529   2
   9  -3   7 4.51675 4.26897   1
 -10  -3  -7 181.991 14.4723   2
  10  -3   7 188.930 11.6490   1
 -10  -3  -7 154.694 11.2801   1
 -11  -3  -7 44.6641 7.59365   1
  11  -3   7 40.9382 6.89934   1
 -11  -3  -7 70.3067 10.7166   2
 -12  -3  -7 3.22314 5.57908   2
 -12  -3  -7 4.55275 5.21312   1
  12  -3   7 3.57891 4.85819   1
 -13  -3  -7 18.1680 2.84387   3
 -13  -3  -7 21.9524 8.04817   2
  13  -3   7 26.7440 6.72500   1
 -13  -3  -7 14.7771 5.86674   1
  14  -3   7 12.1237 5.88409   1
 -14  -3  -7 11.7502 2.77698   3
 -14  -3  -7 6.51360 5.60828   1
 -14  -3  -7 23.5740 8.18583   2
  15  -3   7 -4.0134 5.05199   1
 -15  -3  -7 0.08200 2.18978   3
 -15  -3  -7 8.88597 6.82043   2
 -15  -3  -7 -1.1537 5.09106   1
 -16  -3  -7 11.2974 7.29843   2
 -16  -3  -7 -1.6466 5.43293   1
  16  -3   7 -2.0699 5.44502   1
 -16  -3  -7 5.40264 2.57047   3
 -17  -3  -7 4.60089 7.15500   2
  17  -3   7 -1.3714 6.36358   1
 -17  -3  -7 -1.0957 2.43314   3
 -17  -3  -7 -1.4704 6.18963   1
 -18  -4   7 7.28470 7.79952   2
 -18  -4   7 1.77681 6.00870   1
  18  -4  -7 3.27984 5.87397   1
  17  -4  -7 13.7415 6.43136   1
 -17  -4   7 15.8389 8.63612   2
 -17  -4   7 15.8932 6.81757   1
 -16  -4   7 15.3183 7.56195   2
 -16  -4   7 14.0887 6.23877   1
  16  -4  -7 13.5922 5.79796   1
  15  -4  -7 10.7613 5.05581   1
 -15  -4   7 7.93735 7.00624   2
 -15  -4   7 10.8189 6.13223   1
 -14  -4   7 37.4032 9.69736   2
 -14  -4   7 24.8849 6.67283   1
  14  -4  -7 29.6489 6.35224   1
 -13  -4   7 13.8643 5.69974   1
 -13  -4   7 10.0990 7.21056   2
  13  -4  -7 13.9666 4.96724   1
 -12  -4   7 11.2245 5.09200   1
 -12  -4   7 0.49499 5.91283   2
  12  -4  -7 4.94623 4.05251   1
 -11  -4   7 16.0143 7.02339   2
 -11  -4   7 12.7791 5.06852   1
  11  -4  -7 25.2337 5.23170   1
 -10  -4   7 60.8342 7.27621   1
 -10  -4   7 51.4965 10.0350   2
  10  -4  -7 68.8264 6.70398   1
   9  -4  -7 595.289 16.3587   1
  -9  -4   7 623.198 18.4786   1
  -9  -4   7 589.455 25.2149   2
  -8  -4   7 -7.5076 3.04548   1
  -8  -4   7 -2.7144 4.63435   2
   8  -4  -7 4.24093 3.10850   1
  -7  -4   7 23.4818 6.88673   2
  -7  -4   7 26.5368 4.93049   1
   7  -4  -7 29.5764 4.11972   1
   6  -4  -7 321.040 10.3688   1
   6  -4  -7 313.559 9.96821   1
  -6  -4   7 337.189 18.2190   2
  -6  -4   7 309.458 11.5268   1
   5  -4  -7 10.1647 2.88786   1
  -5  -4   7 14.1426 6.39962   2
   5  -4  -7 9.20874 2.53716   1
  -5  -4   7 8.55755 3.40246   1
   5  -4  -7 10.4670 4.47216   2
   4  -4  -7 187.996 6.95456   1
  -4  -4   7 196.665 8.74241   1
  -4  -4   7 210.660 14.6370   2
   4  -4  -7 184.307 7.19545   1
   4  -4  -7 196.237 10.5171   2
   3  -4  -7 1060.02 24.9620   2
   3  -4  -7 1051.14 20.1433   1
  -3  -4   7 1086.36 22.0662   1
   3  -4  -7 1060.01 19.7303   1
  -3  -4   7 1109.79 31.9539   2
   2  -4  -7 54.6010 4.44009   1
  -2  -4   7 59.2477 5.16003   1
   2  -4  -7 56.5015 4.25855   1
  -2  -4   7 64.6646 9.69183   2
   2  -4  -7 57.6408 6.64888   2
  -1  -4   7 168.480 7.20636   1
   1  -4  -7 161.653 6.79767   1
  -1  -4   7 173.567 12.8973   2
   1  -4  -7 169.540 6.68661   1
   1  -4  -7 168.009 10.0821   2
  -1  -4   7 173.706 7.63282   1
   0  -4   7 196.213 13.6769   2
   0  -4  -7 209.233 7.65284   1
   0  -4   7 198.743 7.94524   1
   0  -4  -7 207.568 10.8857   2
   0  -4   7 203.382 8.13479   1
   0  -4  -7 229.625 8.19658   1
   1  -4   7 246.426 8.91328   1
   1  -4   7 238.032 8.66105   1
  -1  -4  -7 229.880 8.47028   1
  -1  -4  -7 243.257 12.3194   2
  -1  -4  -7 236.578 8.89044   1
   1  -4   7 244.850 15.6071   2
   2  -4   7 433.675 16.1810   1
   2  -4   7 438.017 20.2227   2
  -2  -4  -7 457.872 13.0941   1
   2  -4   7 452.302 12.6586   1
  -2  -4  -7 439.660 16.5981   2
  -3  -4  -7 53.6221 5.49698   1
   3  -4   7 51.5353 9.00596   2
   3  -4   7 44.7600 4.81070   1
  -3  -4  -7 59.4608 7.97449   2
  -4  -4  -7 7.42022 4.78455   2
   4  -4   7 1.99744 5.83116   2
  -4  -4  -7 8.10212 3.52282   1
   4  -4   7 3.88737 3.16273   1
   5  -4   7 878.055 20.6035   1
  -5  -4  -7 902.026 26.9821   2
  -5  -4  -7 884.692 21.9752   1
  -6  -4  -7 -5.0541 3.81135   1
  -6  -4  -7 -0.1979 4.52426   2
   6  -4   7 -0.2096 3.54028   1
  -7  -4  -7 281.314 12.9908   1
  -7  -4  -7 254.604 16.0599   2
   7  -4   7 264.867 11.6085   1
  -8  -4  -7 394.019 20.0203   2
  -8  -4  -7 402.051 15.6566   1
  -8  -4  -7 367.440 15.1907   1
   8  -4   7 387.706 14.6652   1
   9  -4   7 19.0310 5.20566   1
  -9  -4  -7 13.5216 7.43064   2
  -9  -4  -7 12.2532 5.08265   1
 -10  -4  -7 207.026 16.5126   2
 -10  -4  -7 205.792 12.8126   1
  10  -4   7 194.813 11.3930   1
  11  -4   7 3.35480 4.56696   1
 -11  -4  -7 25.9195 9.07677   2
 -11  -4  -7 2.27604 4.85874   1
  12  -4   7 11.4807 5.10493   1
 -12  -4  -7 2.23569 5.13862   1
 -12  -4  -7 13.0678 7.47432   2
 -13  -4  -7 46.9568 8.76435   1
  13  -4   7 57.2705 8.47384   1
 -13  -4  -7 66.0974 12.5468   2
  14  -4   7 51.4833 8.24182   1
 -14  -4  -7 26.3673 7.46879   1
 -14  -4  -7 42.5436 11.2426   2
 -15  -4  -7 18.3941 9.68120   2
  15  -4   7 18.2452 6.78386   1
 -15  -4  -7 11.2774 6.47834   1
 -16  -5   7 6.56185 8.05728   2
 -16  -5   7 9.44809 6.61808   1
  16  -5  -7 15.3556 6.35238   1
 -15  -5   7 96.4400 11.0282   1
 -15  -5   7 96.5469 15.6021   2
  15  -5  -7 92.0783 9.72463   1
 -14  -5   7 37.6336 7.63831   1
 -14  -5   7 41.3933 10.3147   2
  14  -5  -7 47.6042 7.38038   1
 -13  -5   7 38.6224 7.46940   1
  13  -5  -7 27.0561 5.83609   1
 -13  -5   7 19.3598 8.28124   2
  12  -5  -7 25.1074 5.36897   1
 -12  -5   7 12.5213 8.12283   2
 -12  -5   7 22.9370 6.03092   1
 -11  -5   7 1.02063 5.67707   2
  11  -5  -7 -3.5915 3.30750   1
 -11  -5   7 4.29171 4.68422   1
 -10  -5   7 19.1237 5.38174   1
 -10  -5   7 11.1129 6.77784   2
  10  -5  -7 19.1433 4.47331   1
  -9  -5   7 125.333 9.67483   1
  -9  -5   7 108.001 14.2315   2
   9  -5  -7 111.125 7.61651   1
   8  -5  -7 22.7302 4.14882   1
  -8  -5   7 22.9333 5.29536   1
  -8  -5   7 19.6804 8.51595   2
  -7  -5   7 7.60649 3.88518   1
   7  -5  -7 3.12002 2.81366   1
  -7  -5   7 11.7890 7.10243   2
  -6  -5   7 180.452 9.69692   1
   6  -5  -7 186.445 7.83727   1
  -6  -5   7 189.187 16.1002   2
  -5  -5   7 4.74316 6.20419   2
   5  -5  -7 -2.1490 2.36920   1
   5  -5  -7 -3.4012 4.90153   2
  -5  -5   7 -0.7228 3.06909   1
  -4  -5   7 713.654 18.0019   1
  -4  -5   7 692.346 27.4055   2
   4  -5  -7 699.225 15.6093   1
   4  -5  -7 770.701 23.6598   2
   3  -5  -7 296.639 9.25646   1
  -3  -5   7 302.186 11.0488   1
   3  -5  -7 303.431 15.1906   2
  -3  -5   7 344.020 19.9647   2
  -2  -5   7 421.763 12.5716   1
  -2  -5   7 454.438 22.5298   2
   2  -5  -7 404.920 11.1133   1
   2  -5  -7 402.439 17.0388   2
  -1  -5   7 363.158 11.4653   1
  -1  -5   7 383.884 21.0082   2
   1  -5  -7 368.153 16.6980   2
   1  -5  -7 354.096 10.5820   1
   0  -5  -7 7.57440 5.23213   2
   0  -5   7 7.36808 3.07929   1
   0  -5  -7 6.35003 2.90849   1
   0  -5   7 4.72696 5.93217   2
  -1  -5  -7 25.2542 4.13523   1
   1  -5   7 27.1988 8.75832   2
  -1  -5  -7 41.2016 7.97637   2
   1  -5   7 32.9289 4.36066   1
   2  -5   7 11.1587 3.39367   1
  -2  -5  -7 7.43822 3.24312   1
  -2  -5  -7 2.86251 5.46143   2
   2  -5   7 3.40032 6.38691   2
   3  -5   7 9.02032 6.93132   2
  -3  -5  -7 8.28456 3.49715   1
   3  -5   7 8.62132 3.42903   1
  -3  -5  -7 11.4691 6.74759   2
   4  -5   7 105.580 13.7990   2
  -4  -5  -7 111.976 12.6396   2
   4  -5   7 91.1275 7.06012   1
  -4  -5  -7 85.0974 7.50914   1
  -5  -5  -7 1.12986 3.58755   1
   5  -5   7 5.35905 5.90682   2
   5  -5   7 1.83297 3.21447   1
  -5  -5  -7 1.41248 6.07059   2
   6  -5   7 136.082 8.55245   1
  -6  -5  -7 139.225 9.72572   1
  -6  -5  -7 150.664 13.7724   2
   7  -5   7 1.11825 3.45549   1
  -7  -5  -7 -3.5562 3.36456   1
  -7  -5  -7 -0.3417 6.09137   2
  -7  -5  -7 -0.1386 3.68313   1
   8  -5   7 93.2244 8.35486   1
  -8  -5  -7 122.156 14.7800   2
  -8  -5  -7 85.9603 8.83660   1
  -9  -5  -7 84.3009 13.1373   2
  -9  -5  -7 73.0725 8.65405   1
   9  -5   7 76.4733 7.97519   1
 -10  -5  -7 7.06426 5.29850   1
  10  -5   7 2.82183 4.22557   1
 -10  -5  -7 0.11776 6.15372   2
  11  -5   7 -0.4935 4.50265   1
 -11  -5  -7 -3.5496 5.90536   2
 -11  -5  -7 2.57986 5.20002   1
  12  -5   7 2.68053 4.73542   1
 -12  -5  -7 -2.6754 4.90984   1
 -12  -5  -7 1.07590 6.81448   2
 -13  -5  -7 6.07464 5.88086   1
 -13  -5  -7 37.7303 12.7983   2
  13  -5   7 14.7230 6.01765   1
 -12  -6   7 14.0723 5.92420   1
  12  -6  -7 7.08239 4.48058   1
 -12  -6   7 12.6226 8.68139   2
 -11  -6   7 0.10085 4.68365   1
  11  -6  -7 3.95711 3.74260   1
 -11  -6   7 0.21430 7.55827   2
 -10  -6   7 -1.7635 7.25621   2
  10  -6  -7 -0.7983 3.15808   1
 -10  -6   7 -3.8552 4.11680   1
  -9  -6   7 49.3386 11.9511   2
   9  -6  -7 37.6818 5.06171   1
  -9  -6   7 34.2430 6.57672   1
  -8  -6   7 12.4762 4.80639   1
   8  -6  -7 16.3323 3.79011   1
  -8  -6   7 13.8470 7.70524   2
  -7  -6   7 -2.9066 7.17228   2
  -7  -6   7 4.71768 4.06152   1
   7  -6  -7 1.61223 2.87147   1
   6  -6  -7 -1.4546 2.46002   1
  -6  -6   7 1.82282 6.56770   2
  -6  -6   7 -3.1446 3.15672   1
  -5  -6   7 71.8129 6.87730   1
   5  -6  -7 74.2713 5.43816   1
  -5  -6   7 83.8442 12.5802   2
  -4  -6   7 123.881 15.9096   2
   4  -6  -7 93.4917 5.90465   1
  -4  -6   7 111.746 8.01620   1
  -3  -6   7 1.55251 7.10655   2
   3  -6  -7 5.79470 2.65316   1
  -3  -6   7 0.63707 3.31481   1
  -2  -6   7 39.9861 5.11340   1
  -2  -6   7 25.3329 9.35580   2
   2  -6  -7 33.7918 4.09690   1
   1  -6  -7 2.14258 2.71977   1
  -1  -6   7 0.87087 3.06942   1
  -1  -6   7 2.27835 7.25968   2
   0  -6   7 36.3973 10.0738   2
   0  -6  -7 32.5528 4.50138   1
   0  -6  -7 52.4339 9.71185   2
   0  -6   7 44.4093 5.08912   1
   1  -6   7 33.7888 9.34312   2
   1  -6   7 51.4154 5.29499   1
  -1  -6  -7 81.8752 12.3055   2
  -1  -6  -7 42.2035 5.09680   1
  -2  -6  -7 2.38396 3.11400   1
  -2  -6  -7 4.56664 7.20668   2
   2  -6   7 -0.8297 6.87936   2
   2  -6   7 3.22167 2.94042   1
   3  -6   7 15.9903 8.01110   2
   3  -6   7 11.2420 3.73738   1
  -3  -6  -7 25.7436 8.92255   2
  -3  -6  -7 15.8775 4.31527   1
   4  -6   7 7.30303 3.57627   1
  -4  -6  -7 6.58099 7.95512   2
   4  -6   7 3.19164 8.01589   2
  -4  -6  -7 2.57771 3.55395   1
  -5  -6  -7 45.9285 11.8151   2
  -5  -6  -7 27.8547 5.62188   1
   5  -6   7 24.3024 8.56690   2
  -5  -6  -7 29.7105 5.58772   1
   5  -6   7 32.3459 5.16781   1
  -6  -6  -7 5.75785 8.73072   2
  -6  -6  -7 7.67228 4.41719   1
  -6  -6  -7 1.10243 4.05129   1
   6  -6   7 5.47548 3.58913   1
   7  -6   7 10.0765 4.25787   1
  -7  -6  -7 23.3943 10.2092   2
  -7  -6  -7 15.7469 5.46713   1
   8  -6   7 -3.1702 3.84972   1
  -8  -6  -7 1.35441 4.70584   1
  -8  -6  -7 -3.2664 7.83559   2
  -9  -6  -7 0.52650 4.95235   1
   9  -6   7 2.79332 4.28021   1
  -9  -6  -7 -7.3148 9.09622   2
  -4  -7   7 16.7504 9.41181   2
   4  -7  -7 2.70731 2.70836   1
  -4  -7   7 5.48197 4.03699   1
  -3  -7   7 95.8274 16.1762   2
  -3  -7   7 84.2417 7.55256   1
   3  -7  -7 88.7516 6.03301   1
  -2  -7   7 2.12203 3.77771   1
   2  -7  -7 3.50186 2.91158   1
  -2  -7   7 0.12772 8.15015   2
  -1  -7   7 147.832 8.86667   1
   1  -7  -7 136.477 7.48966   1
  -1  -7   7 122.456 16.5688   2
  22   0  -8 29.4784 8.95868   1
 -22   0   8 32.5044 9.27285   2
 -21   0   8 210.583 18.4892   2
  21   0  -8 197.458 16.7937   1
  20   0  -8 47.3602 9.17315   1
 -20   0   8 34.4603 9.96430   2
 -19   0   8 241.781 18.5820   2
  19   0  -8 248.011 15.4524   1
 -19   0   8 220.687 13.9987   1
 -18   0   8 6.24628 5.19311   1
 -18   0   8 2.19588 7.29549   2
  18   0  -8 12.1769 5.84652   1
 -17   0   8 246.124 17.5569   2
 -17   0   8 237.691 13.7445   1
  17   0  -8 221.153 13.7210   1
  16   0  -8 641.936 21.8399   1
 -16   0   8 639.749 25.2674   2
 -16   0   8 659.918 21.0660   1
 -15   0   8 10.6164 7.13484   2
 -15   0   8 14.0207 3.92026   3
 -15   0   8 3.93516 4.36665   1
  15   0  -8 5.51583 5.26373   1
 -14   0   8 69.5524 6.40000   3
  14   0  -8 60.6902 7.63006   1
 -14   0   8 58.7251 9.03404   2
 -14   0   8 69.5216 7.68150   1
 -13   0   8 1669.32 34.8592   1
 -13   0   8 1717.24 32.4183   3
 -13   0   8 1711.04 38.9866   2
  13   0  -8 1679.41 35.9633   1
 -12   0   8 45.0274 5.88205   1
 -12   0   8 45.4759 7.09248   2
  12   0  -8 35.7012 5.53147   1
 -12   0   8 41.3342 4.67079   3
 -11   0   8 329.421 12.1424   1
  11   0  -8 338.398 12.8881   1
 -11   0   8 332.194 13.8651   2
  10   0  -8 170.973 8.94416   1
 -10   0   8 168.119 9.49632   2
 -10   0   8 176.709 8.66750   1
 -10   0   8 167.564 7.25732   3
   9   0  -8 18.9214 3.87952   1
  -9   0   8 26.6036 4.18495   1
  -9   0   8 21.0780 3.10066   3
  -9   0   8 18.6704 3.79440   2
  -8   0   8 4.84005 2.60257   1
  -8   0   8 4.02520 1.78157   3
  -8   0   8 3.10645 2.48915   2
   8   0  -8 -0.8089 2.08042   1
  -7   0   8 190.700 6.89693   3
   7   0  -8 186.434 8.22277   1
  -7   0   8 173.152 7.68676   1
  -7   0   8 175.799 7.76135   2
  -6   0   8 115.397 5.19652   3
  -6   0   8 98.3496 5.96727   1
  -6   0   8 113.661 5.88626   2
   6   0  -8 117.997 6.51938   1
  -5   0   8 2544.36 40.0154   2
  -5   0   8 2497.75 41.0984   1
   5   0  -8 2452.69 41.4645   1
   4   0  -8 360.087 10.5053   1
  -4   0   8 356.013 9.07926   2
  -4   0   8 353.052 10.2354   1
   3   0  -8 505.651 12.8325   1
  -3   0   8 524.389 12.7261   1
  -3   0   8 506.201 10.9547   2
  -2   0   8 373.553 8.95508   2
  -2   0   8 370.214 10.3544   1
   2   0  -8 371.713 10.5070   1
  -1   0   8 1991.60 33.5284   1
   1   0  -8 1976.78 33.7431   1
   0   0  -8 25.8037 2.83273   3
   0   0  -8 26.8057 3.56285   1
   0   0   8 26.8922 3.49275   1
   1   0   8 6774.72 102.731   3
  -1   0  -8 7098.22 100.830   3
   1   0   8 7250.58 103.049   1
  -1   0  -8 7085.10 103.003   1
  -2   0  -8 37.0102 3.26399   3
   2   0   8 40.9905 4.34193   1
   2   0   8 44.9004 3.66297   3
  -2   0  -8 35.2383 4.00783   1
  -3   0  -8 554.238 12.5394   3
   3   0   8 534.098 12.3469   3
   3   0   8 524.073 14.0112   1
  -3   0  -8 533.588 14.1103   1
   4   0   8 6.63714 1.98715   3
  -4   0  -8 7.65361 2.71390   1
   4   0   8 6.84570 2.79991   1
  -4   0  -8 9.55266 2.29992   3
  -5   0  -8 1945.43 35.4253   1
   5   0   8 1891.29 35.2859   1
   5   0   8 1893.43 32.6320   3
  -5   0  -8 1945.24 32.9549   3
   6   0   8 24.3805 3.41524   3
   6   0   8 34.0171 4.61930   1
  -6   0  -8 29.8655 4.31733   1
  -7   0  -8 4.87154 3.31239   1
   7   0   8 5.83723 2.36370   3
  -7   0  -8 4.32630 2.28266   3
  -7   0  -8 8.92095 3.53787   1
   7   0   8 1.19971 3.10877   1
  -8   0  -8 135.385 8.45916   1
   8   0   8 145.176 8.90230   1
  -8   0  -8 126.794 6.90080   3
  -8   0  -8 137.733 8.43326   1
   8   0   8 125.890 6.71912   3
   9   0   8 75.3008 5.86544   3
   9   0   8 89.3346 8.56505   1
  -9   0  -8 91.2240 7.90102   1
  -9   0  -8 88.8130 6.25617   3
 -10   0  -8 436.351 13.6679   3
 -10   0  -8 416.297 15.3500   1
  10   0   8 426.746 15.9058   1
  10   0   8 418.199 12.9868   3
 -11   0  -8 40.6377 5.48268   3
  11   0   8 29.7887 6.55893   1
 -11   0  -8 45.3221 6.93315   1
 -12   0  -8 447.592 17.2337   1
  12   0   8 416.636 17.0973   1
 -12   0  -8 421.687 14.5699   3
  13   0   8 73.8705 9.22277   1
 -13   0  -8 70.7282 7.08379   3
 -13   0  -8 54.6304 7.81831   1
 -14   0  -8 167.745 12.0723   1
  14   0   8 124.040 11.4687   1
  15   0   8 46.8949 8.23413   1
 -15   0  -8 19.7892 6.61286   1
  16   0   8 26.3226 7.14642   1
 -16   0  -8 16.0483 6.46797   1
  17   0   8 31.3253 8.29890   1
  18   0   8 22.7146 7.89892   1
  21  -1  -8 49.9909 9.89787   1
 -21  -1   8 49.7834 9.55789   1
 -21  -1   8 29.2554 8.99207   2
  21   1  -8 36.1940 8.52756   1
 -20  -1   8 72.9243 8.55352   3
 -20  -1   8 76.8766 10.3353   1
 -20  -1   8 90.0102 13.0779   2
  20  -1  -8 70.5890 10.6213   1
  20   1  -8 92.8919 11.4842   1
 -19  -1   8 64.7727 9.48292   1
  19  -1  -8 41.4615 8.78137   1
 -19  -1   8 56.5313 10.1318   2
 -19  -1   8 55.8830 6.89396   3
  19   1  -8 47.9171 8.82556   1
 -18  -1   8 10.9969 6.40362   2
  18  -1  -8 0.42797 5.35475   1
 -18  -1   8 7.20807 3.78740   3
 -18  -1   8 8.79473 5.72746   1
  18   1  -8 8.28071 5.59897   1
  17  -1  -8 20.8177 6.68360   1
 -17  -1   8 16.8284 4.61519   3
 -17  -1   8 10.8686 5.52428   1
 -17  -1   8 12.2197 6.15395   2
  17   1  -8 0.49127 5.02590   1
 -16  -1   8 75.0143 7.49776   3
  16  -1  -8 78.7251 9.59319   1
 -16  -1   8 96.5147 9.55805   1
 -16  -1   8 100.400 11.7761   2
  16   1  -8 85.3174 9.33475   1
 -16   1   8 82.9344 12.8689   1
 -15  -1   8 40.8510 5.71304   3
  15  -1  -8 34.0833 6.92479   1
 -15  -1   8 40.7032 7.12394   1
 -15  -1   8 53.0911 8.88118   2
 -15   1   8 42.5429 6.40419   1
  15   1  -8 40.5627 7.29768   1
 -14  -1   8 258.864 15.2906   2
 -14  -1   8 258.473 10.4719   3
 -14  -1   8 274.558 13.1722   1
  14  -1  -8 282.712 13.7015   1
 -14   1   8 265.883 11.8121   1
  14   1  -8 253.824 12.9005   1
  13  -1  -8 213.968 11.6277   1
 -13  -1   8 187.673 8.78695   3
 -13  -1   8 230.019 13.7595   2
 -13  -1   8 175.077 10.2851   1
 -13   1   8 210.840 10.2841   1
 -13   1   8 193.951 11.2814   3
  13   1  -8 199.879 11.2612   1
  12  -1  -8 -0.8848 3.29295   1
 -12  -1   8 1.94497 2.17461   3
 -12  -1   8 -2.1729 3.69460   2
 -12  -1   8 4.06662 3.66011   1
 -12   1   8 0.17893 2.68042   1
  12   1  -8 1.33710 3.30987   1
 -11  -1   8 182.868 9.87675   1
 -11  -1   8 185.377 11.4816   2
  11  -1  -8 185.292 9.87954   1
 -11  -1   8 181.482 7.94939   3
 -11   1   8 185.869 8.93848   1
  11   1  -8 195.432 10.0190   1
 -10  -1   8 -3.2547 2.69422   1
  10  -1  -8 2.92552 3.07484   1
 -10  -1   8 1.70085 1.85690   3
 -10  -1   8 -2.4350 2.91816   2
 -10   1   8 -2.1377 2.15141   1
  10   1  -8 -1.0150 2.74169   1
  -9  -1   8 295.615 12.6863   2
  -9  -1   8 275.660 8.89694   3
   9  -1  -8 276.773 10.8262   1
  -9  -1   8 260.032 10.6115   1
   9   1  -8 247.729 10.3352   1
  -9   1   8 283.895 9.99904   1
   8  -1  -8 4.15792 2.70491   1
  -8  -1   8 -2.0725 2.63440   2
  -8  -1   8 -0.7937 2.59462   1
  -8  -1   8 0.27272 1.64906   3
  -8   1   8 -1.6942 2.17751   1
   8   1  -8 0.83534 2.46122   1
  -7  -1   8 3371.03 57.0794   2
  -7  -1   8 3385.74 51.2034   3
   7  -1  -8 3311.01 54.1395   1
  -7  -1   8 3251.03 54.0883   1
   7   1  -8 3377.05 54.3024   1
  -7   1   8 3313.77 52.6148   1
  -6  -1   8 1222.27 25.9431   2
  -6  -1   8 1148.31 21.2635   3
  -6  -1   8 1189.37 23.8468   1
   6  -1  -8 1172.32 23.5815   1
  -6   1   8 1205.84 20.8954   2
  -6   1   8 1198.88 22.6206   1
   6   1  -8 1175.29 23.7732   1
  -5  -1   8 167.632 5.94848   3
  -5  -1   8 164.253 6.08176   3
   5  -1  -8 154.853 7.08992   1
  -5  -1   8 158.469 7.27403   1
  -5  -1   8 164.751 8.21183   2
  -5   1   8 167.253 6.74883   1
  -5   1   8 164.698 4.71252   2
   5   1  -8 162.120 7.26881   1
  -4  -1   8 521.025 14.4950   2
  -4  -1   8 525.996 11.3236   3
  -4  -1   8 497.664 13.0404   1
  -4  -1   8 532.511 11.5291   3
   4  -1  -8 516.914 13.0370   1
   4   1  -8 508.754 13.0179   1
  -4   1   8 502.577 12.1658   1
  -3  -1   8 741.420 17.6047   2
  -3  -1   8 738.894 14.4682   3
   3  -1  -8 746.765 16.4204   1
  -3  -1   8 745.928 14.3565   3
  -3  -1   8 758.586 16.5195   1
  -3   1   8 771.745 15.7166   1
   3   1  -8 747.751 16.2732   1
  -2  -1   8 4.35637 2.56007   2
   2  -1  -8 5.42444 2.26114   1
  -2  -1   8 4.52828 1.48636   3
  -2  -1   8 3.27824 2.33367   1
  -2  -1   8 5.64539 1.49249   3
   2   1  -8 9.84223 2.59804   1
  -2   1   8 6.45985 2.26970   1
   1  -1  -8 183.544 7.29376   1
  -1  -1   8 177.578 7.37779   1
  -1  -1   8 187.522 5.91963   3
  -1  -1   8 205.010 8.63904   2
   1   1  -8 181.195 7.20258   1
  -1   1   8 177.636 6.84666   1
   0  -1   8 261.790 7.16057   3
   0  -1  -8 261.278 8.89238   1
   0  -1   8 258.209 9.97746   2
   0  -1   8 263.779 8.90876   1
   0   1   8 268.363 8.60115   1
   0   1  -8 273.881 8.73251   1
  -1  -1  -8 213.394 8.22835   1
   1  -1   8 208.180 6.42552   3
   1  -1   8 206.062 9.14764   2
   1  -1   8 227.220 8.29810   1
  -1   1  -8 203.732 7.73219   1
   1   1   8 206.336 7.83484   1
  -2  -1  -8 429.904 12.2051   1
   2  -1   8 420.259 12.0522   1
   2  -1   8 436.767 9.99706   3
  -2   1  -8 439.833 11.7776   1
   2   1   8 437.015 11.9876   1
   3  -1   8 821.093 18.7670   1
  -3  -1  -8 861.864 19.3100   1
  -3  -1  -8 851.588 16.5302   3
   3  -1   8 866.989 16.3471   3
   3   1   8 872.940 18.7971   1
  -3   1  -8 836.278 18.4324   1
  -4  -1  -8 2414.07 38.2505   3
   4  -1   8 2423.58 37.7659   3
   4  -1   8 2391.00 41.3571   1
  -4  -1  -8 2342.84 41.4020   1
  -4   1  -8 2374.37 40.5528   1
   4   1   8 2367.80 40.9225   1
  -5  -1  -8 921.331 18.2916   3
  -5  -1  -8 893.589 21.0660   1
   5  -1   8 919.574 21.0172   1
   5  -1   8 926.585 17.7878   3
  -5   1  -8 907.711 20.2099   1
  -5   1  -8 910.819 20.2714   1
   5   1   8 923.889 20.6618   1
   6  -1   8 4.66319 3.04336   1
  -6  -1  -8 5.13249 3.02014   1
  -6  -1  -8 1.29288 1.86483   3
   6  -1   8 4.66562 1.96855   3
   6   1   8 1.95314 2.76337   1
  -6   1  -8 3.58820 2.44868   3
  -6   1  -8 -0.0935 2.55467   1
  -6   1  -8 0.56255 2.54636   1
  -7  -1  -8 218.975 10.3104   1
   7  -1   8 221.504 7.80274   3
  -7  -1  -8 205.991 8.18012   3
   7  -1   8 251.105 10.7974   1
  -7   1  -8 222.135 9.62776   1
   7   1   8 235.136 10.3129   1
  -8  -1  -8 -2.0649 1.81051   3
  -8  -1  -8 -6.8275 2.76521   1
  -8  -1  -8 3.00454 3.61801   1
   8  -1   8 -2.3025 3.02187   1
   8  -1   8 -2.0138 1.65995   3
   8   1   8 1.29677 3.31316   1
  -8   1  -8 0.95905 1.74816   3
  -8   1  -8 0.94171 2.75822   1
  -9  -1  -8 63.1544 7.34938   1
  -9  -1  -8 47.6899 4.74773   3
  -9  -1  -8 65.7028 7.43277   1
   9  -1   8 57.1783 6.79315   1
   9  -1   8 60.2935 5.00579   3
  -9   1  -8 52.1501 5.34951   3
   9   1   8 58.8830 6.91022   1
  -9   1  -8 58.2260 6.29166   1
 -10  -1  -8 524.022 14.8299   3
 -10  -1  -8 540.585 18.1550   1
  10  -1   8 541.049 13.8983   3
  10  -1   8 519.451 17.8486   1
 -10   1  -8 506.867 16.6320   1
  10   1   8 487.990 17.3800   1
 -11  -1  -8 182.748 11.7771   1
  11  -1   8 168.383 11.5687   1
  11  -1   8 194.569 8.58733   3
 -11  -1  -8 176.919 9.10045   3
  11   1   8 193.210 11.8772   1
 -11   1  -8 187.842 10.8964   1
 -12  -1  -8 2.13032 4.98804   1
  12  -1   8 1.11324 2.79041   3
  12  -1   8 5.61586 5.15868   1
 -12  -1  -8 3.73604 3.07954   3
  12   1   8 1.11420 4.33022   1
 -12   1  -8 1.36128 4.20142   1
 -13  -1  -8 34.2918 5.17915   3
  13  -1   8 27.2299 4.29887   3
  13  -1   8 42.0397 7.87043   1
 -13  -1  -8 36.8502 7.15133   1
 -13   1  -8 37.9731 6.85078   1
  13   1   8 34.2166 6.93976   1
 -14  -1  -8 58.4126 8.87853   1
 -14  -1  -8 56.4975 6.48579   3
  14  -1   8 50.8452 5.54831   3
  14  -1   8 53.6448 8.48042   1
  14   1   8 51.9445 8.35740   1
  15  -1   8 11.1172 6.24640   1
  15  -1   8 -0.4293 2.73668   3
 -15  -1  -8 4.18646 3.26144   3
 -15  -1  -8 5.32185 5.08899   1
  15   1   8 0.65053 5.38788   1
  16  -1   8 -0.7368 3.32385   3
  16  -1   8 -0.5441 5.34581   1
 -16  -1  -8 0.54752 3.22868   3
 -16  -1  -8 1.38620 5.62105   1
  16   1   8 0.53709 5.56464   1
  17  -1   8 25.6221 7.95698   1
 -17  -1  -8 29.1045 8.21431   1
 -17  -1  -8 23.7832 5.40016   3
  17   1   8 23.9164 7.25494   1
 -18  -1  -8 -6.0099 5.73313   1
 -18  -1  -8 -2.2908 3.21417   3
  18  -1   8 2.85560 6.49555   1
 -21  -2   8 1.23488 3.37606   3
  21  -2  -8 8.02232 7.03164   1
 -21  -2   8 11.7004 6.65509   1
 -21  -2   8 13.0244 8.10418   2
  20  -2  -8 37.4749 8.99880   1
 -20  -2   8 44.2316 9.01592   1
 -20  -2   8 54.0087 6.55002   3
 -20  -2   8 43.9673 10.7182   2
  19  -2  -8 13.2644 6.82394   1
 -19  -2   8 15.8993 4.36111   3
 -19  -2   8 38.1212 8.26734   1
 -19  -2   8 17.9135 7.80599   2
 -18  -2   8 27.5209 7.58057   1
 -18  -2   8 26.9832 8.71821   2
 -18  -2   8 24.8806 4.75793   3
  18  -2  -8 43.3116 8.65064   1
 -17  -2   8 12.0001 6.20871   1
 -17  -2   8 14.0050 4.05488   3
 -17  -2   8 6.80972 6.13113   2
  17  -2  -8 12.3473 6.03183   1
  17   2  -8 20.8184 6.38116   1
 -16  -2   8 140.104 8.43548   3
  16  -2  -8 146.429 11.6513   1
 -16  -2   8 161.774 12.2270   1
 -16  -2   8 141.852 13.7234   2
  16   2  -8 130.872 11.2647   1
 -15  -2   8 72.2357 6.39948   3
 -15  -2   8 81.6725 9.39292   1
  15  -2  -8 74.9190 8.66526   1
 -15  -2   8 93.2046 11.8855   2
  15   2  -8 87.0183 9.09615   1
  14  -2  -8 41.8500 7.09198   1
 -14  -2   8 29.5736 6.30516   1
 -14  -2   8 35.6431 4.78987   3
 -14  -2   8 24.8593 6.78850   2
  14   2  -8 32.7364 6.31492   1
 -13  -2   8 227.920 9.07805   3
 -13  -2   8 227.449 12.5999   1
 -13  -2   8 226.865 15.1994   2
  13  -2  -8 206.409 11.8618   1
  13   2  -8 242.317 11.9351   1
 -12  -2   8 857.502 18.8944   3
 -12  -2   8 858.653 23.3679   1
 -12  -2   8 863.297 27.7084   2
  12  -2  -8 899.442 23.2254   1
  12   2  -8 856.516 22.3551   1
 -11  -2   8 299.927 15.8210   2
  11  -2  -8 316.103 12.9478   1
 -11  -2   8 306.491 12.9593   1
 -11  -2   8 314.957 9.78552   3
 -11   2   8 313.530 10.5927   1
  11   2  -8 293.367 12.0657   1
  10  -2  -8 1031.66 23.8757   1
 -10  -2   8 984.921 28.3971   2
 -10  -2   8 1004.88 19.7414   3
 -10  -2   8 1023.95 24.2473   1
  10   2  -8 995.336 23.3000   1
 -10   2   8 993.109 20.6605   1
  -9  -2   8 57.3042 6.35605   1
  -9  -2   8 64.5073 4.29443   3
  -9  -2   8 38.6327 6.62809   2
   9  -2  -8 54.8236 5.95476   1
   9   2  -8 47.0668 5.49330   1
  -9   2   8 61.3971 5.03637   1
  -8  -2   8 809.899 15.9461   3
  -8  -2   8 781.311 15.6959   3
  -8  -2   8 793.953 19.7902   1
   8  -2  -8 815.537 19.0634   1
  -8  -2   8 788.751 23.5673   2
  -8   2   8 805.754 18.7910   1
   8   2  -8 795.705 18.9809   1
  -7  -2   8 10.8018 4.58306   2
  -7  -2   8 13.9224 2.16153   3
   7  -2  -8 17.5167 3.53934   1
  -7  -2   8 10.6964 3.55956   1
  -7  -2   8 12.3304 2.17637   3
   7   2  -8 10.5193 3.08124   1
  -6  -2   8 1849.11 29.2215   3
  -6  -2   8 1825.48 29.0587   3
  -6  -2   8 1889.47 39.1744   2
  -6  -2   8 1848.48 33.8268   1
   6  -2  -8 1850.35 33.0261   1
   6   2  -8 1860.52 32.9149   1
  -5  -2   8 34.4597 4.31684   1
  -5  -2   8 35.2212 2.70548   3
  -5  -2   8 34.2021 5.61406   2
  -5  -2   8 33.3574 2.60243   3
   5   2  -8 34.0485 3.76964   1
  -4  -2   8 1214.34 23.8534   1
  -4  -2   8 1229.47 19.3188   3
  -4  -2   8 1225.10 28.2640   2
   4  -2  -8 1224.73 23.2076   1
  -4  -2   8 1216.46 19.3190   3
   4   2  -8 1188.19 22.7318   1
  -3  -2   8 845.729 13.8324   3
  -3  -2   8 866.473 22.4937   2
  -3  -2   8 879.460 13.9497   3
  -3  -2   8 851.735 18.4888   1
   3  -2  -8 869.491 18.0471   1
   3   2  -8 863.834 17.4222   1
   2  -2  -8 307.699 6.87792   2
  -2  -2   8 289.490 12.4168   2
  -2  -2   8 315.947 9.97115   1
   2  -2  -8 314.250 9.58158   1
   2   2  -8 301.159 8.82328   1
  -1  -2   8 0.70212 2.34579   1
  -1  -2   8 -2.9688 2.66113   2
   1  -2  -8 2.42656 1.52588   2
   1  -2  -8 0.70336 2.12403   1
   1   2  -8 -0.7789 1.88241   1
   0  -2   8 637.916 19.0735   2
   0  -2  -8 650.739 15.2446   1
   0  -2  -8 619.314 13.5830   2
   0  -2   8 652.092 15.2671   1
   0   2  -8 646.549 14.0952   1
   0   2   8 649.890 15.0829   1
  -1  -2  -8 3901.42 60.6434   1
   1  -2   8 3926.27 60.5861   1
   1  -2   8 3801.41 66.2819   2
  -1  -2  -8 3846.13 59.6207   2
  -1   2  -8 3974.27 58.9512   1
   1   2   8 3870.92 58.5120   1
  -2  -2  -8 2895.19 46.9994   1
   2  -2   8 2781.62 52.4953   2
  -2  -2  -8 2791.81 46.8571   2
   2  -2   8 2847.32 46.6581   1
  -2   2  -8 2841.88 44.8982   1
   2   2   8 2912.73 45.2596   1
   3  -2   8 11.2284 3.19459   1
  -3  -2  -8 15.8800 3.52339   1
  -3  -2  -8 15.4840 3.44335   2
   3   2   8 16.4791 3.06665   1
  -3   2  -8 15.5649 2.93825   1
  -3   2  -8 15.5447 2.97498   1
   4  -2   8 919.296 20.7088   1
  -4  -2  -8 879.802 22.0558   2
  -4  -2  -8 956.784 21.3427   1
   4   2   8 933.614 19.6940   1
  -4   2  -8 903.597 18.8476   1
   5  -2   8 10.6561 3.37040   1
  -5  -2  -8 13.7510 3.70561   1
  -5  -2  -8 15.6846 5.13104   2
  -5   2  -8 11.6522 2.94394   1
   5   2   8 16.0145 3.36392   1
  -6  -2  -8 217.777 10.2797   1
  -6  -2  -8 200.428 12.4332   2
  -6  -2  -8 216.796 6.87327   3
   6  -2   8 219.862 5.18003   3
   6  -2   8 230.835 10.1705   1
  -6   2  -8 218.028 8.68546   1
   6   2   8 214.071 9.25588   1
  -7  -2  -8 -1.4739 5.92096   2
  -7  -2  -8 -0.2533 2.96552   1
   7  -2   8 5.36939 3.47818   1
  -7  -2  -8 -1.5935 1.70848   3
   7  -2   8 -1.0096 1.16689   3
  -7   2  -8 0.12668 2.40189   1
   7   2   8 0.21610 2.77660   1
  -8  -2  -8 -0.3064 3.30407   1
   8  -2   8 2.59825 1.41224   3
  -8  -2  -8 -0.9881 2.02274   3
   8  -2   8 3.64462 3.71197   1
  -8  -2  -8 2.37010 3.62321   1
  -8   2  -8 3.28410 2.88241   1
   8   2   8 5.48206 3.42306   1
   9  -2   8 331.590 14.1419   1
  -9  -2  -8 326.349 10.2512   3
   9  -2   8 346.055 8.03165   3
  -9  -2  -8 339.231 14.4369   1
  -9  -2  -8 329.040 14.2409   1
  -9   2  -8 351.975 12.6859   1
   9   2   8 338.392 13.3161   1
  10  -2   8 7.88275 1.98240   3
  10  -2   8 -2.5730 4.36329   1
 -10  -2  -8 10.7379 4.84325   1
 -10  -2  -8 10.1027 2.97547   3
  10   2   8 5.33989 4.37969   1
 -11  -2  -8 51.2909 7.79839   1
  11  -2   8 62.0727 4.13380   3
 -11  -2  -8 62.3544 5.84102   3
  11  -2   8 60.5937 8.02767   1
  11   2   8 67.4734 8.16570   1
 -12  -2  -8 5.71387 3.12627   3
  12  -2   8 1.87423 5.03065   1
  12  -2   8 3.56658 2.08211   3
 -12  -2  -8 5.38299 5.25516   1
  12   2   8 2.11491 4.59733   1
  13  -2   8 36.7999 3.58396   3
 -13  -2  -8 40.8692 5.09238   3
  13  -2   8 48.1176 7.91848   1
 -13  -2  -8 51.5730 8.42594   1
  14  -2   8 2.83143 2.10280   3
 -14  -2  -8 11.6524 5.80980   1
 -14  -2  -8 6.43595 3.18701   3
  14  -2   8 13.0007 6.03873   1
  15  -2   8 37.2687 3.55680   3
 -15  -2  -8 8.08274 11.4401   2
 -15  -2  -8 40.7515 5.39598   3
 -15  -2  -8 48.4789 8.27501   1
  15  -2   8 40.2362 8.20699   1
 -16  -2  -8 -24.915 10.8445   2
 -16  -2  -8 1.04142 2.96262   3
 -16  -2  -8 1.34909 5.45205   1
  16  -2   8 2.26027 1.92960   3
  16  -2   8 1.58903 5.95297   1
 -17  -2  -8 17.7136 7.39397   1
  17  -2   8 30.8553 8.62853   1
 -17  -2  -8 29.0118 5.25167   3
 -17  -2  -8 24.1101 15.0686   2
  18  -2   8 -2.5483 6.91784   1
 -18  -2  -8 -3.6730 3.04731   3
 -18  -2  -8 0.14931 6.35203   1
 -18  -2  -8 -15.697 11.9546   2
 -20  -3   8 46.8011 9.82725   1
 -20  -3   8 30.3381 9.62339   2
  20  -3  -8 61.9556 10.7177   1
 -20  -3   8 59.8949 6.29696   3
 -19  -3   8 0.41373 5.89617   1
 -19  -3   8 -2.0528 2.63835   3
  19  -3  -8 4.96557 6.02653   1
 -19  -3   8 4.50301 7.26648   2
 -18  -3   8 -4.5349 5.62777   1
 -18  -3   8 8.18012 7.02245   2
 -18  -3   8 1.69656 2.64008   3
  18  -3  -8 -0.8427 5.53530   1
 -17  -3   8 27.5693 8.37200   2
 -17  -3   8 20.3217 3.67754   3
  17  -3  -8 21.7693 6.80957   1
 -17  -3   8 15.5708 6.81221   1
 -16  -3   8 -0.2194 2.04693   3
  16  -3  -8 0.78045 4.78808   1
 -16  -3   8 -2.6788 4.73184   1
 -16  -3   8 3.12896 6.29254   2
 -15  -3   8 31.2380 8.04048   2
 -15  -3   8 38.9651 4.14902   3
 -15  -3   8 34.9232 7.00197   1
  15  -3  -8 41.8054 7.25533   1
 -15  -3   8 30.1012 3.67879   3
 -14  -3   8 261.027 14.7658   1
 -14  -3   8 276.070 8.62731   3
  14  -3  -8 282.592 14.2085   1
 -14  -3   8 267.273 8.45754   3
 -14  -3   8 296.510 19.1686   2
 -13  -3   8 1272.68 22.7949   3
 -13  -3   8 1277.10 22.8424   3
 -13  -3   8 1370.72 39.7086   2
 -13  -3   8 1323.75 32.2143   1
  13  -3  -8 1335.94 31.0790   1
 -12  -3   8 7.31450 2.02077   3
 -12  -3   8 6.74518 4.64200   1
 -12  -3   8 9.20302 1.95184   3
 -12  -3   8 5.39321 6.10164   2
  12  -3  -8 1.87247 4.24680   1
 -11  -3   8 500.850 17.5915   1
 -11  -3   8 507.105 10.1121   3
  11  -3  -8 518.261 16.8838   1
 -11  -3   8 560.969 23.4805   2
 -11  -3   8 524.238 10.1997   3
 -10  -3   8 371.493 18.8596   2
  10  -3  -8 364.772 13.3084   1
 -10  -3   8 343.123 13.9450   1
  -9  -3   8 226.877 10.9857   1
   9  -3  -8 243.304 10.4324   1
  -9  -3   8 221.068 14.1835   2
   9   3  -8 231.156 11.3059   1
   8  -3  -8 275.682 10.6321   1
  -8  -3   8 292.545 15.9734   2
  -8  -3   8 276.111 11.6933   1
   8   3  -8 266.714 9.77691   1
  -7  -3   8 196.799 12.9858   2
  -7  -3   8 176.545 9.08060   1
   7  -3  -8 193.274 8.40830   1
   7   3  -8 180.759 8.90353   1
   6  -3  -8 56.2645 5.01529   1
  -6  -3   8 56.7615 8.26148   2
  -6  -3   8 49.0194 5.33190   1
   5  -3  -8 1.48148 2.25909   1
  -5  -3   8 -1.5657 3.48033   2
  -5  -3   8 0.96675 2.57334   1
   4  -3  -8 249.307 8.61874   1
  -4  -3   8 246.120 13.2626   2
  -4  -3   8 257.842 9.49771   1
  -3  -3   8 313.067 14.8636   2
   3  -3  -8 306.418 9.53429   1
  -3  -3   8 287.031 10.0020   1
   3  -3  -8 317.635 9.62294   2
  -2  -3   8 10.3948 4.93739   2
  -2  -3   8 13.9757 3.18965   1
   2  -3  -8 14.0625 2.96626   1
   2  -3  -8 12.7472 2.96568   2
  -1  -3   8 630.040 15.0987   1
   1  -3  -8 632.140 14.7032   1
   1  -3  -8 623.107 15.1458   2
  -1  -3   8 601.945 20.6711   2
   0  -3   8 2.35050 2.46795   1
   0  -3   8 1.87890 4.26883   2
   0  -3  -8 -1.5958 2.10840   1
   0  -3  -8 2.17855 2.47928   2
  -1  -3  -8 59.3798 5.23730   1
   1  -3   8 56.8117 5.12574   1
  -1  -3  -8 60.8175 5.99483   2
   1  -3   8 67.0143 8.79536   2
   2  -3   8 1491.66 28.0996   1
   2  -3   8 1425.08 35.7548   2
  -2  -3  -8 1454.43 30.2170   2
  -2  -3  -8 1492.54 28.3222   1
  -3  -3  -8 730.701 18.0782   1
   3  -3   8 735.412 17.6013   1
  -3  -3  -8 733.288 19.9733   2
   3  -3   8 729.815 24.2957   2
  -4  -3  -8 -2.0897 3.05735   2
   4  -3   8 -1.5265 2.61544   1
  -4  -3  -8 1.65157 2.85866   1
   5  -3   8 5.17017 3.25465   1
  -5  -3  -8 6.35463 3.84370   2
  -5  -3  -8 3.46006 3.29278   1
  -6  -3  -8 271.356 13.6909   2
  -6  -3  -8 276.836 12.2021   1
   6  -3   8 249.163 11.1188   1
  -7  -3  -8 70.5612 7.38704   1
  -7  -3  -8 76.1248 9.20805   2
   7  -3   8 70.1575 7.09771   1
  -8  -3  -8 91.5728 10.6560   2
   8  -3   8 102.091 8.71658   1
  -8  -3  -8 81.9692 8.31182   1
  -8  -3  -8 97.6100 9.19005   1
  -9  -3  -8 1173.17 29.1086   1
  -9  -3  -8 1158.47 33.1540   2
  -9  -3  -8 1140.35 28.6479   1
   9  -3   8 1135.60 27.7108   1
  10  -3   8 134.238 10.2442   1
 -10  -3  -8 105.077 9.66275   1
 -10  -3  -8 145.794 13.5878   2
 -11  -3  -8 20.3620 6.19115   1
  11  -3   8 30.5091 6.38191   1
 -11  -3  -8 36.3934 8.71462   2
 -12  -3  -8 20.6725 6.47653   1
  12  -3   8 8.81921 5.33183   1
 -12  -3  -8 17.9808 7.21929   2
 -13  -3  -8 15.0212 6.41621   1
 -13  -3  -8 20.1057 3.11185   3
 -13  -3  -8 42.0872 9.61932   2
  13  -3   8 29.4079 6.95795   1
 -14  -3  -8 24.4509 3.40884   3
  14  -3   8 24.2785 7.14634   1
 -14  -3  -8 34.4760 9.47617   2
 -14  -3  -8 15.5771 6.63714   1
 -15  -3  -8 22.8407 8.38308   2
 -15  -3  -8 10.6680 6.46156   1
  15  -3   8 24.3099 7.79499   1
 -15  -3  -8 15.7636 3.19591   3
 -16  -3  -8 17.0844 7.12022   1
 -16  -3  -8 25.2576 9.23836   2
 -16  -3  -8 10.5097 3.02668   3
  16  -3   8 12.5329 6.81394   1
 -18  -4   8 0.31690 6.48712   2
 -18  -4   8 7.78281 6.62069   1
  18  -4  -8 0.69880 5.64456   1
 -17  -4   8 5.66850 5.98251   1
  17  -4  -8 -3.0747 5.24583   1
 -17  -4   8 -4.0939 6.72104   2
  16  -4  -8 11.3393 5.62272   1
 -16  -4   8 6.87455 5.72570   1
 -16  -4   8 12.6584 8.13773   2
  15  -4  -8 0.21694 4.76466   1
 -15  -4   8 5.74213 6.75062   2
 -15  -4   8 -2.0329 4.99541   1
 -14  -4   8 46.3313 7.99695   1
  14  -4  -8 64.6081 8.12335   1
 -14  -4   8 66.0975 12.3477   2
 -13  -4   8 141.029 11.3114   1
 -13  -4   8 117.193 15.0134   2
  13  -4  -8 107.938 9.71560   1
 -12  -4   8 490.131 18.2022   1
  12  -4  -8 443.139 16.1906   1
 -12  -4   8 458.110 23.7990   2
 -11  -4   8 6.29109 4.50886   1
  11  -4  -8 10.8588 4.37426   1
 -11  -4   8 4.52955 6.40323   2
 -10  -4   8 9.67177 6.89736   2
 -10  -4   8 23.7689 5.48058   1
  10  -4  -8 21.3180 4.58375   1
  -9  -4   8 295.026 17.8907   2
   9  -4  -8 326.263 12.0491   1
  -9  -4   8 305.260 13.2252   1
  -8  -4   8 142.153 9.18388   1
  -8  -4   8 141.192 14.5660   2
   8  -4  -8 124.140 7.67541   1
   7  -4  -8 14.9978 3.81227   1
  -7  -4   8 25.5868 8.02178   2
  -7  -4   8 12.5319 4.33195   1
  -6  -4   8 843.279 20.9097   1
   6  -4  -8 874.061 19.0528   1
  -6  -4   8 860.472 28.7323   2
  -5  -4   8 320.280 17.5286   2
  -5  -4   8 362.216 12.3833   1
   5  -4  -8 330.835 10.4713   1
   4  -4  -8 1.65233 2.53915   1
  -4  -4   8 2.10197 3.04551   1
   4  -4  -8 2.79720 3.38682   2
   4  -4  -8 4.38030 2.47124   1
  -4  -4   8 0.36736 5.54781   2
   3  -4  -8 212.074 7.74820   1
  -3  -4   8 219.328 9.20021   1
   3  -4  -8 223.600 8.34302   1
  -3  -4   8 238.090 15.4381   2
   3  -4  -8 226.459 10.5325   2
  -2  -4   8 233.738 15.1309   2
   2  -4  -8 214.142 8.22347   1
   2  -4  -8 213.826 10.4038   2
   2  -4  -8 200.866 7.72191   1
  -2  -4   8 211.191 9.00612   1
   1  -4  -8 121.710 8.83163   2
  -1  -4   8 108.875 11.8666   2
   1  -4  -8 112.321 6.31369   1
   1  -4  -8 131.469 6.83186   1
  -1  -4   8 106.196 6.99860   1
   0  -4  -8 652.108 15.7409   1
   0  -4  -8 614.027 18.5840   2
   0  -4   8 625.763 15.8957   1
   0  -4   8 634.426 24.2182   2
   1  -4   8 878.367 28.8760   2
  -1  -4  -8 837.088 19.2249   1
  -1  -4  -8 827.373 22.6677   2
   1  -4   8 839.483 19.1241   1
  -2  -4  -8 134.694 10.0747   2
  -2  -4  -8 134.603 7.88877   1
   2  -4   8 129.590 7.55396   1
   2  -4   8 141.858 12.6354   2
   3  -4   8 838.157 19.7408   1
  -3  -4  -8 831.817 24.0159   2
   3  -4   8 788.049 28.5032   2
  -3  -4  -8 875.403 20.6051   1
   4  -4   8 178.296 9.30782   1
   4  -4   8 199.992 15.4121   2
  -4  -4  -8 197.895 12.6522   2
  -4  -4  -8 189.804 10.0565   1
   5  -4   8 3.98997 3.87158   1
  -5  -4  -8 -0.0968 3.97972   1
  -5  -4  -8 3.04263 4.70994   2
  -6  -4  -8 52.6308 8.65341   2
   6  -4   8 42.0979 5.93984   1
  -6  -4  -8 49.8027 6.73074   1
  -7  -4  -8 110.566 12.3805   2
  -7  -4  -8 75.8222 8.11681   1
   7  -4   8 74.8561 7.68913   1
  -8  -4  -8 188.496 11.5938   1
  -8  -4  -8 174.713 11.2357   1
  -8  -4  -8 192.243 14.8749   2
   8  -4   8 175.412 10.8677   1
  -9  -4  -8 19.2977 8.32301   2
  -9  -4  -8 19.8054 5.73564   1
  -9  -4  -8 11.3616 5.04997   1
   9  -4   8 22.9363 5.79199   1
 -10  -4  -8 73.8701 8.89065   1
  10  -4   8 50.7248 7.22997   1
 -10  -4  -8 83.7105 13.3451   2
 -11  -4  -8 92.3122 13.7349   2
  11  -4   8 66.9307 8.41077   1
 -11  -4  -8 54.2690 8.28634   1
  12  -4   8 -2.4952 4.58104   1
 -12  -4  -8 1.57156 7.04274   2
 -12  -4  -8 2.30160 5.29415   1
 -13  -4  -8 17.1126 8.50773   2
 -13  -4  -8 3.43124 5.71875   1
  13  -4   8 2.90066 5.16101   1
 -14  -4  -8 152.470 19.4569   2
  14  -4   8 127.724 12.4595   1
 -14  -4  -8 121.074 12.5754   1
  15  -4   8 4.77075 6.37056   1
 -15  -4  -8 1.31086 7.94598   2
 -15  -4  -8 -1.4242 5.66346   1
 -15  -5   8 22.6783 9.11695   2
 -15  -5   8 11.6689 6.59845   1
  15  -5  -8 18.2137 6.15327   1
  14  -5  -8 12.4248 5.49071   1
 -14  -5   8 13.5623 8.60854   2
 -14  -5   8 19.4073 6.75210   1
  13  -5  -8 30.0727 6.13110   1
 -13  -5   8 40.2793 7.52204   1
 -13  -5   8 30.3608 10.3065   2
 -12  -5   8 81.0425 8.96657   1
 -12  -5   8 83.7073 13.6722   2
  12  -5  -8 63.2767 7.52607   1
 -11  -5   8 0.29746 6.44866   2
  11  -5  -8 -2.5927 3.56580   1
 -11  -5   8 -8.8669 3.55589   1
 -10  -5   8 1.94822 6.62536   2
 -10  -5   8 1.88922 4.18929   1
  10  -5  -8 -0.7633 3.34367   1
  -9  -5   8 3.91029 4.10896   1
  -9  -5   8 12.7763 7.12114   2
   9  -5  -8 9.46870 3.64538   1
   8  -5  -8 0.49347 2.99897   1
  -8  -5   8 0.59218 3.60541   1
  -8  -5   8 8.07616 6.38495   2
  -7  -5   8 252.224 11.6668   1
   7  -5  -8 247.331 9.74464   1
  -7  -5   8 209.997 17.3005   2
   6  -5  -8 17.9372 3.60938   1
  -6  -5   8 17.9843 7.03898   2
  -6  -5   8 12.4888 4.16049   1
  -5  -5   8 95.3315 12.1750   2
   5  -5  -8 121.987 6.76732   1
  -5  -5   8 127.419 8.37800   1
   5  -5  -8 131.151 10.8624   2
   4  -5  -8 218.087 13.0738   2
   4  -5  -8 198.559 8.15655   1
  -4  -5   8 195.380 9.59374   1
  -4  -5   8 188.438 16.0477   2
  -3  -5   8 42.2674 9.12348   2
  -3  -5   8 46.4556 5.46959   1
   3  -5  -8 40.1443 4.48078   1
   3  -5  -8 49.3165 7.78554   2
   2  -5  -8 42.4998 4.57859   1
  -2  -5   8 38.6294 4.97426   1
   2  -5  -8 43.7894 7.33127   2
  -2  -5   8 41.2391 9.52018   2
   1  -5  -8 10.7034 5.52046   2
   1  -5  -8 4.75124 2.79267   1
  -1  -5   8 0.69692 2.91340   1
  -1  -5   8 3.53596 6.49155   2
   0  -5   8 3.08555 3.03398   1
   0  -5   8 -2.0001 5.11489   2
   0  -5  -8 -0.1583 2.62049   1
   0  -5  -8 2.54309 5.03395   2
  -1  -5  -8 44.7791 7.75566   2
   1  -5   8 30.8970 4.60369   1
   1  -5   8 26.2182 7.87989   2
  -1  -5  -8 36.7808 4.86716   1
  -2  -5  -8 28.5100 4.63471   1
   2  -5   8 23.9011 8.41025   2
  -2  -5  -8 41.0902 8.32053   2
   2  -5   8 24.2795 4.47524   1
   3  -5   8 19.0827 8.20624   2
  -3  -5  -8 14.9479 4.19892   1
  -3  -5  -8 17.5818 7.15771   2
   3  -5   8 24.1816 4.50785   1
   4  -5   8 32.0932 9.62920   2
   4  -5   8 30.0292 4.88492   1
  -4  -5  -8 40.0020 8.91104   2
  -4  -5  -8 39.6428 5.70575   1
  -5  -5  -8 76.5320 7.77836   1
   5  -5   8 84.8410 7.63663   1
  -5  -5  -8 101.562 12.9208   2
  -6  -5  -8 71.0388 11.8344   2
  -6  -5  -8 44.8713 6.62105   1
   6  -5   8 52.3968 6.24485   1
   7  -5   8 -2.1666 3.50538   1
  -7  -5  -8 7.94485 6.65662   2
  -7  -5  -8 4.39555 4.26789   1
  -7  -5  -8 1.05330 4.00703   1
  -8  -5  -8 6.90239 4.71893   1
  -8  -5  -8 8.69222 4.66896   1
   8  -5   8 3.00306 4.25215   1
  -8  -5  -8 12.8951 7.80460   2
  -9  -5  -8 2.75739 4.55458   1
  -9  -5  -8 2.72814 6.69364   2
   9  -5   8 -0.2787 3.89382   1
 -10  -5  -8 14.0971 5.94605   1
 -10  -5  -8 9.01689 7.52225   2
  10  -5   8 8.29802 4.93622   1
 -11  -5  -8 40.0234 9.71650   2
 -11  -5  -8 24.5862 6.83477   1
  11  -5   8 15.6169 5.86697   1
  12  -5   8 -0.3093 4.86343   1
 -12  -5  -8 4.16036 5.43575   1
 -12  -5  -8 6.86208 7.84537   2
 -12  -6   8 13.5035 6.06937   1
  12  -6  -8 14.5630 4.99506   1
 -12  -6   8 7.52109 9.46357   2
 -11  -6   8 32.3260 10.8130   2
  11  -6  -8 18.0094 4.85657   1
 -11  -6   8 18.0555 6.02907   1
  10  -6  -8 18.5785 4.63609   1
 -10  -6   8 20.2743 9.92569   2
 -10  -6   8 16.3599 5.66531   1
  -9  -6   8 53.8558 12.2245   2
  -9  -6   8 49.8819 7.34760   1
   9  -6  -8 42.4400 5.64603   1
  -8  -6   8 46.0366 6.87407   1
  -8  -6   8 40.1575 10.0236   2
   8  -6  -8 51.2271 5.66980   1
  -7  -6   8 44.8194 11.2545   2
  -7  -6   8 31.6641 5.92101   1
   7  -6  -8 32.5913 4.68873   1
  -6  -6   8 54.1214 6.80909   1
   6  -6  -8 56.0037 5.40315   1
  -6  -6   8 61.5169 12.3691   2
  -4  -6   8 2.08935 3.39272   1
  -4  -6   8 10.2959 7.85418   2
   4  -6  -8 6.34615 3.00682   1
  -2  -6   8 2.17466 3.29450   1
  -2  -6   8 2.28442 6.57785   2
   2  -6  -8 -1.3237 2.71480   1
   0  -6   8 107.024 7.73919   1
   0  -6  -8 104.313 7.46835   1
   0  -6   8 115.043 14.8562   2
   1  -6   8 104.487 7.68598   1
   1  -6   8 111.010 15.0563   2
  -1  -6  -8 101.462 7.39203   1
   2  -6   8 -0.2054 7.24931   2
  -2  -6  -8 0.10847 3.36081   1
   2  -6   8 5.16052 3.40375   1
  -3  -6  -8 169.378 13.3885   2
   3  -6   8 116.406 8.22222   1
  -3  -6  -8 116.048 8.64872   1
   3  -6   8 95.4357 14.0331   2
   4  -6   8 50.5189 12.3657   2
  -4  -6  -8 93.3472 13.7019   2
  -4  -6  -8 51.0872 6.59412   1
   4  -6   8 58.2731 6.46575   1
   5  -6   8 13.9908 4.42438   1
  -5  -6  -8 19.4280 5.34102   1
  -5  -6  -8 33.1764 10.3964   2
   6  -6   8 -2.8370 3.63767   1
  -6  -6  -8 1.50069 4.20296   1
  -6  -6  -8 -4.9633 3.54147   1
  -6  -6  -8 9.05458 7.76230   2
   7  -6   8 1.28064 3.88892   1
  -7  -6  -8 0.01154 4.29321   1
  -7  -6  -8 3.35804 8.29434   2
  -7  -6  -8 -1.6829 4.35067   1
   8  -6   8 24.5988 5.79157   1
  -8  -6  -8 31.2164 6.87991   1
 -22   0   9 5.29014 6.31694   2
  22   0  -9 1.29064 6.78217   1
  21   0  -9 -4.9705 6.20205   1
 -21   0   9 10.8886 7.17765   2
  20   0  -9 -2.3462 5.48216   1
 -20   0   9 6.77741 5.86786   2
 -19   0   9 4.03142 5.95685   2
  19   0  -9 -5.7498 4.79501   1
 -19   0   9 4.01516 5.18794   1
  18   0  -9 1.88003 4.84096   1
 -18   0   9 3.78080 5.83340   2
 -18   0   9 -6.0139 4.46291   1
 -17   0   9 -6.4961 4.33124   1
 -17   0   9 6.26033 5.67646   2
  17   0  -9 -7.3822 4.37371   1
 -16   0   9 -1.4301 4.25254   1
  16   0  -9 -5.8909 4.42349   1
 -16   0   9 1.48695 4.89586   2
 -15   0   9 -0.6116 4.88651   2
 -15   0   9 0.18836 2.84315   3
 -15   0   9 0.47349 3.96169   1
  15   0  -9 -1.6877 4.54756   1
 -14   0   9 1.16353 2.91638   3
 -14   0   9 -3.6341 3.66754   1
  14   0  -9 0.64318 4.14308   1
 -14   0   9 5.50901 4.81197   2
  13   0  -9 -1.5345 4.05022   1
 -13   0   9 0.22380 3.63583   1
 -13   0   9 5.35548 2.87163   3
 -13   0   9 11.2738 4.93509   2
  12   0  -9 2.73402 3.66688   1
 -12   0   9 7.27628 3.89768   2
 -12   0   9 1.23005 2.18378   3
 -12   0   9 7.56330 3.64896   1
  11   0  -9 -0.4421 2.93895   1
 -11   0   9 0.78576 2.95728   2
 -11   0   9 0.24526 1.92494   3
 -11   0   9 0.75470 2.64433   1
  10   0  -9 -2.2947 2.69598   1
 -10   0   9 0.83790 2.66319   2
 -10   0   9 -3.7475 2.23298   1
 -10   0   9 1.34183 1.77570   3
   9   0  -9 0.91427 2.55505   1
  -9   0   9 -0.4419 1.46236   3
  -9   0   9 -0.2943 2.45928   2
  -9   0   9 -2.9421 2.25355   1
  -8   0   9 -0.9019 2.02908   2
   8   0  -9 -1.3793 2.23759   1
  -8   0   9 -3.0754 2.01265   1
  -8   0   9 -0.1263 1.48200   3
  -7   0   9 -1.7035 2.02314   1
   7   0  -9 1.30875 2.44917   1
  -7   0   9 1.20164 1.99067   2
  -7   0   9 2.96845 1.73581   3
  -6   0   9 0.30037 1.85276   2
  -6   0   9 -2.1144 1.17429   3
   6   0  -9 -2.0466 2.13968   1
  -6   0   9 -0.7890 1.99112   1
  -5   0   9 -1.5342 1.72609   2
  -5   0   9 1.06872 2.21577   1
   5   0  -9 2.73863 2.42695   1
  -4   0   9 0.82321 1.62502   2
   4   0  -9 0.51177 2.10144   1
  -4   0   9 0.01199 2.01168   1
  -3   0   9 0.41840 1.59591   2
   3   0  -9 -0.4797 1.94508   1
  -3   0   9 -1.9886 1.99868   1
  -2   0   9 2.99603 1.84425   2
   2   0  -9 0.07807 2.07791   1
  -2   0   9 -0.1723 2.21496   1
  -1   0   9 -0.4701 2.17823   1
   1   0  -9 -1.0985 1.81144   1
   0   0  -9 0.76011 2.31625   1
   0   0  -9 0.48906 1.67058   3
   0   0   9 -1.5597 2.13008   1
  -1   0  -9 -0.4005 2.17724   1
  -1   0  -9 -1.2879 1.37788   3
   1   0   9 3.26764 2.52228   1
   1   0   9 1.22252 1.69523   3
  -2   0  -9 1.19364 2.05417   1
   2   0   9 0.81238 1.47630   3
   2   0   9 -2.7425 2.12483   1
  -2   0  -9 -0.5502 1.45352   3
   3   0   9 -1.9857 1.39571   3
   3   0   9 1.71297 2.34447   1
  -3   0  -9 -2.1625 1.49487   3
  -3   0  -9 5.85211 2.80079   1
   4   0   9 1.64663 1.95867   3
   4   0   9 -2.1609 2.39352   1
  -4   0  -9 -1.3623 1.63117   3
  -4   0  -9 0.41908 2.57055   1
  -5   0  -9 1.20261 2.61531   1
  -5   0  -9 -0.2768 1.71056   3
   5   0   9 -1.1966 1.76913   3
   5   0   9 0.25414 2.73744   1
   6   0   9 0.43473 2.49647   1
  -6   0  -9 3.66211 3.07833   1
   6   0   9 -1.4306 1.52839   3
  -6   0  -9 0.75131 1.69615   3
  -7   0  -9 -1.2790 1.64931   3
  -7   0  -9 -1.5551 2.82387   1
   7   0   9 2.28024 2.13739   3
   7   0   9 0.69175 3.23223   1
  -7   0  -9 -2.9589 2.66288   1
  -8   0  -9 0.50850 3.18731   1
  -8   0  -9 -1.6095 3.00805   1
  -8   0  -9 -3.2165 1.82876   3
   8   0   9 2.37893 2.12345   3
   8   0   9 -3.5972 3.08622   1
   9   0   9 1.51999 3.71903   1
   9   0   9 -0.6053 2.28628   3
  -9   0  -9 -2.0106 2.35656   3
  -9   0  -9 -0.9916 3.33293   1
 -10   0  -9 0.30692 2.30919   3
  10   0   9 -3.0258 3.35171   1
  10   0   9 -1.2794 4.11416   3
 -10   0  -9 -1.0339 3.68430   1
 -11   0  -9 -7.7687 3.71252   1
 -11   0  -9 -3.9246 2.70620   3
  11   0   9 -6.9242 4.13630   1
  12   0   9 -4.8721 4.54697   1
 -12   0  -9 -4.2234 4.43384   1
 -12   0  -9 -5.1579 2.43748   3
  13   0   9 -2.7911 4.74802   1
 -13   0  -9 2.65158 4.98396   1
 -13   0  -9 -2.1770 3.38887   3
 -14   0  -9 -5.4539 4.65424   1
  14   0   9 0.57555 4.84939   1
  15   0   9 0.19755 5.57588   1
 -15   0  -9 5.24643 5.23425   1
 -16   0  -9 -1.6887 5.20261   1
  16   0   9 -7.8844 4.66283   1
  17   0   9 -1.8366 5.82997   1
  18   0   9 -0.1309 6.37418   1
 -21  -1   9 2.35212 6.04136   2
 -21  -1   9 11.0415 6.71150   1
  21  -1  -9 8.70315 7.54727   1
  21   1  -9 -3.7255 5.86461   1
 -21   1   9 -22.366 10.1295   2
  20  -1  -9 30.0552 8.30690   1
 -20  -1   9 22.1034 6.62850   3
 -20  -1   9 19.3105 7.99423   2
 -20  -1   9 28.2544 7.74916   1
 -20   1   9 -4.7795 12.1278   2
  20   1  -9 17.9397 7.32871   1
 -19  -1   9 28.9271 5.78449   3
 -19  -1   9 26.8387 8.20954   2
  19  -1  -9 17.4854 7.37866   1
 -19  -1   9 25.3229 7.14344   1
  19   1  -9 26.4696 6.91617   1
  18  -1  -9 65.9486 9.33316   1
 -18  -1   9 68.1106 9.16080   1
 -18  -1   9 77.1566 8.16629   3
 -18  -1   9 81.4354 12.0537   2
  18   1  -9 82.8167 10.2094   1
 -17  -1   9 22.8408 4.96261   3
 -17  -1   9 14.2272 6.22131   1
 -17  -1   9 21.4027 6.73496   2
  17  -1  -9 4.83406 5.44678   1
  17   1  -9 14.3056 6.11210   1
 -16  -1   9 24.1972 4.43382   3
  16  -1  -9 24.0394 6.60862   1
 -16  -1   9 25.6993 7.31019   2
 -16  -1   9 30.9354 6.88435   1
  16   1  -9 25.6896 6.64600   1
  15  -1  -9 83.2966 9.52279   1
 -15  -1   9 81.8273 7.16685   3
 -15  -1   9 102.955 11.9543   2
 -15  -1   9 93.5518 9.95638   1
  15   1  -9 76.8187 9.30324   1
 -15   1   9 75.6942 8.17831   1
 -14  -1   9 81.3808 7.05332   3
  14  -1  -9 72.7332 8.05754   1
 -14  -1   9 73.2550 8.44795   1
 -14  -1   9 78.6664 10.1901   2
  14   1  -9 74.5036 8.53055   1
 -14   1   9 77.8905 7.61530   1
 -13  -1   9 13.9601 5.69154   2
 -13  -1   9 12.6682 4.67437   1
  13  -1  -9 19.5176 5.04902   1
 -13  -1   9 24.1170 4.23083   3
 -13   1   9 14.9461 4.28570   1
  13   1  -9 19.6915 5.35167   1
 -12  -1   9 1.63372 3.98335   2
 -12  -1   9 0.93470 2.22845   3
 -12  -1   9 1.52686 3.40356   1
  12  -1  -9 4.88615 4.04776   1
 -12   1   9 3.65128 3.14001   3
 -12   1   9 2.26230 3.05998   1
  12   1  -9 7.38992 3.86487   1
  11  -1  -9 2.97422 3.42438   1
 -11  -1   9 -3.1685 2.95077   1
 -11  -1   9 2.70738 2.29282   3
 -11  -1   9 -0.3583 3.28412   2
  11   1  -9 -2.2441 2.70343   1
 -11   1   9 -1.2978 2.57981   1
  10  -1  -9 749.431 20.0083   1
 -10  -1   9 783.197 17.4810   3
 -10  -1   9 794.090 22.6867   2
 -10  -1   9 728.267 19.7143   1
  10   1  -9 814.739 20.4464   1
 -10   1   9 777.580 18.8196   1
  -9  -1   9 326.913 9.91672   3
  -9  -1   9 330.293 12.0558   1
  -9  -1   9 322.736 13.4912   2
   9  -1  -9 321.029 11.9229   1
  -9   1   9 319.605 12.0600   2
   9   1  -9 324.390 11.9887   1
  -9   1   9 291.740 10.6507   1
   8  -1  -9 338.981 11.8170   1
  -8  -1   9 327.112 11.6661   1
  -8  -1   9 342.554 9.82734   3
  -8  -1   9 337.912 13.0994   2
  -8   1   9 329.772 10.7915   1
   8   1  -9 309.124 11.3797   1
  -8   1   9 333.499 10.5663   2
   7  -1  -9 790.374 18.9426   1
  -7  -1   9 839.790 21.0890   2
  -7  -1   9 814.267 19.2172   1
  -7  -1   9 817.389 16.8491   3
  -7   1   9 816.861 16.3014   2
  -7   1   9 783.372 17.9634   1
   7   1  -9 814.606 19.2242   1
  -6  -1   9 77.0910 6.52242   2
  -6  -1   9 87.7852 6.18954   1
  -6  -1   9 76.4844 4.55148   3
   6  -1  -9 71.1795 5.69491   1
  -6   1   9 90.0216 5.69902   1
  -6   1   9 83.2825 3.96133   2
   6   1  -9 76.9575 5.84140   1
  -5  -1   9 490.975 14.4077   2
  -5  -1   9 479.918 11.3762   3
   5  -1  -9 492.064 13.3852   1
  -5  -1   9 474.299 11.4932   3
  -5  -1   9 471.336 13.2976   1
   5   1  -9 457.257 13.0434   1
  -5   1   9 495.720 12.6109   1
  -4  -1   9 323.118 8.70436   3
   4  -1  -9 312.394 10.3736   1
  -4  -1   9 313.099 10.2436   1
  -4  -1   9 338.543 9.00861   3
  -4  -1   9 309.468 11.0959   2
   4   1  -9 314.879 10.2563   1
  -4   1   9 311.076 9.61927   1
   3  -1  -9 2875.52 47.0208   1
  -3  -1   9 2847.50 48.3407   2
  -3  -1   9 2857.50 44.3827   3
  -3  -1   9 2884.18 47.1215   1
  -3  -1   9 2910.62 44.3005   3
   3   1  -9 2939.08 47.0244   1
  -3   1   9 2869.48 45.9005   1
  -2  -1   9 118.409 5.09593   3
  -2  -1   9 122.116 6.68275   1
  -2  -1   9 115.328 7.15604   2
   2  -1  -9 113.061 6.40174   1
   2   1  -9 119.263 5.60034   3
   2   1  -9 119.524 6.41741   1
  -2   1   9 100.742 5.95281   1
  -1  -1   9 4521.21 67.4406   3
  -1  -1   9 4552.66 70.5209   1
   1  -1  -9 4602.90 70.6654   1
  -1  -1   9 4570.83 72.2085   2
  -1   1   9 4498.89 69.4589   1
   1   1  -9 4428.82 69.8257   1
   1   1  -9 5098.90 73.6157   3
   0  -1   9 2293.66 41.2322   2
   0  -1   9 2334.15 39.4196   1
   0  -1   9 2265.55 36.3005   3
   0  -1  -9 2321.32 39.3775   1
   0   1  -9 2271.36 38.7525   1
   0   1   9 2357.18 38.6389   1
   1  -1   9 1633.76 26.9795   3
   1  -1   9 1561.76 29.6068   1
  -1  -1  -9 1614.10 30.0476   1
   1   1   9 1629.09 29.3530   1
  -1   1  -9 1596.74 29.2905   1
  -2  -1  -9 776.105 18.2909   1
   2  -1   9 771.330 15.5561   3
   2  -1   9 774.727 18.1819   1
   2   1   9 787.114 17.8269   1
  -2   1  -9 792.415 17.9314   1
  -3  -1  -9 29.8875 3.20903   3
   3  -1   9 43.4380 5.06391   1
  -3  -1  -9 36.7091 4.89838   1
   3  -1   9 27.3979 3.04720   3
   3   1   9 33.6241 4.33511   1
  -3   1  -9 32.0130 4.23375   1
   4  -1   9 716.978 18.1596   1
  -4  -1  -9 701.866 15.3767   3
  -4  -1  -9 695.602 18.1498   1
   4  -1   9 734.483 15.1994   3
  -4   1  -9 727.959 17.5954   1
   4   1   9 711.371 17.7201   1
  -4   1  -9 760.734 17.0314   3
  -5  -1  -9 46.7607 5.67168   1
   5  -1   9 28.8866 4.64700   1
   5  -1   9 40.6314 3.71191   3
  -5  -1  -9 30.6734 3.68665   3
  -5   1  -9 36.2470 4.71795   1
  -5   1  -9 31.6256 4.02332   3
   5   1   9 45.6859 5.43898   1
   6  -1   9 2.67350 3.09767   1
  -6  -1  -9 1.53324 2.75468   1
   6  -1   9 3.93500 1.96334   3
  -6  -1  -9 5.08832 2.25310   3
  -6   1  -9 4.94919 2.84343   1
  -6   1  -9 4.55487 2.96812   1
  -6   1  -9 5.43428 2.40182   3
   6   1   9 3.88064 3.10356   1
  -7  -1  -9 84.7324 5.76162   3
  -7  -1  -9 72.1100 7.27465   1
   7  -1   9 92.0380 5.46022   3
   7  -1   9 97.5627 7.92035   1
  -7   1  -9 103.977 6.28828   3
   7   1   9 98.4141 7.54526   1
  -7   1  -9 103.120 7.49124   1
  -8  -1  -9 42.6913 6.20349   1
  -8  -1  -9 43.4650 6.09090   1
   8  -1   9 44.8600 6.57122   1
  -8  -1  -9 42.8540 4.71645   3
   8  -1   9 47.6520 4.53623   3
  -8   1  -9 57.3958 5.78653   3
  -8   1  -9 45.5161 5.74180   1
   8   1   9 51.9473 6.48584   1
  -9  -1  -9 239.291 12.3234   1
   9  -1   9 254.910 12.6982   1
   9  -1   9 253.179 9.30613   3
  -9  -1  -9 241.117 9.83077   3
   9   1   9 252.818 12.3714   1
  -9   1  -9 239.473 11.4703   1
  10  -1   9 534.620 18.8625   1
 -10  -1  -9 511.208 18.4472   1
  10  -1   9 534.845 14.3951   3
 -10  -1  -9 513.756 15.0847   3
 -10   1  -9 557.613 17.8820   1
  10   1   9 554.268 18.4644   1
 -11  -1  -9 170.805 9.20501   3
  11  -1   9 173.095 8.44953   3
 -11  -1  -9 187.053 12.2236   1
  11  -1   9 170.360 12.3512   1
 -11   1  -9 173.483 10.8111   1
  11   1   9 210.004 12.3771   1
  12  -1   9 450.512 13.5863   3
 -12  -1  -9 460.536 15.0036   3
 -12  -1  -9 448.079 18.1627   1
  12  -1   9 424.791 17.9767   1
  12   1   9 433.035 17.8099   1
 -12   1  -9 463.232 17.0191   1
 -13  -1  -9 1020.57 24.5631   3
 -13  -1  -9 1014.16 28.8411   1
  13  -1   9 1003.96 29.0200   1
  13  -1   9 1037.56 22.7945   3
  13   1   9 1048.17 29.0580   1
 -13   1  -9 1041.94 31.1241   1
  14  -1   9 14.3964 6.38868   1
  14  -1   9 10.8650 3.55624   3
 -14  -1  -9 8.96617 5.88420   1
 -14  -1  -9 11.6363 3.87823   3
  14   1   9 12.5472 5.97456   1
  15  -1   9 -2.6793 2.90285   3
 -15  -1  -9 -4.3884 4.38922   1
  15  -1   9 0.98423 5.63450   1
 -15  -1  -9 -1.3752 3.11865   3
  15   1   9 -7.6642 4.57741   1
 -16  -1  -9 14.2670 4.62933   3
 -16  -1  -9 3.95470 5.91848   1
  16  -1   9 13.6712 6.91885   1
  16   1   9 4.03625 6.15282   1
 -17  -1  -9 53.4734 7.30943   3
 -17  -1  -9 37.3943 8.27549   1
  17  -1   9 54.0106 9.82910   1
  17   1   9 63.5293 10.5184   1
 -18  -1  -9 -8.2345 5.29095   1
  18  -1   9 -1.7053 6.65583   1
 -18  -1  -9 1.02699 3.92077   3
 -21  -2   9 2.24624 3.73465   3
 -21  -2   9 5.52821 6.27681   1
  21  -2  -9 4.77874 7.00369   1
 -21  -2   9 9.53596 7.86600   2
 -20  -2   9 18.8886 7.68962   2
  20  -2  -9 -5.9624 6.21079   1
 -20  -2   9 3.82093 3.61885   3
 -20  -2   9 3.47208 5.97559   1
 -19  -2   9 43.7011 10.0140   2
 -19  -2   9 45.6803 6.10017   3
  19  -2  -9 32.0275 8.13275   1
 -19  -2   9 31.9055 7.75781   1
 -18  -2   9 45.4246 9.48073   2
  18  -2  -9 30.9722 7.83931   1
 -18  -2   9 40.8617 8.37447   1
 -18  -2   9 44.7303 5.95925   3
 -17  -2   9 3.11205 5.44844   2
 -17  -2   9 -0.6831 2.77305   3
 -17  -2   9 -9.1598 4.40404   1
  17  -2  -9 1.02884 5.13868   1
  17   2  -9 1.46605 6.38327   1
 -16  -2   9 11.3435 6.71361   2
  16  -2  -9 11.1986 5.98425   1
 -16  -2   9 15.9392 5.71680   1
 -16  -2   9 8.56719 3.38258   3
  16   2  -9 12.3578 5.57569   1
 -15  -2   9 13.6642 6.65822   2
  15  -2  -9 12.6980 5.53729   1
 -15  -2   9 4.91476 2.99561   3
 -15  -2   9 5.30685 5.52398   1
  15   2  -9 9.93421 4.67046   1
 -14  -2   9 106.211 7.04730   3
 -14  -2   9 82.4302 8.79977   1
  14  -2  -9 79.9811 8.84830   1
 -14  -2   9 95.1517 11.7336   2
  14   2  -9 99.0826 9.17531   1
 -13  -2   9 219.214 12.6496   1
 -13  -2   9 229.957 9.25056   3
  13  -2  -9 235.190 12.5791   1
 -13  -2   9 242.469 15.3831   2
  13   2  -9 238.318 12.0571   1
 -12  -2   9 458.696 12.8455   3
  12  -2  -9 473.542 16.7376   1
 -12  -2   9 488.974 17.2255   1
 -12  -2   9 451.827 20.0194   2
  12   2  -9 475.178 16.3377   1
 -11  -2   9 673.911 19.8443   1
 -11  -2   9 656.120 23.1373   2
  11  -2  -9 675.522 19.4547   1
 -11  -2   9 653.772 15.4478   3
 -11   2   9 660.880 18.2385   1
  11   2  -9 692.108 19.0446   1
 -10  -2   9 467.955 12.2097   3
 -10  -2   9 506.028 16.2714   1
 -10  -2   9 486.510 19.4033   2
  10  -2  -9 488.183 15.6438   1
  10   2  -9 478.757 15.1520   1
 -10   2   9 474.666 12.9941   1
   9  -2  -9 1645.46 32.7335   1
  -9  -2   9 1575.86 37.5414   2
  -9  -2   9 1686.35 33.7136   1
  -9  -2   9 1672.07 28.6176   3
  -9  -2   9 1702.25 28.9644   3
   9   2  -9 1664.61 32.6145   1
  -9   2   9 1639.73 29.5942   1
  -8  -2   9 934.847 22.4568   1
   8  -2  -9 954.806 21.9564   1
  -8  -2   9 998.090 18.7521   3
  -8  -2   9 985.670 27.0868   2
  -8  -2   9 985.238 18.5674   3
   8   2  -9 988.037 21.9326   1
  -8   2   9 976.234 19.6929   1
  -7  -2   9 2379.27 37.3765   3
  -7  -2   9 2350.66 47.4130   2
  -7  -2   9 2382.44 42.2999   1
   7  -2  -9 2377.99 41.5818   1
  -7  -2   9 2412.71 37.5656   3
  -7   2   9 2371.23 38.7877   1
   7   2  -9 2364.52 41.1986   1
   6  -2  -9 182.721 8.30289   1
  -6  -2   9 180.347 8.65625   1
  -6  -2   9 180.431 10.8163   2
  -6  -2   9 203.513 6.21768   3
  -6  -2   9 187.482 6.09711   3
  -6   2   9 178.835 9.90856   1
   6   2  -9 202.322 8.43322   1
  -5  -2   9 124.311 4.72949   3
  -5  -2   9 126.219 9.21171   2
  -5  -2   9 130.609 4.72632   3
   5  -2  -9 134.578 6.98257   1
   5   2  -9 140.083 6.84660   1
  -4  -2   9 19.0688 4.71585   2
   4  -2  -9 21.9492 3.53276   1
  -4  -2   9 32.4408 4.41693   1
  -4  -2   9 29.1999 2.48624   3
  -4  -2   9 23.9437 2.36607   3
   4   2  -9 25.8876 3.57587   1
  -3  -2   9 898.741 15.1313   3
  -3  -2   9 852.170 22.9491   2
  -3  -2   9 939.977 19.9583   1
  -3  -2   9 895.549 15.1709   3
   3  -2  -9 891.623 19.3269   1
   3   2  -9 880.652 18.4411   1
  -2  -2   9 342.215 7.22009   3
  -2  -2   9 345.054 13.7187   2
  -2  -2   9 333.808 10.9036   1
   2  -2  -9 352.281 10.8087   1
  -2  -2   9 348.264 7.15521   3
  -2   2   9 349.155 10.4326   1
   2   2  -9 326.201 9.80504   1
  -1  -2   9 124.439 8.83654   2
  -1  -2   9 122.149 6.74532   1
   1  -2  -9 117.540 6.50515   1
   1  -2  -9 125.557 4.54024   2
  -1  -2   9 119.868 3.73867   3
  -1  -2   9 129.117 3.84057   3
  -1   2   9 123.553 5.72769   1
   1   2  -9 141.292 6.36878   1
   0  -2  -9 76.2979 5.64115   1
   0  -2   9 66.7121 2.77552   3
   0  -2   9 76.3966 2.88143   3
   0  -2   9 69.5444 5.63793   1
   0  -2   9 89.5638 8.05649   2
   0  -2  -9 72.8302 4.26550   2
   0   2   9 79.9647 5.06816   1
   0   2  -9 70.6213 4.99819   1
   1  -2   9 3.95778 2.76095   1
  -1  -2  -9 2.05549 1.98192   2
  -1  -2  -9 1.83037 2.52967   1
   1  -2   9 2.18607 3.74762   2
   1  -2   9 2.43866 1.01084   3
   1  -2   9 -0.5436 0.87754   3
  -1   2  -9 3.18499 2.16702   1
   1   2   9 -0.3721 2.13072   1
  -2  -2  -9 5.88848 2.89771   1
  -2  -2  -9 9.53630 2.87033   2
   2  -2   9 3.95137 2.75431   1
   2  -2   9 7.99936 1.24467   3
   2  -2   9 12.4244 4.54072   2
   2  -2   9 7.85884 1.25974   3
  -2   2  -9 6.56784 2.46088   1
   2   2   9 12.1986 2.85586   1
   3  -2   9 3.79657 1.20260   3
   3  -2   9 4.36653 1.18491   3
  -3  -2  -9 5.04196 2.91627   2
   3  -2   9 -0.2523 2.69781   1
  -3  -2  -9 1.76478 2.79754   1
  -3   2  -9 3.28098 2.40028   1
   3   2   9 6.41871 2.74111   1
   4  -2   9 513.318 15.1517   1
   4  -2   9 528.130 9.73520   3
  -4  -2  -9 509.640 16.2174   2
  -4  -2  -9 560.235 15.8196   1
  -4   2  -9 522.178 13.8072   1
   4   2   9 518.929 14.1837   1
  -4   2  -9 530.030 13.7033   1
   5  -2   9 268.536 11.0726   1
  -5  -2  -9 266.988 13.2674   2
  -5  -2  -9 249.043 10.9500   1
   5  -2   9 259.806 6.18881   3
  -5   2  -9 265.810 9.60178   1
   5   2   9 239.088 9.90601   1
  -6  -2  -9 -2.0513 5.56915   2
   6  -2   9 3.72991 3.51062   1
   6  -2   9 0.56588 1.30148   3
  -6  -2  -9 3.57305 3.27637   1
  -6   2  -9 2.68226 2.74619   1
   6   2   9 3.03693 2.82458   1
   7  -2   9 181.635 5.49930   3
  -7  -2  -9 184.052 7.02491   3
   7  -2   9 173.882 9.91751   1
  -7  -2  -9 183.676 10.3812   1
  -7   2  -9 171.665 8.56167   1
   7   2   9 164.661 9.22746   1
   8  -2   9 287.646 13.0771   1
   8  -2   9 286.787 7.36502   3
  -8  -2  -9 257.509 12.6594   1
  -8  -2  -9 276.056 9.08009   3
  -8   2  -9 276.863 11.1022   1
   8   2   9 269.619 12.0643   1
  -9  -2  -9 348.955 15.1565   1
  -9  -2  -9 360.254 11.0202   3
   9  -2   9 355.871 14.9496   1
  -9  -2  -9 370.299 15.5353   1
   9  -2   9 368.737 8.92918   3
   9   2   9 350.742 14.0416   1
 -10  -2  -9 142.273 7.54783   3
 -10  -2  -9 104.156 10.1187   1
 -10  -2  -9 109.406 10.1205   1
  10  -2   9 124.180 5.42898   3
  10  -2   9 117.241 10.2698   1
  10   2   9 128.309 10.1053   1
  11  -2   9 187.071 12.1928   1
 -11  -2  -9 169.246 8.45385   3
 -11  -2  -9 171.752 12.2064   1
  11  -2   9 164.281 6.15483   3
  11   2   9 160.859 11.0393   1
 -12  -2  -9 51.4275 8.16245   1
 -12  -2  -9 44.9997 5.26097   3
  12  -2   9 43.0768 3.83201   3
  12  -2   9 45.8855 7.71260   1
  12   2   9 40.7864 10.6956   1
  13  -2   9 33.4215 3.52952   3
 -13  -2  -9 27.8944 4.52214   3
  13  -2   9 35.3681 7.26623   1
 -13  -2  -9 35.9306 7.64096   1
 -14  -2  -9 48.5674 5.90230   3
 -14  -2  -9 45.3489 8.27822   1
  14  -2   9 59.4517 4.45226   3
  14  -2   9 55.9918 8.80170   1
 -15  -2  -9 31.9335 7.97432   1
  15  -2   9 31.2189 7.87903   1
  15  -2   9 20.5942 2.98642   3
 -15  -2  -9 -14.687 12.6238   2
 -15  -2  -9 21.6640 4.61065   3
 -16  -2  -9 -3.5286 5.29093   1
 -16  -2  -9 -35.466 11.3663   2
 -16  -2  -9 -3.1059 2.73452   3
  16  -2   9 -9.5317 5.32446   1
  16  -2   9 -3.2812 1.72240   3
  17  -2   9 0.66016 6.54636   1
 -17  -2  -9 -36.138 10.8500   2
 -17  -2  -9 1.80311 3.37307   3
 -17  -2  -9 -4.3441 5.79060   1
 -20  -3   9 4.03607 3.34005   3
 -19  -3   9 -3.1512 5.29897   1
  19  -3  -9 0.37181 5.73538   1
 -19  -3   9 -2.0177 6.54626   2
 -19  -3   9 -1.2865 2.65778   3
 -18  -3   9 -1.3389 5.79856   1
 -18  -3   9 2.78008 6.84687   2
 -18  -3   9 3.34107 2.76201   3
  18  -3  -9 5.95342 6.33489   1
 -17  -3   9 -0.5257 5.87851   2
 -17  -3   9 -3.3903 5.03860   1
  17  -3  -9 -2.5298 5.06532   1
 -17  -3   9 0.16810 2.30362   3
  16  -3  -9 -2.0569 4.78529   1
 -16  -3   9 2.17694 2.49585   3
 -16  -3   9 -2.9785 4.65807   1
 -16  -3   9 4.29423 2.52017   3
 -16  -3   9 7.56426 6.16202   2
 -15  -3   9 -1.6558 4.66307   1
 -15  -3   9 -1.9606 2.21339   3
 -15  -3   9 -0.7495 1.98537   3
  15  -3  -9 -2.3539 4.57006   1
 -15  -3   9 4.87233 6.53171   2
  14  -3  -9 14.8853 5.70210   1
 -14  -3   9 17.7927 3.08715   3
 -14  -3   9 22.2211 7.59929   2
 -14  -3   9 10.0967 5.48763   1
 -14  -3   9 16.8694 2.93426   3
 -13  -3   9 15.3614 2.65524   3
 -13  -3   9 11.5307 7.34310   2
 -13  -3   9 17.5490 2.66775   3
 -13  -3   9 13.5597 5.17946   1
  13  -3  -9 14.0739 5.19997   1
 -12  -3   9 150.461 10.8463   1
 -12  -3   9 160.404 5.89252   3
  12  -3  -9 171.711 10.8510   1
 -12  -3   9 184.088 14.9926   2
 -12  -3   9 165.919 5.87201   3
 -11  -3   9 328.084 18.5326   2
  11  -3  -9 338.803 13.8234   1
 -11  -3   9 335.802 7.92489   3
 -11  -3   9 353.726 14.8492   1
 -11  -3   9 343.956 7.94973   3
  10  -3  -9 61.0392 6.84239   1
 -10  -3   9 76.5910 10.3436   2
 -10  -3   9 75.2316 7.91755   1
   9  -3  -9 1.93346 3.51477   1
  -9  -3   9 13.0711 6.19326   2
  -9  -3   9 0.70917 3.72425   1
   8  -3  -9 802.744 19.6486   1
  -8  -3   9 819.361 21.2058   1
  -8  -3   9 790.883 26.0545   2
   8   3  -9 802.736 21.0335   1
  -7  -3   9 118.731 11.0659   2
   7  -3  -9 91.7516 6.91003   1
  -7  -3   9 93.4711 7.37270   1
   7   3  -9 90.3676 6.17973   1
  -6  -3   9 368.698 12.5493   1
  -6  -3   9 339.191 16.2501   2
   6  -3  -9 347.049 11.4582   1
  -5  -3   9 303.647 11.2946   1
  -5  -3   9 349.172 16.3573   2
   5  -3  -9 312.012 10.5346   1
  -4  -3   9 -1.6072 2.51661   1
  -4  -3   9 0.29988 4.24385   2
   4  -3  -9 0.68483 2.30852   1
   3  -3  -9 329.792 10.5872   1
  -3  -3   9 336.128 11.2773   1
   3  -3  -9 312.497 9.12186   2
  -3  -3   9 320.840 15.0838   2
   2  -3  -9 177.084 7.04474   2
   2  -3  -9 183.951 7.79812   1
  -2  -3   9 171.598 11.7302   2
  -2  -3   9 155.214 7.86672   1
   1  -3  -9 51.4829 4.96547   1
   1  -3  -9 58.9756 4.83547   2
  -1  -3   9 62.6868 8.45494   2
  -1  -3   9 55.5297 5.36203   1
   0  -3   9 204.930 12.8514   2
   0  -3   9 217.670 9.19049   1
   0  -3  -9 212.232 8.84355   1
   0  -3  -9 212.140 8.63307   2
  -1  -3  -9 54.9184 5.45570   1
  -1  -3  -9 58.4076 5.86051   2
   1  -3   9 70.6655 8.98208   2
   1  -3   9 70.6092 6.08676   1
  -2  -3  -9 8.67331 3.41424   1
   2  -3   9 14.3896 3.80444   1
  -2  -3  -9 12.1230 3.69695   2
   2  -3   9 9.30781 5.22854   2
   3  -3   9 261.772 10.5760   1
  -3  -3  -9 233.600 11.0736   2
  -3  -3  -9 251.043 10.5129   1
   3  -3   9 256.049 15.0138   2
  -4  -3  -9 7.83367 3.58208   1
   4  -3   9 5.17679 3.42452   1
  -4  -3  -9 8.86209 4.20378   2
  -5  -3  -9 17.1873 4.52636   1
  -5  -3  -9 22.2001 5.43785   2
   5  -3   9 23.2511 4.71657   1
   6  -3   9 4.80008 4.03767   1
  -6  -3  -9 9.81287 4.45375   1
  -6  -3  -9 9.35921 4.63282   2
  -7  -3  -9 124.321 11.0868   2
  -7  -3  -9 91.6929 8.48689   1
   7  -3   9 139.738 9.63162   1
  -8  -3  -9 173.127 11.0752   1
   8  -3   9 146.957 10.5708   1
  -8  -3  -9 124.261 11.6333   2
  -9  -3  -9 11.9781 5.23847   1
  -9  -3  -9 12.0313 6.36059   2
  -9  -3  -9 19.0468 5.53736   1
   9  -3   9 11.3209 5.29233   1
 -10  -3  -9 56.6218 9.97009   2
  10  -3   9 44.8317 7.26598   1
 -10  -3  -9 48.0308 7.49013   1
 -10  -3  -9 35.9361 6.74499   1
 -11  -3  -9 19.7803 6.23788   1
 -11  -3  -9 41.8726 9.11123   2
  11  -3   9 35.8221 6.99655   1
  12  -3   9 6.09795 5.15882   1
 -12  -3  -9 19.1693 7.28954   2
 -12  -3  -9 9.37495 5.91592   1
  13  -3   9 2.49806 5.38186   1
 -13  -3  -9 9.76440 6.52970   2
 -13  -3  -9 5.49403 5.58114   1
  14  -3   9 4.22067 5.91095   1
 -14  -3  -9 14.0395 7.24908   2
 -14  -3  -9 12.0558 2.82394   3
 -14  -3  -9 0.05364 5.49118   1
  15  -3   9 15.2482 7.10051   1
 -15  -3  -9 11.3990 6.49617   1
 -15  -3  -9 14.3334 3.14054   3
 -15  -3  -9 32.4466 9.93280   2
 -16  -3  -9 13.9144 8.28272   2
 -16  -3  -9 1.73765 2.56752   3
 -16  -3  -9 -2.8086 6.07711   1
  16  -3   9 -5.2438 6.37381   1
  18  -4  -9 13.0201 6.87789   1
 -18  -4   9 16.9930 9.33490   2
 -18  -4   9 18.8955 7.57959   1
  17  -4  -9 -3.3123 5.20669   1
 -17  -4   9 3.67387 6.90931   2
 -17  -4   9 -3.7072 5.44484   1
  16  -4  -9 36.2209 7.48598   1
 -16  -4   9 14.0809 7.78999   2
 -16  -4   9 43.8131 8.21629   1
  15  -4  -9 34.2235 7.11998   1
 -15  -4   9 22.5933 6.75194   1
 -15  -4   9 25.5805 9.15298   2
 -14  -4   9 20.5955 6.73927   1
  14  -4  -9 8.75486 5.34756   1
 -14  -4   9 9.75068 7.45390   2
  13  -4  -9 303.297 14.3170   1
 -13  -4   9 307.531 20.5593   2
 -13  -4   9 335.132 16.0993   1
 -12  -4   9 9.01702 6.86053   2
  12  -4  -9 6.65614 4.38378   1
 -12  -4   9 5.12488 4.66354   1
 -11  -4   9 38.4461 6.58103   1
 -11  -4   9 46.3122 10.2022   2
  11  -4  -9 47.4833 6.46367   1
 -10  -4   9 25.1544 5.61355   1
  10  -4  -9 26.7432 5.03997   1
 -10  -4   9 28.9491 8.32823   2
   9  -4  -9 40.2548 5.43319   1
  -9  -4   9 46.0951 6.44752   1
  -9  -4   9 43.6303 9.52017   2
   8  -4  -9 106.280 7.50109   1
  -8  -4   9 83.9782 11.1647   2
  -8  -4   9 97.8155 8.49814   1
   7  -4  -9 -2.5369 2.90217   1
  -7  -4   9 -3.5818 4.62092   2
  -7  -4   9 1.29768 3.45260   1
  -6  -4   9 424.542 20.8426   2
  -6  -4   9 423.079 14.3653   1
   6  -4  -9 398.831 12.5364   1
  -5  -4   9 74.9950 6.92253   1
   5  -4  -9 84.4673 6.46461   1
  -5  -4   9 94.3124 11.9760   2
   4  -4  -9 549.493 14.4391   1
  -4  -4   9 544.788 15.6137   1
   4  -4  -9 524.127 15.5598   2
  -4  -4   9 556.942 22.6289   2
   3  -4  -9 499.563 13.5581   1
   3  -4  -9 471.123 14.6487   2
  -3  -4   9 449.405 20.9504   2
  -3  -4   9 483.073 14.3451   1
   2  -4  -9 3.56865 2.72528   1
  -2  -4   9 -0.1297 3.02327   1
   2  -4  -9 1.91425 3.13102   2
  -2  -4   9 -1.0427 5.56727   2
  -1  -4   9 148.270 13.4970   2
  -1  -4   9 165.306 8.55740   1
   1  -4  -9 151.544 9.09085   2
   1  -4  -9 155.436 7.85815   1
   0  -4   9 3.01087 3.05793   1
   0  -4   9 -0.0473 5.57855   2
   0  -4  -9 5.91992 3.75384   2
   0  -4  -9 1.99832 3.01632   1
  -1  -4  -9 50.4819 5.54317   1
  -1  -4  -9 55.3815 7.03974   2
   1  -4   9 48.2749 5.51183   1
   1  -4   9 45.0160 8.67116   2
   2  -4   9 60.8062 6.26622   1
  -2  -4  -9 70.7811 8.07923   2
   2  -4   9 65.7398 9.91467   2
  -2  -4  -9 49.9952 5.88298   1
   3  -4   9 79.0357 10.6842   2
  -3  -4  -9 85.4698 7.59671   1
   3  -4   9 88.3786 7.45427   1
  -3  -4  -9 80.8176 8.78415   2
   4  -4   9 10.2769 4.13216   1
  -4  -4  -9 12.1282 5.09821   2
  -4  -4  -9 7.44448 4.13233   1
   4  -4   9 10.6342 5.96911   2
  -5  -4  -9 306.958 15.7042   2
   5  -4   9 299.082 12.4585   1
  -5  -4  -9 291.672 13.2876   1
  -6  -4  -9 274.816 13.2161   1
   6  -4   9 310.793 12.8538   1
  -6  -4  -9 299.099 16.2628   2
  -7  -4  -9 -0.6657 4.12130   1
   7  -4   9 -7.0100 3.58151   1
  -7  -4  -9 -2.8352 5.29319   2
   8  -4   9 21.6935 5.36496   1
  -8  -4  -9 13.1190 5.26607   1
  -8  -4  -9 14.1443 5.25105   1
  -8  -4  -9 27.1787 8.31988   2
   9  -4   9 46.2782 7.03493   1
  -9  -4  -9 43.6158 7.13291   1
  -9  -4  -9 40.1384 6.98127   1
  -9  -4  -9 88.4797 13.6725   2
 -10  -4  -9 164.187 11.9852   1
  10  -4   9 163.127 11.7086   1
 -10  -4  -9 186.677 16.2728   2
 -11  -4  -9 172.612 13.1958   1
  11  -4   9 110.051 10.6453   1
 -11  -4  -9 186.666 17.7283   2
 -12  -4  -9 18.8435 8.72314   2
  12  -4   9 1.38605 5.12935   1
 -12  -4  -9 9.16286 6.06771   1
 -13  -4  -9 72.7022 13.7400   2
 -13  -4  -9 39.0552 8.74983   1
  13  -4   9 39.9636 8.06697   1
 -14  -4  -9 51.6028 12.1617   2
  14  -4   9 47.2246 9.06292   1
 -14  -4  -9 43.6262 8.86755   1
 -15  -5   9 73.6489 13.1730   2
 -15  -5   9 68.8123 9.58555   1
  15  -5  -9 77.9960 9.52450   1
  14  -5  -9 5.00184 4.88644   1
 -14  -5   9 15.4157 8.38268   2
 -14  -5   9 4.13989 5.52295   1
  13  -5  -9 9.93732 5.08490   1
 -13  -5   9 10.2408 5.66774   1
 -13  -5   9 4.36547 7.21667   2
  12  -5  -9 97.0646 8.93018   1
 -12  -5   9 69.7649 12.6135   2
 -12  -5   9 79.0120 9.38599   1
  11  -5  -9 35.5083 5.82045   1
 -11  -5   9 39.4260 7.10472   1
 -11  -5   9 45.1887 10.2107   2
 -10  -5   9 183.125 11.8880   1
  10  -5  -9 200.490 10.5827   1
 -10  -5   9 189.141 17.6503   2
  -9  -5   9 -4.2816 5.85129   2
  -9  -5   9 0.91578 3.87190   1
   9  -5  -9 -1.8030 3.16866   1
   8  -5  -9 63.1805 6.39827   1
  -8  -5   9 64.9945 7.41226   1
  -8  -5   9 53.6977 11.4988   2
  -7  -5   9 68.8156 11.1527   2
  -7  -5   9 64.8105 7.07467   1
   7  -5  -9 65.9265 6.14988   1
   6  -5  -9 50.3300 5.22918   1
  -6  -5   9 34.5103 9.37841   2
  -6  -5   9 49.3200 6.10289   1
  -5  -5   9 8.94647 7.02343   2
  -5  -5   9 4.55202 3.49058   1
   5  -5  -9 2.66057 2.90047   1
   4  -5  -9 67.8235 5.84308   1
  -4  -5   9 50.5329 5.99682   1
  -4  -5   9 51.0597 10.1482   2
   3  -5  -9 156.049 7.95709   1
  -3  -5   9 161.370 15.3873   2
  -3  -5   9 159.560 9.23244   1
  -2  -5   9 311.860 11.9871   1
   2  -5  -9 351.846 14.2456   2
  -2  -5   9 298.269 18.8045   2
   2  -5  -9 291.801 10.7632   1
  -1  -5   9 18.5370 4.30423   1
   1  -5  -9 26.2716 5.72664   2
   1  -5  -9 15.4960 3.76175   1
  -1  -5   9 11.9616 7.45876   2
   0  -5  -9 337.182 15.4091   2
   0  -5  -9 284.565 11.1222   1
   0  -5   9 291.163 11.4855   1
   0  -5   9 307.407 19.6630   2
   1  -5   9 27.0043 4.92701   1
  -1  -5  -9 29.4133 4.90086   1
   1  -5   9 24.0888 8.93159   2
  -1  -5  -9 28.4650 7.05339   2
  -2  -5  -9 100.622 8.05378   1
   2  -5   9 94.6032 13.1914   2
   2  -5   9 107.247 7.92086   1
  -2  -5  -9 130.190 12.5059   2
  -3  -5  -9 225.424 14.7665   2
   3  -5   9 210.689 16.9774   2
  -3  -5  -9 222.702 11.0392   1
   3  -5   9 242.973 10.9867   1
  -4  -5  -9 41.1367 6.22744   1
   4  -5   9 51.9319 6.26930   1
  -4  -5  -9 55.7006 9.85335   2
   4  -5   9 45.4346 10.1174   2
  -5  -5  -9 259.921 13.0193   1
  -5  -5  -9 261.930 17.1441   2
   5  -5   9 261.183 12.0034   1
  -6  -5  -9 145.664 14.4456   2
   6  -5   9 134.356 9.58423   1
  -6  -5  -9 145.323 10.4805   1
   7  -5   9 1.31164 3.99392   1
  -7  -5  -9 0.02808 3.86502   1
  -7  -5  -9 1.83476 7.04309   2
  -8  -5  -9 -0.9592 4.21714   1
  -8  -5  -9 1.00625 4.52357   1
   8  -5   9 1.58198 4.20597   1
  -8  -5  -9 11.5269 7.21468   2
  -9  -5  -9 92.1606 13.5437   2
  -9  -5  -9 55.9563 8.06839   1
   9  -5   9 63.9955 8.19922   1
 -10  -5  -9 103.413 14.7277   2
  10  -5   9 104.166 10.4152   1
 -10  -5  -9 100.107 10.7640   1
 -11  -5  -9 7.32232 7.75406   2
 -11  -5  -9 6.76443 5.73877   1
  11  -5   9 -5.7631 4.62942   1
 -12  -5  -9 69.2664 9.94399   1
  12  -5   9 84.2971 10.2162   1
 -12  -5  -9 77.0733 14.2326   2
 -11  -6   9 4.64123 8.33029   2
 -11  -6   9 0.03581 4.95396   1
  11  -6  -9 3.98013 4.15814   1
  10  -6  -9 0.96917 3.71288   1
 -10  -6   9 -1.3398 4.38453   1
 -10  -6   9 6.32089 8.59006   2
   9  -6  -9 5.24038 3.73931   1
  -9  -6   9 1.00700 7.64028   2
  -9  -6   9 11.4569 5.23051   1
  -8  -6   9 8.53019 7.25069   2
  -8  -6   9 4.20046 4.51942   1
   8  -6  -9 10.1675 3.87096   1
   7  -6  -9 7.36364 3.54760   1
  -7  -6   9 8.94872 8.14395   2
  -7  -6   9 2.22415 4.12112   1
  -6  -6   9 32.5478 10.2090   2
   6  -6  -9 31.6286 4.63122   1
  -6  -6   9 37.7985 6.05143   1
   5  -6  -9 31.2437 4.57196   1
  -5  -6   9 29.6660 5.47495   1
  -5  -6   9 24.5091 9.23742   2
   4  -6  -9 -0.3465 2.71022   1
  -4  -6   9 4.78575 7.56355   2
  -4  -6   9 -3.0138 3.57479   1
   1  -6  -9 19.6573 4.33111   1
  -1  -6   9 28.1007 9.82975   2
  -1  -6   9 16.5176 4.46857   1
   0  -6   9 75.5512 13.5490   2
   0  -6  -9 79.8880 7.06827   1
   0  -6   9 78.7303 7.33159   1
   1  -6   9 -1.6447 7.27106   2
  -1  -6  -9 0.11210 3.19322   1
   1  -6   9 4.49859 3.70053   1
   2  -6   9 1.81453 3.46046   1
   2  -6   9 -0.3395 6.45563   2
  -2  -6  -9 -6.9853 2.83324   1
   3  -6   9 1.84907 3.53732   1
  -3  -6  -9 4.05268 3.95582   1
   3  -6   9 -6.1931 5.97369   2
  -4  -6  -9 -2.0086 3.78616   1
   4  -6   9 5.34218 3.94267   1
   4  -6   9 -0.4992 8.02639   2
  -5  -6  -9 31.4748 6.24696   1
   5  -6   9 51.6528 6.71282   1
  -6  -6  -9 -0.6522 4.24042   1
  -6  -6  -9 3.39405 4.38424   1
   6  -6   9 0.71575 3.87313   1
  -7  -6  -9 5.16559 4.57384   1
   7  -6   9 7.21977 4.65794   1
  -7  -6  -9 -1.5970 4.08727   1
   8  -6   9 2.81801 4.94657   1
  21   0 -10 7.72319 7.31396   1
 -21   0  10 13.6965 6.75112   2
  20   0 -10 69.7155 10.6634   1
 -20   0  10 103.610 13.1417   2
 -19   0  10 92.4955 14.1035   1
 -19   0  10 74.5658 10.7760   2
  19   0 -10 82.7159 10.7222   1
  18   0 -10 16.5571 6.52882   1
 -18   0  10 24.6350 6.94761   2
 -18   0  10 18.8269 6.10784   1
 -17   0  10 51.5655 8.07657   1
 -17   0  10 52.5946 9.08424   2
  17   0 -10 54.5450 8.36284   1
 -16   0  10 64.2086 8.17284   1
  16   0 -10 49.1641 7.86911   1
 -16   0  10 73.3326 9.77791   2
 -15   0  10 928.588 28.1856   2
 -15   0  10 927.631 25.4101   1
  15   0 -10 979.358 27.0401   1
 -15   0  10 959.889 23.3021   3
 -14   0  10 20.3163 5.11943   1
 -14   0  10 19.1286 4.13329   3
  14   0 -10 9.85547 4.85162   1
 -14   0  10 22.6106 6.02354   2
 -13   0  10 1967.89 42.0560   2
 -13   0  10 1996.48 37.1284   3
 -13   0  10 1975.21 39.6594   1
  13   0 -10 1992.46 41.0311   1
 -12   0  10 1056.43 25.4974   1
 -12   0  10 1074.65 27.2992   2
 -12   0  10 1088.68 23.3996   3
  12   0 -10 1094.71 26.6979   1
 -11   0  10 4.89412 3.43825   1
  11   0 -10 2.82612 3.28154   1
 -11   0  10 4.43647 2.28213   3
 -11   0  10 12.1946 4.12025   2
 -10   0  10 216.159 10.4492   2
 -10   0  10 202.485 8.31108   3
  10   0 -10 212.466 10.2694   1
 -10   0  10 207.147 9.71851   1
  -9   0  10 244.949 10.2744   2
   9   0 -10 223.960 10.3178   1
  -9   0  10 260.245 9.03645   3
  -9   0  10 232.772 9.98799   1
  -8   0  10 226.291 8.25708   3
  -8   0  10 223.510 9.50885   1
  -8   0  10 228.695 9.29405   2
   8   0 -10 203.308 9.57928   1
   7   0 -10 54.5577 5.50807   1
  -7   0  10 66.2768 5.14322   2
  -7   0  10 64.6702 4.55618   3
  -7   0  10 58.5843 5.35861   1
   6   0 -10 85.7989 6.27184   1
  -6   0  10 90.6154 5.41739   2
  -6   0  10 85.9850 6.01344   1
  -5   0  10 35.3202 4.38942   1
  -5   0  10 32.9108 3.50830   2
   5   0 -10 28.9197 4.21414   1
  -4   0  10 62.4293 5.48133   1
   4   0 -10 69.1323 5.96772   1
  -4   0  10 66.2100 4.23982   2
  -3   0  10 42.4372 4.56665   1
   3   0 -10 37.5903 4.51100   1
  -3   0  10 44.5113 3.68909   2
  -2   0  10 2247.98 36.9788   2
   2   0 -10 2326.48 40.0721   1
  -2   0  10 2351.52 39.7450   1
  -1   0  10 -0.2916 2.22729   1
   1   0 -10 0.24591 2.33690   1
   0   0 -10 546.200 14.8108   1
   0   0  10 575.253 14.9299   1
   0   0 -10 560.769 13.0502   3
   1   0  10 4412.45 69.2895   1
  -1   0 -10 4416.49 69.4592   1
  -1   0 -10 4420.43 66.7366   3
   1   0  10 4466.28 67.1984   3
   2   0  10 82.9360 5.01470   3
  -2   0 -10 80.4381 6.23782   1
   2   0  10 75.8761 6.09076   1
  -2   0 -10 71.6897 4.89934   3
   3   0  10 864.464 20.5398   1
  -3   0 -10 859.354 18.3420   3
  -3   0 -10 896.091 20.6571   1
   3   0  10 892.018 18.5237   3
  -4   0 -10 381.313 11.1214   3
   4   0  10 379.503 11.0709   3
  -4   0 -10 380.082 12.8974   1
   4   0  10 391.399 13.0464   1
  -5   0 -10 535.935 15.9143   1
  -5   0 -10 532.650 13.9730   3
   5   0  10 540.600 16.1071   1
   5   0  10 543.045 13.8967   3
   6   0  10 21.1941 3.39622   3
  -6   0 -10 28.7340 3.99375   3
  -6   0 -10 26.8972 4.85538   1
   6   0  10 25.9778 4.94374   1
   7   0  10 294.539 10.4147   3
  -7   0 -10 297.866 10.7075   3
  -7   0 -10 295.181 12.3551   1
   7   0  10 309.425 12.8087   1
  -8   0 -10 202.417 10.8734   1
   8   0  10 217.284 11.4550   1
  -8   0 -10 226.582 11.4602   1
  -8   0 -10 225.356 9.60749   3
   8   0  10 220.942 9.31294   3
   9   0  10 47.7795 6.68252   3
  -9   0 -10 50.2999 6.78759   1
  -9   0 -10 44.7697 4.92939   3
   9   0  10 56.8368 7.44250   1
 -10   0 -10 394.587 13.5580   3
 -10   0 -10 364.301 15.3809   1
  10   0  10 387.898 16.1855   1
 -11   0 -10 -0.0356 4.37015   1
 -11   0 -10 3.49406 3.57939   3
  11   0  10 0.57555 4.85959   1
 -12   0 -10 182.074 10.2469   3
  12   0  10 173.092 12.4300   1
 -12   0 -10 168.057 11.9005   1
 -13   0 -10 66.5428 9.04036   1
  13   0  10 65.9233 9.07615   1
  14   0  10 59.4205 9.39823   1
 -14   0 -10 54.9230 8.74168   1
 -15   0 -10 15.1507 6.37401   1
  15   0  10 14.6345 6.62207   1
  16   0  10 4.44237 5.92003   1
 -16   0 -10 5.26690 9.12883   1
  17   0  10 71.3233 11.2333   1
 -21  -1  10 5.23994 6.39237   1
 -21  -1  10 12.4654 7.72912   2
  21  -1 -10 -0.4431 6.60185   1
  21   1 -10 7.68878 6.56013   1
 -21   1  10 2.03342 8.97980   2
 -20  -1  10 5.01580 6.00807   2
 -20  -1  10 6.28986 6.17023   1
  20  -1 -10 2.57114 6.85119   1
 -20   1  10 -12.392 7.82445   2
  20   1 -10 1.48525 5.71949   1
 -19  -1  10 8.79734 6.48764   2
  19  -1 -10 -7.1107 5.34239   1
 -19  -1  10 -8.1924 4.49978   1
 -19  -1  10 -2.4675 2.97823   3
 -19   1  10 -15.211 8.46900   2
  19   1 -10 -0.1417 5.19977   1
 -18  -1  10 44.4071 6.56690   3
 -18  -1  10 30.5350 7.39871   1
  18  -1 -10 55.5346 9.42372   1
 -18  -1  10 50.9167 9.82277   2
  18   1 -10 56.5883 9.09795   1
 -18   1  10 18.4743 10.5045   2
  17  -1 -10 45.5968 7.94194   1
 -17  -1  10 73.0749 11.0380   2
 -17  -1  10 51.4178 7.93807   1
 -17  -1  10 56.4206 7.02535   3
 -17   1  10 32.1100 10.7220   2
  17   1 -10 49.4262 8.28489   1
 -16  -1  10 -9.3094 4.10772   1
 -16  -1  10 -1.3391 4.90172   2
  16  -1 -10 -2.3231 4.75843   1
 -16  -1  10 0.83521 2.65075   3
  16   1 -10 1.62142 4.62942   1
 -16   1  10 -15.652 7.57541   2
 -15  -1  10 18.3043 6.45671   1
 -15  -1  10 19.5651 6.91406   2
  15  -1 -10 16.0534 6.26871   1
 -15  -1  10 25.5444 4.92236   3
 -15   1  10 15.4361 5.17273   1
  15   1 -10 4.87794 5.06249   1
 -15   1  10 8.97050 8.51341   2
 -14  -1  10 311.303 11.7826   3
  14  -1 -10 313.935 14.6984   1
 -14  -1  10 338.639 17.0905   2
 -14  -1  10 295.954 14.1961   1
  14   1 -10 316.797 14.6363   1
 -14   1  10 331.782 13.5411   1
 -14   1  10 295.098 17.0616   2
  13  -1 -10 8.12367 4.75409   1
 -13  -1  10 18.4554 3.78182   3
 -13  -1  10 13.7222 5.56001   2
 -13  -1  10 20.3536 5.36463   1
  13   1 -10 19.6583 5.08190   1
 -13   1  10 7.85911 6.80788   2
 -13   1  10 13.5400 4.23472   1
 -12  -1  10 181.242 11.9187   2
  12  -1 -10 185.724 10.8034   1
 -12  -1  10 196.114 8.86629   3
 -12  -1  10 189.344 10.6578   1
 -12   1  10 195.519 9.79907   1
 -12   1  10 174.143 12.1466   2
  12   1 -10 192.523 10.7647   1
 -12   1  10 196.720 9.15245   3
 -11  -1  10 6.94738 4.16597   2
 -11  -1  10 2.63267 3.29975   1
 -11  -1  10 3.49623 2.37476   3
  11  -1 -10 4.94376 3.51411   1
 -11   1  10 2.20737 4.18834   2
  11   1 -10 3.97766 3.76761   1
 -11   1  10 6.71731 3.17393   1
  10  -1 -10 65.7307 6.72877   1
 -10  -1  10 57.7028 6.00944   1
 -10  -1  10 75.1059 5.46440   3
 -10  -1  10 70.4283 7.82062   2
 -10   1  10 67.2651 6.17029   1
 -10   1  10 79.6163 6.64420   2
  10   1 -10 66.7893 6.64772   1
  -9  -1  10 17.8365 4.41353   2
  -9  -1  10 15.9419 2.93989   3
  -9  -1  10 7.36788 3.47394   1
   9  -1 -10 9.48853 3.78317   1
  -9   1  10 9.05361 3.31420   1
  -9   1  10 18.9893 3.37388   2
   9   1 -10 9.81551 3.71559   1
  -8  -1  10 120.300 6.11149   3
  -8  -1  10 147.873 8.27629   1
  -8  -1  10 136.022 8.64635   2
   8  -1 -10 148.363 8.28665   1
   8   1 -10 127.054 7.89366   1
  -8   1  10 143.482 6.25432   2
  -8   1  10 143.320 7.36237   1
   7  -1 -10 1.52773 2.72528   1
  -7  -1  10 2.74319 2.87173   2
  -7  -1  10 1.97820 1.76342   3
  -7  -1  10 2.72818 2.54168   1
   7   1 -10 -1.2402 2.42952   1
  -7   1  10 1.19975 2.49776   1
  -7   1  10 3.11658 1.73694   2
  -6  -1  10 25.3414 4.12856   1
  -6  -1  10 33.1921 3.70053   3
  -6  -1  10 33.1104 4.88572   2
   6  -1 -10 26.9122 4.11445   1
  -6  -1  10 28.3422 3.11510   3
  -6   1  10 30.0512 3.98997   1
  -6   1  10 26.6186 2.47358   2
   6   1 -10 29.5394 4.46385   1
  -5  -1  10 1813.60 30.3504   3
   5  -1 -10 1709.17 32.6399   1
  -5  -1  10 1733.08 32.7842   1
  -5  -1  10 1741.82 33.7412   2
  -5  -1  10 1780.33 30.0009   3
  -5   1  10 1786.54 31.6439   1
   5   1 -10 1786.67 32.8347   1
  -4  -1  10 7.16761 2.04963   3
  -4  -1  10 8.43460 3.11331   2
  -4  -1  10 6.69760 2.10080   3
  -4  -1  10 4.37740 2.60726   1
   4  -1 -10 2.68563 2.52290   1
  -4   1  10 7.58910 2.68646   1
   4   1 -10 5.86128 2.50888   1
  -3  -1  10 135.044 5.67744   3
   3  -1 -10 132.212 7.09687   1
  -3  -1  10 141.962 7.25387   1
  -3  -1  10 129.374 7.32512   2
  -3  -1  10 124.468 5.43842   3
   3   1 -10 133.715 7.04938   1
  -3   1  10 122.962 6.39874   1
  -2  -1  10 -1.7911 1.99437   1
  -2  -1  10 -2.3462 2.39506   2
   2  -1 -10 10.7971 3.17490   1
  -2  -1  10 -0.4501 1.44963   3
  -2   1  10 -0.7798 2.15195   1
   2   1 -10 -1.2353 2.08348   1
  -1  -1  10 462.818 13.2520   1
  -1  -1  10 451.397 11.0257   3
   1  -1 -10 458.184 13.2472   1
  -1  -1  10 476.383 14.1297   2
   1   1 -10 422.861 11.3406   3
   1   1 -10 453.612 12.8667   1
  -1   1  10 480.045 12.7838   1
   0  -1  10 403.079 13.3469   2
   0  -1 -10 409.885 12.4208   1
   0  -1  10 403.788 10.1833   3
   0  -1  10 395.671 12.3126   1
   0   1 -10 399.432 11.9548   1
   0   1 -10 385.185 10.6515   3
   0   1  10 396.030 11.7953   1
   1  -1  10 263.459 10.0589   1
   1  -1  10 276.886 8.22675   3
  -1  -1 -10 254.589 9.99002   1
  -1   1 -10 261.436 8.58387   3
   1   1  10 266.237 9.72932   1
  -1   1 -10 265.347 9.68613   1
  -2  -1 -10 54.1343 5.60134   1
   2  -1  10 40.8004 4.96917   1
   2  -1  10 41.4188 3.71659   3
   2   1  10 50.0039 5.23558   1
  -2   1 -10 54.2000 4.47327   3
  -2   1 -10 49.8855 5.10938   1
  -3  -1 -10 100.833 7.08411   1
   3  -1  10 104.614 7.19058   1
   3  -1  10 106.836 5.31568   3
  -3  -1 -10 109.873 5.61028   3
  -3   1 -10 106.901 5.85117   3
  -3   1 -10 110.831 6.77406   1
   3   1  10 106.962 6.89343   1
  -4  -1 -10 6.73398 2.30621   3
   4  -1  10 6.18925 2.10088   3
   4  -1  10 2.81130 3.14302   1
  -4  -1 -10 4.17854 3.11450   1
  -4   1 -10 4.81886 2.11660   3
  -4   1 -10 5.75882 2.75478   1
   4   1  10 4.26640 2.98652   1
   5  -1  10 165.559 6.83124   3
  -5  -1 -10 180.699 9.48203   1
  -5  -1 -10 159.686 7.07464   3
   5  -1  10 153.143 8.83899   1
   5   1  10 139.113 8.36205   1
  -5   1 -10 176.837 8.77108   1
  -5   1 -10 160.777 7.39749   3
  -6  -1 -10 5.34327 3.56708   1
   6  -1  10 7.10621 2.28092   3
  -6  -1 -10 8.99932 2.63761   3
   6  -1  10 5.28341 3.49852   1
  -6   1 -10 8.04166 3.57894   1
  -6   1 -10 4.88626 2.49734   3
  -6   1 -10 8.08144 3.49383   1
   6   1  10 9.42559 3.74174   1
  -7  -1 -10 82.0615 5.89236   3
  -7  -1 -10 66.0189 6.99486   1
   7  -1  10 76.4749 5.39303   3
   7  -1  10 80.5452 7.71711   1
   7   1  10 78.1602 7.57581   1
  -7   1 -10 90.7216 7.33150   1
  -7   1 -10 79.5966 7.18544   1
  -8  -1 -10 440.202 13.1721   3
  -8  -1 -10 423.813 16.0992   1
  -8  -1 -10 465.820 16.5806   1
   8  -1  10 438.262 12.4473   3
   8  -1  10 407.740 15.8041   1
   8   1  10 442.891 15.8042   1
  -8   1 -10 450.913 15.4967   1
  -8   1 -10 444.100 13.8698   3
   9  -1  10 800.179 18.4790   3
  -9  -1 -10 808.945 19.4630   3
   9  -1  10 811.170 23.4073   1
  -9  -1 -10 831.586 23.6220   1
  -9  -1 -10 806.542 23.3102   1
  -9   1 -10 814.389 22.1286   1
  -9   1 -10 764.634 28.2133   3
   9   1  10 834.661 23.1169   1
 -10  -1 -10 159.538 8.83967   3
  10  -1  10 137.782 7.83748   3
  10  -1  10 155.472 11.3474   1
 -10  -1 -10 151.748 11.2118   1
  10   1  10 139.850 11.0182   1
 -10   1 -10 144.947 10.1587   1
 -11  -1 -10 183.423 12.2337   1
  11  -1  10 163.545 11.8587   1
  11  -1  10 179.244 8.58646   3
 -11  -1 -10 176.650 9.44284   3
  11   1  10 162.543 11.5486   1
 -11   1 -10 166.223 11.1590   1
 -12  -1 -10 126.275 8.52197   3
 -12  -1 -10 127.647 11.9170   1
  12  -1  10 90.2770 10.2923   1
  12  -1  10 112.639 7.50481   3
  12   1  10 124.702 11.5857   1
 -12   1 -10 99.1276 9.65414   1
  13  -1  10 13.1903 3.61478   3
  13  -1  10 14.2978 6.43519   1
 -13  -1 -10 11.7208 5.76469   1
 -13  -1 -10 12.8545 4.07898   3
  13   1  10 4.95300 5.68028   1
  14  -1  10 -0.0334 3.28503   3
  14  -1  10 -10.268 4.47875   1
 -14  -1 -10 3.84887 3.44539   3
 -14  -1 -10 -0.9268 4.90223   1
  14   1  10 0.84221 5.25940   1
 -15  -1 -10 3.21687 5.55864   1
  15  -1  10 0.87412 5.60257   1
 -15  -1 -10 -4.0144 3.07210   3
  15   1  10 -1.1939 5.56022   1
 -16  -1 -10 5.34987 5.68735   1
  16  -1  10 1.74334 6.23521   1
 -16  -1 -10 1.34880 3.62025   3
  16   1  10 0.72653 5.67189   1
 -17  -1 -10 39.3242 6.55562   3
 -17  -1 -10 28.8081 8.35366   1
  17  -1  10 42.7235 9.44801   1
 -21  -2  10 20.4366 5.05282   3
 -20  -2  10 1.17081 6.51620   2
  20  -2 -10 3.33959 6.38561   1
 -20  -2  10 6.48319 3.89358   3
 -20  -2  10 -4.5860 5.93776   1
  19  -2 -10 1.66048 6.16688   1
 -19  -2  10 3.54436 5.70848   1
 -19  -2  10 8.32690 7.35289   2
 -19  -2  10 2.28034 3.44189   3
 -18  -2  10 5.59033 6.31953   1
  18  -2 -10 18.2908 6.83629   1
 -18  -2  10 15.1105 7.90713   2
 -18  -2  10 7.55592 3.64366   3
 -17  -2  10 -1.9000 2.66754   3
 -17  -2  10 -8.8870 4.63329   1
 -17  -2  10 1.94153 5.72373   2
  17  -2 -10 -5.5615 4.78529   1
  16  -2 -10 23.8791 7.02779   1
 -16  -2  10 25.7698 6.87761   1
 -16  -2  10 35.9958 8.75506   2
 -16  -2  10 32.4694 4.73353   3
  16   2 -10 32.8133 6.98271   1
 -15  -2  10 416.286 13.5893   3
 -15  -2  10 384.674 17.3543   1
  15  -2 -10 420.215 17.6683   1
 -15  -2  10 433.556 21.1407   2
  15   2 -10 413.354 16.7702   1
 -14  -2  10 156.607 8.20525   3
  14  -2 -10 162.851 11.6694   1
 -14  -2  10 158.999 11.5299   1
 -14  -2  10 160.517 13.5278   2
  14   2 -10 144.883 10.4467   1
 -13  -2  10 321.106 14.7945   1
 -13  -2  10 321.617 17.5234   2
 -13  -2  10 325.317 10.9890   3
  13  -2 -10 322.760 14.4109   1
  13   2 -10 301.949 13.6632   1
 -12  -2  10 557.898 14.5164   3
  12  -2 -10 546.980 18.3669   1
 -12  -2  10 507.194 18.0993   1
 -12  -2  10 553.427 22.0424   2
  12   2 -10 539.606 17.6774   1
 -11  -2  10 527.292 20.9810   2
 -11  -2  10 516.402 13.5237   3
  11  -2 -10 535.888 17.2860   1
 -11  -2  10 504.393 17.3226   1
  11   2 -10 521.121 16.7009   1
 -10  -2  10 36.9825 7.41906   2
 -10  -2  10 31.6697 5.51222   1
 -10  -2  10 48.2760 4.59034   3
 -10  -2  10 47.0430 4.43316   3
  10  -2 -10 35.8959 5.43247   1
  10   2 -10 43.4332 5.69959   1
 -10   2  10 47.0037 5.04965   1
  -9  -2  10 194.376 7.39654   3
  -9  -2  10 180.325 11.9281   2
  -9  -2  10 158.777 9.45580   1
   9  -2 -10 161.911 9.21384   1
  -9  -2  10 169.487 6.92361   3
  -9   2  10 178.299 8.02522   1
   9   2 -10 174.210 9.08630   1
  -8  -2  10 472.575 11.5824   3
  -8  -2  10 453.947 14.8196   1
  -8  -2  10 450.519 17.6704   2
  -8  -2  10 447.361 11.2294   3
   8  -2 -10 448.315 14.3015   1
   8   2 -10 462.749 14.3293   1
  -8   2  10 453.870 12.3110   1
  -7  -2  10 65.0245 8.02670   2
  -7  -2  10 76.7026 4.37241   3
  -7  -2  10 65.7685 4.28078   3
  -7  -2  10 66.6213 6.44299   1
   7  -2 -10 80.5825 6.34447   1
   7   2 -10 70.4748 6.32144   1
  -7   2  10 69.6726 5.00040   1
  -6  -2  10 6.95598 1.87962   3
   6  -2 -10 10.3471 3.21192   1
  -6  -2  10 7.53053 3.26154   1
  -6  -2  10 8.01764 4.39531   2
  -6  -2  10 14.0641 2.23874   3
   6   2 -10 10.5517 3.11721   1
  -6   2  10 12.1547 2.80400   1
  -5  -2  10 187.963 6.17076   3
  -5  -2  10 191.480 10.7943   2
   5  -2 -10 185.427 8.51206   1
  -5  -2  10 189.139 8.92719   1
  -5  -2  10 184.482 6.02525   3
  -5   2  10 193.258 7.26774   1
   5   2 -10 185.515 8.08065   1
  -4  -2  10 99.5280 8.25780   2
  -4  -2  10 106.530 4.42098   3
  -4  -2  10 116.315 4.60761   3
   4  -2 -10 112.491 6.64470   1
  -4  -2  10 109.610 6.92181   1
  -4   2  10 122.052 5.84667   1
   4   2 -10 109.230 6.18372   1
   3  -2 -10 45.5247 4.82765   1
  -3  -2  10 47.6422 3.11076   3
  -3  -2  10 45.5729 5.05508   1
  -3  -2  10 65.8860 7.37062   2
  -3  -2  10 50.7893 3.27568   3
  -3   2  10 51.5810 4.35432   1
   3   2 -10 55.7742 5.01621   1
  -2  -2  10 508.714 10.1680   3
  -2  -2  10 509.402 17.2358   2
  -2  -2  10 497.178 14.1854   1
   2  -2 -10 507.801 13.9251   1
  -2  -2  10 520.024 10.3117   3
   2   2 -10 512.753 13.2518   1
  -2   2  10 501.619 12.4908   1
  -1  -2  10 759.333 13.3618   3
   1  -2 -10 738.888 13.4740   2
   1  -2 -10 730.491 17.9204   1
  -1  -2  10 767.854 18.2754   1
  -1  -2  10 755.956 13.3699   3
  -1  -2  10 745.667 21.4486   2
   1   2 -10 736.208 16.8409   1
  -1   2  10 737.783 16.2441   1
   0  -2  10 309.712 7.02571   3
   0  -2  10 311.331 7.10395   3
   0  -2 -10 296.600 8.35249   2
   0  -2  10 322.845 13.8007   2
   0  -2 -10 289.057 10.6226   1
   0  -2  10 304.657 10.9156   1
   0   2 -10 328.409 10.2331   1
   0   2  10 304.697 9.65342   1
   1  -2  10 244.279 9.92361   1
  -1  -2 -10 251.610 8.55961   2
   1  -2  10 241.613 6.11958   3
   1  -2  10 262.929 12.9055   2
   1  -2  10 250.709 6.22296   3
  -1  -2 -10 263.532 10.3962   1
   1   2  10 255.749 8.98933   1
  -1   2 -10 252.601 9.02362   1
   2  -2  10 510.580 9.84848   3
  -2  -2 -10 485.744 13.5264   2
   2  -2  10 503.216 9.87340   3
  -2  -2 -10 491.022 14.7698   1
   2  -2  10 538.063 15.0341   1
   2   2  10 469.928 13.1726   1
  -2   2 -10 497.428 13.4174   1
  -3  -2 -10 40.2398 5.31232   2
   3  -2  10 38.5757 2.68008   3
  -3  -2 -10 30.8010 4.69748   1
   3  -2  10 35.6318 2.71262   3
   3  -2  10 27.3693 4.42949   1
  -3   2 -10 39.3780 4.52801   1
   3   2  10 34.9146 4.47313   1
   4  -2  10 -2.1255 1.21286   3
  -4  -2 -10 -3.8390 3.86168   2
   4  -2  10 -1.3966 2.82173   1
  -4  -2 -10 -3.1366 2.70111   1
  -4   2 -10 0.53922 2.42957   1
   4   2  10 -0.7233 2.62389   1
  -4   2 -10 0.46436 2.61336   1
   5  -2  10 3.50724 1.51138   3
  -5  -2 -10 -2.0049 2.91179   1
  -5  -2 -10 -6.1016 5.05716   2
   5  -2  10 4.06980 3.45750   1
   5   2  10 0.06444 2.65369   1
  -5   2 -10 1.13163 2.73357   1
  -5   2 -10 -0.4902 2.70856   1
   6  -2  10 0.92247 3.62229   1
   6  -2  10 6.70129 1.82828   3
  -6  -2 -10 6.04202 3.85046   1
  -6   2 -10 1.61322 2.93912   1
   6   2  10 4.70396 3.44504   1
   7  -2  10 5.04437 4.20136   1
  -7  -2 -10 6.85876 4.07613   1
  -7  -2 -10 5.71904 2.56519   3
   7  -2  10 7.35821 1.97001   3
  -7   2 -10 5.34654 3.52982   1
   7   2  10 10.3990 4.06551   1
   8  -2  10 27.8313 3.03358   3
   8  -2  10 23.6166 5.96694   1
  -8  -2 -10 36.8980 6.46320   1
  -8  -2 -10 32.2361 4.06746   3
   8   2  10 29.1950 5.75560   1
  -8   2 -10 34.0473 7.64652   1
  -9  -2 -10 502.964 13.5866   3
   9  -2  10 495.722 11.4771   3
   9  -2  10 475.636 17.9629   1
  -9  -2 -10 482.594 18.1379   1
  -9  -2 -10 519.279 18.6432   1
   9   2  10 526.500 17.6132   1
 -10  -2 -10 235.488 13.5237   1
 -10  -2 -10 236.103 9.60059   3
  10  -2  10 245.604 13.5605   1
  10  -2  10 233.807 7.57884   3
  10   2  10 264.969 13.0926   1
 -11  -2 -10 132.752 11.5406   1
  11  -2  10 124.255 11.2826   1
 -11  -2 -10 121.280 7.48814   3
  11  -2  10 108.880 5.45838   3
  11   2  10 111.529 13.0591   1
 -12  -2 -10 26.5987 4.38557   3
  12  -2  10 26.9880 3.22005   3
 -12  -2 -10 40.5442 7.49062   1
  12  -2  10 28.4932 7.03090   1
 -13  -2 -10 10.6812 5.83362   1
  13  -2  10 14.3663 6.37082   1
 -13  -2 -10 20.8862 4.19698   3
  13  -2  10 21.7836 3.07256   3
  14  -2  10 4.21883 2.17978   3
 -14  -2 -10 3.68784 3.16332   3
  14  -2  10 8.21710 6.06396   1
 -14  -2 -10 10.9132 6.05806   1
  15  -2  10 0.09919 5.56374   1
  15  -2  10 4.27767 2.24311   3
 -15  -2 -10 10.9961 5.94939   1
 -15  -2 -10 6.60016 3.57464   3
  16  -2  10 12.8741 7.33926   1
 -16  -2 -10 13.2457 4.18940   3
  16  -2  10 6.38560 2.38364   3
 -16  -2 -10 15.1869 7.11566   1
 -16  -2 -10 -33.514 12.7391   2
 -19  -3  10 43.6661 5.23500   3
 -19  -3  10 46.0686 9.67894   1
  19  -3 -10 42.4176 9.32181   1
 -19  -3  10 54.1080 12.0535   2
 -18  -3  10 3.96568 5.85708   1
 -18  -3  10 1.12858 2.74235   3
 -18  -3  10 5.91184 7.46327   2
  18  -3 -10 -0.0032 5.87035   1
 -18  -3  10 -1.2921 2.66223   3
 -17  -3  10 124.907 7.29422   3
 -17  -3  10 113.744 14.9561   2
 -17  -3  10 109.636 11.6670   1
  17  -3 -10 113.615 11.4251   1
 -17  -3  10 132.358 7.19510   3
  16  -3 -10 14.9836 6.05310   1
 -16  -3  10 21.6633 8.57200   2
 -16  -3  10 17.6848 6.50576   1
 -16  -3  10 20.3637 3.56649   3
 -16  -3  10 14.3969 3.36348   3
 -15  -3  10 29.2056 3.79775   3
 -15  -3  10 22.0772 7.82979   2
 -15  -3  10 24.5358 7.19560   1
 -15  -3  10 31.7657 3.99839   3
  15  -3 -10 40.8088 7.36124   1
 -14  -3  10 0.88735 5.73968   2
 -14  -3  10 1.42235 2.01664   3
 -14  -3  10 -8.1805 4.46742   1
 -14  -3  10 -0.7139 2.03789   3
  14  -3 -10 0.96101 4.66415   1
 -13  -3  10 396.496 21.1674   2
 -13  -3  10 409.410 10.4685   3
 -13  -3  10 418.648 17.3550   1
  13  -3 -10 442.137 16.9287   1
 -13  -3  10 397.321 10.5070   3
 -12  -3  10 134.374 5.54988   3
 -12  -3  10 130.883 10.5491   1
 -12  -3  10 132.234 5.38715   3
 -12  -3  10 123.497 13.5782   2
  12  -3 -10 119.821 9.72222   1
 -11  -3  10 2.70533 5.30052   2
 -11  -3  10 -5.0709 3.90746   1
  11  -3 -10 -3.4199 3.74439   1
 -11  -3  10 9.29219 1.86124   3
 -11  -3  10 6.55380 1.78559   3
 -10  -3  10 2186.52 51.0060   2
 -10  -3  10 2257.60 43.8496   1
  10  -3 -10 2243.67 42.2416   1
 -10  -3  10 2183.87 33.0732   3
   9  -3 -10 146.021 9.27281   1
  -9  -3  10 158.179 13.3068   2
  -9  -3  10 150.308 9.84611   1
  -8  -3  10 17.7270 4.91413   1
  -8  -3  10 28.3114 7.12056   2
   8  -3 -10 26.5067 5.03282   1
  -7  -3  10 2135.44 47.5551   2
  -7  -3  10 2198.83 40.4192   1
   7  -3 -10 2133.11 38.7262   1
   7   3 -10 1990.36 44.9884   1
   6  -3 -10 -0.2164 2.90946   1
  -6  -3  10 -0.7333 3.12349   1
  -6  -3  10 2.41461 4.78009   2
   6   3 -10 -0.6355 2.61273   1
  -5  -3  10 1610.91 31.7558   1
  -5  -3  10 1589.39 38.6643   2
   5  -3 -10 1596.59 30.6000   1
  -4  -3  10 563.689 15.9012   1
   4  -3 -10 585.054 15.3150   1
  -4  -3  10 545.768 20.2916   2
   3  -3 -10 78.3712 4.41854   2
   3  -3 -10 89.2221 6.38624   1
  -3  -3  10 79.2231 6.77943   1
  -3  -3  10 73.9114 9.11918   2
   2  -3 -10 93.9295 5.01461   2
  -2  -3  10 98.2097 10.5415   2
   2  -3 -10 102.718 6.71328   1
  -2  -3  10 94.4219 6.84163   1
   1  -3 -10 132.109 6.30330   2
   1  -3 -10 125.721 7.57333   1
  -1  -3  10 132.391 11.2211   2
  -1  -3  10 123.144 7.66845   1
   0  -3 -10 1428.99 27.4188   2
   0  -3  10 1457.60 29.3612   1
   0  -3  10 1492.54 36.7775   2
   0  -3 -10 1504.70 29.2641   1
   1  -3  10 836.232 26.4577   2
  -1  -3 -10 808.826 19.3649   2
   1  -3  10 851.128 20.3542   1
  -1  -3 -10 831.864 20.2857   1
  -2  -3 -10 480.932 15.1862   1
   2  -3  10 489.504 15.0085   1
   2  -3  10 516.291 20.8848   2
  -2  -3 -10 476.739 14.9329   2
  -3  -3 -10 2907.58 51.7322   2
  -3  -3 -10 2931.45 51.2312   1
   3  -3  10 2887.60 59.6264   2
   3  -3  10 2994.62 51.0657   1
  -4  -3 -10 77.2400 8.08509   2
  -4  -3 -10 44.6015 5.93276   1
   4  -3  10 65.2568 6.82348   1
  -5  -3 -10 69.6864 7.37511   1
  -5  -3 -10 89.6548 8.82733   2
   5  -3  10 72.6478 7.14199   1
  -6  -3 -10 422.925 17.4576   2
   6  -3  10 395.191 15.1175   1
  -6  -3 -10 426.591 15.8639   1
   7  -3  10 118.790 10.0159   1
  -7  -3 -10 127.558 11.2873   2
  -7  -3 -10 103.852 9.37156   1
  -8  -3 -10 21.4057 6.86125   2
   8  -3  10 11.4759 5.12636   1
  -8  -3 -10 8.09686 4.89882   1
  -9  -3 -10 139.499 10.8306   1
  -9  -3 -10 151.218 13.8750   2
  -9  -3 -10 152.176 11.2870   1
   9  -3  10 138.938 11.1495   1
 -10  -3 -10 122.357 11.4882   1
 -10  -3 -10 113.474 11.1699   1
  10  -3  10 128.265 11.0993   1
 -10  -3 -10 138.576 13.5220   2
 -11  -3 -10 62.9705 10.7539   2
  11  -3  10 61.4427 8.79160   1
 -11  -3 -10 54.2493 8.74045   1
  12  -3  10 87.0705 9.94868   1
 -12  -3 -10 53.4927 8.61265   1
 -12  -3 -10 75.5721 12.2221   2
  13  -3  10 115.933 11.7773   1
 -13  -3 -10 106.175 11.6896   1
 -13  -3 -10 128.777 15.9200   2
 -14  -3 -10 44.5923 11.1437   2
  14  -3  10 33.2184 8.18869   1
 -14  -3 -10 26.3795 7.36651   1
 -15  -3 -10 4.17560 6.92291   2
  15  -3  10 -5.8623 5.67738   1
 -15  -3 -10 -6.0819 5.13416   1
  18  -4 -10 104.815 11.7794   1
 -18  -4  10 81.7532 13.7540   2
 -17  -4  10 0.48837 5.73631   1
  17  -4 -10 -0.2999 5.51397   1
 -17  -4  10 6.26824 7.14568   2
 -16  -4  10 47.0026 8.80374   1
  16  -4 -10 38.9578 7.69658   1
 -16  -4  10 42.6217 10.0455   2
 -15  -4  10 11.9574 7.69890   2
 -15  -4  10 22.1494 6.73816   1
  15  -4 -10 11.1123 5.62550   1
  14  -4 -10 -3.5152 4.16786   1
 -14  -4  10 2.90511 6.52372   2
 -14  -4  10 13.3205 5.91804   1
 -13  -4  10 7.95226 5.56883   1
 -13  -4  10 12.4052 7.06936   2
  13  -4 -10 14.1497 5.43127   1
 -12  -4  10 0.38745 4.44395   1
 -12  -4  10 4.16938 6.46148   2
  12  -4 -10 -0.1091 3.87226   1
 -11  -4  10 -2.1267 4.84270   2
  11  -4 -10 -0.7064 3.62869   1
 -11  -4  10 3.66423 4.42943   1
  10  -4 -10 7.61735 3.93874   1
 -10  -4  10 18.0283 7.56885   2
 -10  -4  10 10.0780 4.57332   1
  -9  -4  10 34.4728 8.45924   2
  -9  -4  10 41.1928 6.33981   1
   9  -4 -10 40.4327 5.49577   1
  -8  -4  10 186.289 10.7448   1
  -8  -4  10 217.940 16.0947   2
   8  -4 -10 198.198 9.81172   1
  -7  -4  10 118.057 13.7441   2
  -7  -4  10 129.385 9.14464   1
   7  -4 -10 117.265 7.79175   1
  -6  -4  10 393.590 20.0183   2
   6  -4 -10 431.376 13.4613   1
  -6  -4  10 444.618 14.9946   1
  -5  -4  10 346.614 18.4511   2
   5  -4 -10 356.621 12.2019   1
  -5  -4  10 378.406 13.5219   1
   4  -4 -10 152.850 8.30973   1
   4  -4 -10 176.175 8.38893   2
  -4  -4  10 156.066 13.8465   2
  -4  -4  10 166.070 9.29245   1
  -3  -4  10 349.579 18.8201   2
   3  -4 -10 350.495 11.8319   2
  -3  -4  10 339.202 12.6020   1
   3  -4 -10 345.678 11.7757   1
  -2  -4  10 441.572 14.0905   1
  -2  -4  10 411.991 20.4714   2
   2  -4 -10 443.810 13.4337   1
   2  -4 -10 430.407 13.4770   2
  -1  -4  10 6.94243 6.27698   2
  -1  -4  10 -0.4777 3.24703   1
   1  -4 -10 5.28280 3.27101   1
   1  -4 -10 8.26923 3.58708   2
   0  -4 -10 17.6346 4.13197   1
   0  -4 -10 15.8451 4.28325   2
   0  -4  10 4.02425 5.82449   2
   0  -4  10 10.9937 3.77596   1
   1  -4  10 211.828 15.4822   2
   1  -4  10 177.523 9.41893   1
  -1  -4 -10 197.774 10.7803   2
  -1  -4 -10 193.665 9.57316   1
   2  -4  10 61.8306 10.0103   2
  -2  -4 -10 70.5795 7.96786   2
  -2  -4 -10 55.8692 6.46948   1
   2  -4  10 71.0777 6.79753   1
  -3  -4 -10 641.898 20.7270   2
   3  -4  10 694.379 18.7927   1
  -3  -4 -10 625.892 18.6320   1
   3  -4  10 645.464 25.9320   2
  -4  -4 -10 87.6312 8.33675   1
   4  -4  10 83.9016 7.82643   1
  -4  -4 -10 92.3435 9.97534   2
  -5  -4 -10 93.5392 8.70350   1
  -5  -4 -10 111.357 11.2999   2
   5  -4  10 87.8908 8.02767   1
   6  -4  10 -3.5759 3.76303   1
  -6  -4 -10 2.51669 4.23336   1
  -6  -4 -10 2.58797 5.65743   2
   7  -4  10 12.8392 4.80004   1
  -7  -4 -10 18.2026 6.91941   2
  -7  -4 -10 9.42303 4.84042   1
   8  -4  10 59.8288 7.57714   1
  -8  -4 -10 97.8088 13.3486   2
  -8  -4 -10 56.8004 7.70675   1
  -9  -4 -10 -0.7559 4.48372   1
  -9  -4 -10 6.35061 7.64686   2
  -9  -4 -10 4.36268 4.61761   1
   9  -4  10 -3.6224 4.12172   1
 -10  -4 -10 11.3452 5.46719   1
 -10  -4 -10 -1.1794 4.71351   1
 -10  -4 -10 19.8855 8.93707   2
  10  -4  10 7.27966 5.15818   1
 -11  -4 -10 65.2632 13.1294   2
 -11  -4 -10 31.4465 7.51158   1
  11  -4  10 44.1455 7.88119   1
  12  -4  10 75.9128 9.67725   1
 -12  -4 -10 64.4088 9.61014   1
 -12  -4 -10 78.2170 13.8618   2
 -13  -4 -10 -2.2738 5.67097   1
  13  -4  10 8.66696 6.11658   1
 -13  -4 -10 11.0094 8.70231   2
 -14  -4 -10 18.7653 9.73857   2
  15  -5 -10 20.4893 6.41612   1
 -15  -5  10 20.3909 7.34566   1
 -15  -5  10 24.3389 9.94084   2
 -14  -5  10 2.63604 5.67880   1
  14  -5 -10 5.50086 4.78865   1
 -14  -5  10 15.1382 8.80415   2
 -13  -5  10 6.82535 7.78965   2
 -13  -5  10 -0.8248 4.70489   1
  13  -5 -10 -1.9470 4.21367   1
 -12  -5  10 15.1404 8.28446   2
 -12  -5  10 7.91532 5.30803   1
  12  -5 -10 24.8648 5.64359   1
 -11  -5  10 4.89267 7.25909   2
  11  -5 -10 12.4046 4.68110   1
 -11  -5  10 9.07294 5.24864   1
 -10  -5  10 -0.2619 6.33792   2
 -10  -5  10 -2.6689 3.99040   1
  10  -5 -10 0.29813 3.70753   1
   9  -5 -10 2.67030 3.55065   1
  -9  -5  10 3.10670 4.20168   1
  -9  -5  10 10.9135 7.60377   2
   8  -5 -10 55.5188 6.29793   1
  -8  -5  10 61.8635 11.7653   2
  -8  -5  10 50.7140 6.76267   1
  -7  -5  10 -2.7490 3.53552   1
   7  -5 -10 -1.8358 2.80005   1
  -7  -5  10 -7.1656 5.94437   2
  -6  -5  10 18.4996 4.88856   1
   6  -5 -10 12.8920 3.91508   1
  -6  -5  10 9.91545 7.15510   2
   5  -5 -10 22.2159 4.33238   1
  -5  -5  10 17.5263 7.65806   2
  -5  -5  10 11.2120 4.32914   1
  -2  -5  10 27.1264 8.90307   2
  -1  -5  10 106.030 8.20678   1
   1  -5 -10 90.9026 7.37272   1
  -1  -5  10 77.0922 11.5674   2
   0  -5 -10 36.4566 5.27471   1
   0  -5  10 18.4255 4.66420   1
   0  -5  10 19.4305 8.14319   2
   1  -5  10 20.3668 8.58409   2
   1  -5  10 27.7258 5.08855   1
  -1  -5 -10 21.8194 4.93208   1
   2  -5  10 87.7833 7.78482   1
   2  -5  10 93.8558 13.7043   2
  -2  -5 -10 108.661 8.63832   1
  -3  -5 -10 33.7659 5.69637   1
   3  -5  10 27.5881 9.36020   2
   3  -5  10 35.1576 5.58929   1
  -4  -5 -10 47.6783 6.92873   1
   4  -5  10 45.9717 6.52343   1
   4  -5  10 43.9795 9.56925   2
   5  -5  10 5.31279 4.22178   1
  -5  -5 -10 0.50701 4.09345   1
  -6  -5 -10 71.2337 11.1233   2
  -6  -5 -10 33.0413 6.52367   1
   6  -5  10 43.6175 6.52530   1
  -7  -5 -10 2.50408 4.72328   1
   7  -5  10 -0.2075 4.17461   1
  -7  -5 -10 18.1013 6.74465   2
  -8  -5 -10 2.98647 4.67643   1
  -8  -5 -10 4.81901 6.42190   2
  -8  -5 -10 -0.5907 4.28374   1
   8  -5  10 -0.4316 4.20474   1
  -9  -5 -10 20.7791 6.21427   1
  -9  -5 -10 15.3917 6.11160   1
   9  -5  10 20.9971 6.01772   1
  -9  -5 -10 32.1727 9.01288   2
  10  -5  10 9.21554 5.40309   1
 -10  -5 -10 -9.6142 4.28209   1
 -10  -5 -10 7.30753 7.28016   2
  11  -5  10 -2.0538 5.18086   1
 -11  -5 -10 10.6935 6.60683   1
 -11  -5 -10 9.09738 6.88712   2
 -11  -6  10 0.24858 4.96905   1
  11  -6 -10 -0.7191 3.86039   1
 -11  -6  10 13.5630 9.55272   2
 -10  -6  10 21.8392 9.77987   2
  10  -6 -10 14.7614 4.96311   1
 -10  -6  10 7.87238 5.57194   1
   9  -6 -10 1.35865 3.58583   1
  -9  -6  10 14.5992 8.88771   2
  -9  -6  10 0.24852 4.35009   1
  -8  -6  10 6.48479 7.71942   2
   8  -6 -10 -2.2066 3.20759   1
  -8  -6  10 4.57267 4.50625   1
  -7  -6  10 2.60635 7.60723   2
   7  -6 -10 0.61851 3.30780   1
  -7  -6  10 1.90410 4.10712   1
  -6  -6  10 2.97511 4.23424   1
  -6  -6  10 -3.9619 7.22335   2
   6  -6 -10 4.16731 3.64134   1
  -5  -6  10 95.8171 14.4960   2
  -5  -6  10 79.9019 8.08241   1
   5  -6 -10 91.9276 7.19996   1
  -4  -6  10 -1.0449 3.56632   1
  -4  -6  10 -1.5827 6.88663   2
   4  -6 -10 -1.4893 2.82222   1
  -3  -6  10 74.0495 13.3607   2
  -3  -6  10 51.9347 6.49183   1
   3  -6 -10 55.8961 6.08868   1
  -2  -6  10 51.1692 6.83402   1
   2  -6 -10 52.7824 6.09585   1
  -2  -6  10 61.9329 12.5023   2
  -1  -6  10 -2.5795 6.89450   2
   1  -6 -10 -0.3867 3.21524   1
  -1  -6  10 -2.8653 3.52453   1
   0  -6  10 108.782 8.96489   1
   0  -6 -10 106.015 8.30283   1
   0  -6  10 78.1122 12.9172   2
   1  -6  10 75.7701 7.75231   1
   1  -6  10 71.8455 13.1556   2
  -1  -6 -10 102.583 8.25175   1
   3  -6  10 -2.6392 7.42953   2
  -3  -6 -10 7.69398 4.43780   1
   3  -6  10 0.64499 3.85923   1
  -5  -6 -10 1.67830 4.24572   1
   5  -6  10 2.09847 4.25810   1
  -6  -6 -10 3.59878 4.58035   1
   6  -6  10 -6.3771 3.96659   1
 -21   0  11 8.91267 6.46249   2
  21   0 -11 -4.8073 5.85566   1
  20   0 -11 -2.0579 5.49096   1
 -20   0  11 6.87759 5.79597   2
 -19   0  11 2.50555 5.22485   2
  19   0 -11 -8.8551 4.60947   1
 -18   0  11 -4.8632 4.06720   1
  18   0 -11 0.46500 5.10210   1
 -18   0  11 11.6815 5.68922   2
 -17   0  11 3.51258 4.76292   2
 -17   0  11 -4.9063 4.22780   1
  17   0 -11 -3.9996 4.58163   1
  16   0 -11 4.92388 5.25499   1
 -16   0  11 4.89834 4.91108   2
 -16   0  11 -4.8686 3.89457   1
 -15   0  11 6.39190 5.87777   3
 -15   0  11 -4.4570 3.81728   2
 -15   0  11 1.44130 4.37221   1
  15   0 -11 -3.9010 4.42671   1
 -14   0  11 -0.6682 2.69405   3
 -14   0  11 1.09359 4.29557   2
  14   0 -11 -4.4492 3.95404   1
 -14   0  11 2.99125 4.09429   1
 -13   0  11 -2.6101 3.90862   2
 -13   0  11 1.93550 2.63263   3
  13   0 -11 -1.0065 3.81808   1
 -13   0  11 -0.8339 3.49478   1
  12   0 -11 2.98574 3.78385   1
 -12   0  11 -2.2858 3.18031   1
 -12   0  11 -0.4438 3.53594   2
 -12   0  11 3.79314 2.61147   3
 -11   0  11 -2.4841 2.80242   2
 -11   0  11 1.72314 3.01730   1
 -11   0  11 -3.6248 1.58425   3
  11   0 -11 2.31532 3.39073   1
 -10   0  11 -0.0101 2.91284   2
 -10   0  11 -3.9914 2.45678   1
 -10   0  11 -3.0074 1.73478   3
  10   0 -11 -4.7649 2.96319   1
  -9   0  11 -0.4825 2.44551   2
  -9   0  11 0.00654 1.80248   3
   9   0 -11 1.46217 2.87898   1
  -9   0  11 1.55927 2.90746   1
   8   0 -11 -0.4135 2.67400   1
  -8   0  11 -0.5414 2.62570   1
  -8   0  11 -1.2505 2.26751   2
  -8   0  11 1.67955 1.81353   3
  -7   0  11 -0.1695 1.61230   3
  -7   0  11 -2.8134 2.35003   1
   7   0 -11 -0.9320 2.73488   1
  -7   0  11 0.43155 1.99163   2
  -6   0  11 -1.6842 1.77415   2
  -6   0  11 -1.9936 2.60782   1
   6   0 -11 0.47252 2.64875   1
  -5   0  11 0.24993 2.58851   1
  -5   0  11 -0.2531 1.75315   2
   5   0 -11 -5.8240 2.23421   1
   4   0 -11 -4.6290 2.22668   1
  -4   0  11 3.70494 2.43787   1
  -4   0  11 7.03935 2.14981   2
  -3   0  11 -2.6200 2.27418   1
  -3   0  11 0.47470 1.82962   2
   3   0 -11 -2.7334 2.47788   1
   2   0 -11 4.59272 2.88217   1
  -2   0  11 1.39669 2.50262   1
  -1   0  11 3.57986 2.85532   1
   1   0 -11 -0.0567 2.63572   1
   0   0  11 -1.0797 2.39589   1
   0   0  11 -1.7565 1.51378   3
   0   0 -11 4.56919 2.83606   1
   1   0  11 1.36446 1.88135   3
   1   0  11 5.50920 2.70397   1
  -1   0 -11 -0.1344 2.57483   1
  -1   0 -11 -2.6057 1.66365   3
  -2   0 -11 1.08439 1.72391   3
   2   0  11 -1.3031 1.71058   3
  -2   0 -11 -0.0863 2.70863   1
   2   0  11 4.32915 2.89715   1
  -3   0 -11 0.68596 2.76448   1
   3   0  11 0.09536 1.82396   3
  -3   0 -11 1.90855 1.81756   3
   3   0  11 -1.6223 2.41146   1
   4   0  11 -0.7985 2.96642   1
   4   0  11 -0.4227 1.80230   3
  -4   0 -11 2.83440 2.83636   1
  -4   0 -11 -1.9135 1.86248   3
   5   0  11 -2.0265 3.15169   1
  -5   0 -11 -1.8124 1.92500   3
  -5   0 -11 2.19170 3.02718   1
   5   0  11 1.71825 1.97741   3
  -6   0 -11 -1.3157 3.10780   1
   6   0  11 3.16142 3.31595   1
  -6   0 -11 0.15835 2.20348   3
   6   0  11 -0.7812 1.82698   3
  -7   0 -11 0.57239 2.44430   3
   7   0  11 0.42089 2.31821   3
   7   0  11 -6.1827 2.93381   1
  -7   0 -11 -4.1647 3.21128   1
   8   0  11 -2.8900 3.76936   3
  -8   0 -11 0.58704 4.08506   1
   8   0  11 -6.8404 3.57044   1
  -8   0 -11 -9.2392 3.70640   1
  -8   0 -11 -0.5289 2.59803   3
  -9   0 -11 2.34292 2.48039   3
   9   0  11 -3.6874 4.07006   1
  -9   0 -11 -1.1077 3.95390   1
  -9   0 -11 -7.2539 3.84299   1
  10   0  11 -5.3239 4.07965   1
 -10   0 -11 -3.9097 2.66448   3
 -10   0 -11 -7.0462 4.14234   1
 -11   0 -11 0.78274 3.26851   3
  11   0  11 -0.2755 4.87594   1
 -11   0 -11 -1.6024 4.14830   1
 -12   0 -11 -1.2550 3.53762   3
 -12   0 -11 -1.8292 4.62826   1
  12   0  11 -3.7348 4.80475   1
 -13   0 -11 2.65541 5.05117   1
  13   0  11 -0.8875 5.11732   1
 -14   0 -11 5.10614 5.22857   1
  14   0  11 -4.3594 5.12852   1
 -15   0 -11 -4.7048 4.82541   1
  15   0  11 2.35073 5.75069   1
  16   0  11 7.03030 6.76068   1
  17   0  11 -4.3350 5.99435   1
  21  -1 -11 3.93088 7.24789   1
 -21  -1  11 -0.9641 5.73271   1
 -21  -1  11 6.28511 6.51765   2
  21   1 -11 3.13592 6.65286   1
 -20  -1  11 -1.6802 5.80242   1
  20  -1 -11 -5.0816 5.80223   1
 -20  -1  11 2.87586 6.19892   2
  20   1 -11 1.98392 5.76610   1
 -20   1  11 20.9829 6.82658   2
 -19  -1  11 2.20909 5.68463   1
 -19  -1  11 10.1604 6.63012   2
 -19  -1  11 5.24928 4.05444   3
  19  -1 -11 10.1637 6.83103   1
  19   1 -11 13.1068 6.50356   1
 -19   1  11 17.3191 6.95704   2
 -18  -1  11 0.62181 5.06304   1
 -18  -1  11 -2.2677 2.71205   3
 -18  -1  11 9.52136 6.07967   2
  18  -1 -11 1.26591 5.56634   1
  18   1 -11 -3.7923 4.81608   1
 -18   1  11 1.58539 6.36489   2
 -17  -1  11 252.031 14.5663   1
 -17  -1  11 230.208 16.2529   2
  17  -1 -11 226.376 14.5490   1
 -17  -1  11 218.823 11.0338   3
 -17   1  11 239.189 16.0737   2
  17   1 -11 212.629 13.9443   1
 -16  -1  11 18.0871 5.79916   1
 -16  -1  11 26.4455 7.19964   2
  16  -1 -11 32.9405 7.13843   1
 -16  -1  11 17.3360 4.01495   3
 -16   1  11 17.4100 6.97195   2
  16   1 -11 25.0421 6.64596   1
  15  -1 -11 367.831 16.9694   1
 -15  -1  11 364.488 16.4103   1
 -15  -1  11 364.400 13.4111   3
 -15  -1  11 384.110 18.8672   2
 -15   1  11 386.934 17.8901   1
 -15   1  11 381.372 17.5394   2
  15   1 -11 358.827 16.2893   1
 -14  -1  11 344.372 12.5956   3
 -14  -1  11 342.925 15.3759   1
  14  -1 -11 356.190 15.9373   1
 -14  -1  11 348.863 17.5630   2
 -14   1  11 317.335 13.8753   1
 -14   1  11 337.808 15.6318   2
  14   1 -11 338.763 15.3667   1
 -13  -1  11 24.7620 6.57012   2
  13  -1 -11 24.6653 5.77387   1
 -13  -1  11 33.2838 6.04983   1
 -13  -1  11 31.6661 4.70500   3
 -13   1  11 27.2326 5.73887   2
  13   1 -11 32.0096 5.93249   1
 -13   1  11 41.9430 6.07461   1
 -12  -1  11 36.3060 4.76213   3
 -12  -1  11 46.0336 7.53863   2
  12  -1 -11 46.3725 6.70139   1
 -12  -1  11 39.4891 6.06035   1
 -12   1  11 31.2800 5.24780   1
  12   1 -11 50.3826 6.74371   1
 -12   1  11 56.3010 6.55103   2
 -11  -1  11 85.5561 8.90780   2
  11  -1 -11 68.8373 7.21254   1
 -11  -1  11 84.3844 7.83621   1
 -11  -1  11 79.6833 6.12153   3
 -11   1  11 83.6146 6.34505   3
 -11   1  11 90.2569 7.05807   1
  11   1 -11 68.8549 7.30698   1
 -11   1  11 88.7634 6.73311   2
 -10  -1  11 107.191 8.99966   2
 -10  -1  11 108.486 8.17226   1
 -10  -1  11 103.684 6.45693   3
  10  -1 -11 113.232 8.33632   1
 -10   1  11 104.092 7.20856   1
 -10   1  11 97.1302 6.48328   2
  10   1 -11 85.4875 7.79202   1
  -9  -1  11 777.727 21.7889   2
  -9  -1  11 776.027 17.5787   3
  -9  -1  11 767.559 20.2654   1
   9  -1 -11 756.317 20.2467   1
  -9   1  11 778.607 17.3864   2
   9   1 -11 766.165 20.3296   1
  -9   1  11 764.935 18.9634   1
   8  -1 -11 281.337 11.4612   1
  -8  -1  11 263.399 11.1086   1
  -8  -1  11 283.028 9.33657   3
  -8  -1  11 275.589 12.1016   2
   8   1 -11 287.711 11.4293   1
  -8   1  11 269.226 10.3849   1
  -8   1  11 276.795 8.51185   2
  -7  -1  11 676.268 15.5130   3
   7  -1 -11 691.132 18.3124   1
  -7  -1  11 678.852 18.8214   2
  -7  -1  11 683.754 15.8096   3
  -7  -1  11 670.539 17.9619   1
  -7   1  11 684.956 13.3412   2
  -7   1  11 679.711 16.9140   1
   7   1 -11 665.153 18.0306   1
   6  -1 -11 107.910 7.25189   1
  -6  -1  11 111.446 7.40580   1
  -6  -1  11 96.0340 5.42860   3
  -6  -1  11 113.273 5.94469   3
  -6  -1  11 106.002 7.46450   2
   6   1 -11 103.380 7.14700   1
  -6   1  11 104.049 6.72693   1
  -5  -1  11 488.228 14.5743   1
  -5  -1  11 519.995 12.7519   3
  -5  -1  11 497.360 12.3793   3
  -5  -1  11 504.274 15.1724   2
   5  -1 -11 494.135 14.6540   1
  -5   1  11 489.880 13.7910   1
   5   1 -11 490.745 14.4840   1
  -4  -1  11 1420.82 25.8015   3
  -4  -1  11 1405.42 25.5815   3
  -4  -1  11 1450.60 29.3070   2
  -4  -1  11 1411.89 28.5702   1
   4  -1 -11 1462.05 28.8746   1
  -4   1  11 1444.22 27.5735   1
   4   1 -11 1434.31 28.4398   1
  -3  -1  11 400.589 10.6249   3
   3  -1 -11 403.833 12.7806   1
  -3  -1  11 401.213 10.5382   3
  -3  -1  11 400.670 13.0887   2
  -3  -1  11 400.575 12.7904   1
  -3   1  11 386.442 11.9580   1
   3   1 -11 397.564 12.6230   1
  -2  -1  11 65.2275 5.95962   1
  -2  -1  11 60.8748 6.10677   2
   2  -1 -11 59.8461 5.70700   1
  -2   1  11 53.2939 5.03274   1
   2   1 -11 59.0083 5.61195   1
  -1  -1  11 1096.44 24.8132   2
  -1  -1  11 1080.82 20.9553   3
  -1  -1  11 1136.40 24.1040   1
   1  -1 -11 1096.38 23.9522   1
   1   1 -11 1156.64 21.9359   3
  -1   1  11 1088.53 22.9390   1
   1   1 -11 1107.10 23.5035   1
   0  -1  11 89.6024 6.64526   1
   0  -1  11 98.0759 5.18947   3
   0  -1 -11 89.5806 6.64479   1
   0   1 -11 75.1999 5.90576   1
   0   1 -11 90.5651 5.44345   3
   0   1  11 88.2943 6.30953   1
   1  -1  11 509.972 12.5259   3
   1  -1  11 493.132 14.9195   1
  -1  -1 -11 532.552 15.3018   1
  -1   1 -11 530.632 14.7523   1
  -1   1 -11 523.060 13.3433   3
   1   1  11 527.619 14.7093   1
  -2  -1 -11 360.741 12.6254   1
   2  -1  11 330.849 12.1985   1
   2  -1  11 341.315 9.91256   3
  -2   1 -11 359.126 12.0886   1
  -2   1 -11 342.885 10.6218   3
   2   1  11 348.210 12.0385   1
   3  -1  11 1144.70 25.4037   1
  -3  -1 -11 1102.46 21.6608   3
   3  -1  11 1113.43 21.6587   3
  -3  -1 -11 1138.48 25.5602   1
   3   1  11 1111.87 24.6043   1
  -3   1 -11 1142.16 24.6851   1
  -3   1 -11 1116.31 22.6998   3
  -4  -1 -11 50.1915 5.89979   1
   4  -1  11 69.0969 4.82751   3
  -4  -1 -11 56.0713 4.84920   3
   4  -1  11 64.4327 6.58146   1
   4   1  11 69.7163 6.80106   1
  -4   1 -11 54.1523 5.00974   3
  -4   1 -11 49.5662 5.64473   1
  -5  -1 -11 697.365 16.4670   3
   5  -1  11 716.101 19.8394   1
   5  -1  11 687.134 15.9657   3
  -5  -1 -11 750.400 20.2452   1
   5   1  11 706.178 19.2478   1
  -5   1 -11 699.549 18.8131   1
  -5   1 -11 695.718 17.3277   3
   6  -1  11 882.903 23.0937   1
   6  -1  11 909.706 19.2816   3
  -6  -1 -11 878.466 23.3561   1
  -6  -1 -11 870.852 19.6429   3
  -6   1 -11 875.409 22.1605   1
  -6   1 -11 878.718 20.5529   3
   6   1  11 920.456 23.1233   1
  -6   1 -11 942.515 22.7233   1
  -7  -1 -11 156.592 8.05325   3
  -7  -1 -11 132.970 9.44460   1
   7  -1  11 154.121 10.4572   1
   7  -1  11 148.561 7.48010   3
   7   1  11 156.590 10.0541   1
  -7   1 -11 146.809 8.32495   3
  -7   1 -11 175.559 10.3435   1
  -7   1 -11 160.097 10.0100   1
   8  -1  11 245.865 12.9303   1
  -8  -1 -11 260.188 10.3994   3
   8  -1  11 256.061 9.76561   3
  -8  -1 -11 256.234 13.1719   1
  -8   1 -11 269.177 12.7625   1
   8   1  11 261.176 12.9870   1
  -8   1 -11 260.104 11.7224   3
   9  -1  11 -7.6742 4.14149   1
  -9  -1 -11 -1.0316 4.47152   1
  -9  -1 -11 2.43551 4.25627   1
  -9  -1 -11 -3.1638 2.81038   3
   9  -1  11 -1.6766 2.57869   3
   9   1  11 -2.8990 4.50114   1
  -9   1 -11 5.02876 4.43510   1
  10  -1  11 -3.2082 2.31604   3
 -10  -1 -11 0.61828 2.82345   3
 -10  -1 -11 3.13012 4.77876   1
  10  -1  11 -2.5533 4.25300   1
 -10  -1 -11 -5.3825 4.07345   1
  10   1  11 -3.4842 4.24108   1
 -10   1 -11 -0.2750 4.01413   1
 -11  -1 -11 132.206 11.9681   1
  11  -1  11 116.049 7.72226   3
 -11  -1 -11 122.803 8.50875   3
  11  -1  11 121.015 11.4307   1
 -11   1 -11 120.389 10.4557   1
  11   1  11 133.957 11.3785   1
  12  -1  11 31.2303 4.94289   3
  12  -1  11 42.0001 8.34222   1
 -12  -1 -11 35.2281 7.49536   1
 -12  -1 -11 49.1831 6.24452   3
  12   1  11 38.9850 7.56091   1
  13  -1  11 89.7761 11.0308   1
 -13  -1 -11 104.720 11.1708   1
 -13  -1 -11 105.099 8.97245   3
  13  -1  11 96.1913 10.8321   3
  13   1  11 85.1727 10.2650   1
 -14  -1 -11 123.193 9.34145   3
 -14  -1 -11 142.662 13.2276   1
  14  -1  11 146.912 13.7393   1
  14   1  11 131.848 12.4797   1
 -15  -1 -11 1.81148 3.38729   3
 -15  -1 -11 1.17863 5.23995   1
  15  -1  11 -1.6891 5.33976   1
  15   1  11 0.52925 5.32648   1
  16  -1  11 3.22132 6.79270   1
 -16  -1 -11 3.65095 5.68664   1
 -16  -1 -11 -1.3932 3.38503   3
 -17  -1 -11 2.48132 4.21556   3
 -17  -1 -11 4.36245 6.66115   1
  17  -1  11 6.95344 7.67794   1
 -20  -2  11 21.1876 5.21418   3
 -20  -2  11 11.4434 6.89395   1
  20  -2 -11 26.2262 8.45138   1
 -20  -2  11 22.4341 8.67597   2
 -19  -2  11 5.95237 3.63845   3
 -19  -2  11 6.32627 7.37590   2
  19  -2 -11 27.6515 8.07912   1
 -19  -2  11 21.5190 7.61236   1
 -18  -2  11 9.34659 6.80313   2
 -18  -2  11 4.41010 3.19275   3
  18  -2 -11 -0.3891 5.34566   1
 -18  -2  11 3.14526 6.19716   1
  17  -2 -11 17.2050 6.77028   1
 -17  -2  11 20.5101 4.55432   3
 -17  -2  11 21.2825 7.70410   2
 -17  -2  11 8.60478 6.05792   1
  16  -2 -11 70.6321 9.75405   1
 -16  -2  11 43.7388 9.22825   2
 -16  -2  11 49.7121 8.49074   1
 -16  -2  11 54.9838 6.14338   3
  16   2 -11 68.5970 9.08468   1
 -15  -2  11 242.570 16.5646   2
 -15  -2  11 242.705 10.4198   3
  15  -2 -11 230.855 14.1734   1
 -15  -2  11 247.808 14.3067   1
  15   2 -11 222.377 12.9445   1
 -14  -2  11 19.9137 6.12115   1
 -14  -2  11 13.6072 3.46153   3
  14  -2 -11 23.9648 6.16907   1
 -14  -2  11 20.0792 7.02535   2
  14   2 -11 16.6389 5.42111   1
  13  -2 -11 14.2744 5.34909   1
 -13  -2  11 4.19951 2.61226   3
 -13  -2  11 6.08707 4.86626   1
 -13  -2  11 5.88516 5.71525   2
  13   2 -11 3.16642 4.11024   1
 -12  -2  11 879.601 24.4151   1
 -12  -2  11 861.722 28.0822   2
 -12  -2  11 886.489 19.6166   3
  12  -2 -11 896.746 24.1658   1
  12   2 -11 830.268 23.1158   1
  11  -2 -11 85.9123 8.32975   1
 -11  -2  11 126.288 6.73624   3
 -11  -2  11 117.115 9.37337   1
 -11  -2  11 126.635 6.83893   3
 -11  -2  11 109.517 11.4158   2
  11   2 -11 111.989 8.61103   1
 -10  -2  11 19.7956 6.23972   2
 -10  -2  11 14.1535 2.94598   3
 -10  -2  11 12.7935 4.54795   1
 -10  -2  11 6.20621 2.64929   3
  10  -2 -11 16.3533 4.56228   1
 -10   2  11 15.3909 4.62824   1
  10   2 -11 12.9270 4.27910   1
  -9  -2  11 64.8898 4.96299   3
   9  -2 -11 56.5985 6.54043   1
  -9  -2  11 63.9138 8.60320   2
  -9  -2  11 56.2628 4.71585   3
  -9  -2  11 55.0262 6.74617   1
  -9   2  11 63.6957 5.65452   1
   9   2 -11 58.2495 6.33545   1
  -8  -2  11 412.548 14.2896   1
   8  -2 -11 410.546 13.9337   1
  -8  -2  11 406.403 10.9244   3
  -8  -2  11 405.495 10.7891   3
  -8  -2  11 389.149 16.4539   2
  -8   2  11 401.692 11.9751   1
   8   2 -11 396.911 13.4816   1
  -8   2  11 379.475 9.94002   2
   7  -2 -11 0.83489 2.68147   1
  -7  -2  11 2.45477 1.75689   3
  -7  -2  11 -1.1718 3.64509   2
  -7  -2  11 -0.3887 3.04628   1
  -7  -2  11 4.95607 1.91620   3
   7   2 -11 4.65841 2.97076   1
  -7   2  11 2.10982 2.31160   1
  -6  -2  11 8.09636 2.10733   3
  -6  -2  11 9.33541 2.10354   3
  -6  -2  11 6.75061 3.20845   1
  -6  -2  11 10.9375 4.35018   2
   6  -2 -11 6.44847 3.12546   1
   6   2 -11 8.34029 3.05763   1
  -6   2  11 5.39188 2.50695   1
  -5  -2  11 0.34757 1.47785   3
   5  -2 -11 -2.5587 2.31714   1
  -5  -2  11 2.54171 1.62637   3
  -5  -2  11 1.52781 2.79817   1
  -5  -2  11 -0.1129 3.27919   2
  -5   2  11 3.21371 2.31134   1
   5   2 -11 -2.8587 2.00047   1
   4  -2 -11 74.5839 6.35105   1
  -4  -2  11 78.8906 4.22681   3
  -4  -2  11 83.7242 4.27135   3
  -4  -2  11 74.4593 6.39622   1
  -4  -2  11 90.3773 8.06143   2
  -4   2  11 76.4827 5.27697   1
   4   2 -11 90.6426 6.22960   1
  -3  -2  11 435.254 9.99337   3
   3  -2 -11 434.984 13.4355   1
  -3  -2  11 449.871 9.99532   3
  -3  -2  11 424.881 15.9729   2
  -3  -2  11 423.967 13.5763   1
   3   2 -11 461.068 13.0323   1
  -3   2  11 439.554 11.8953   1
  -2  -2  11 198.375 5.95917   3
   2  -2 -11 188.798 8.80829   1
  -2  -2  11 196.904 6.10699   3
  -2  -2  11 187.934 10.8965   2
  -2  -2  11 189.576 9.19364   1
   2   2 -11 183.322 8.10838   1
  -2   2  11 192.206 7.79360   1
  -1  -2  11 29.4842 2.68760   3
  -1  -2  11 28.6281 5.72099   2
   1  -2 -11 39.8754 2.59881   2
  -1  -2  11 36.8557 3.00774   3
  -1  -2  11 29.0718 4.52775   1
   1  -2 -11 31.8910 4.53188   1
  -1   2  11 36.8552 4.27207   1
   1   2 -11 35.9601 4.39105   1
   0  -2  11 46.2081 3.14230   3
   0  -2 -11 52.4672 3.74685   2
   0  -2  11 41.5491 5.10103   1
   0  -2 -11 41.9216 5.07246   1
   0  -2  11 46.5256 6.92659   2
   0  -2  11 49.5085 3.31894   3
   0   2 -11 46.2735 4.93522   1
   0   2  11 47.7351 4.87311   1
  -1  -2 -11 100.094 7.46330   1
   1  -2  11 106.372 9.16622   2
  -1  -2 -11 113.531 5.78931   2
   1  -2  11 97.5941 4.28263   3
   1  -2  11 99.5495 4.23391   3
   1  -2  11 119.296 7.61961   1
   1   2  11 108.187 6.65360   1
  -1   2 -11 105.711 6.43869   1
  -2  -2 -11 31.9909 4.92401   1
  -2  -2 -11 32.9897 4.17975   2
   2  -2  11 30.8870 2.70811   3
   2  -2  11 32.0563 2.81790   3
   2  -2  11 31.8051 5.09894   1
  -2   2 -11 26.9638 4.07675   1
   2   2  11 24.8506 4.12838   1
   3  -2  11 257.530 7.03640   3
  -3  -2 -11 263.993 11.1841   2
  -3  -2 -11 269.996 11.5035   1
   3  -2  11 271.333 11.4532   1
   3   2  11 264.256 10.2607   1
  -3   2 -11 245.520 9.84072   1
  -4  -2 -11 314.135 14.0736   2
   4  -2  11 340.700 8.34748   3
  -4  -2 -11 339.131 13.2464   1
   4  -2  11 323.276 12.9171   1
  -4   2 -11 327.500 11.5303   1
   4   2  11 322.211 11.9034   1
  -4   2 -11 318.500 11.4468   1
  -5  -2 -11 142.940 9.46112   1
  -5  -2 -11 131.032 11.9919   2
   5  -2  11 152.094 9.42206   1
   5  -2  11 141.716 5.43540   3
  -5   2 -11 134.221 8.03960   1
   5   2  11 149.054 8.51024   1
  -5   2 -11 133.494 7.97407   1
   6  -2  11 113.027 9.19327   1
   6  -2  11 111.488 5.09122   3
  -6  -2 -11 126.294 9.53843   1
  -6   2 -11 116.322 7.99781   1
   6   2  11 110.413 8.06437   1
   7  -2  11 843.036 16.5133   3
   7  -2  11 899.554 24.0073   1
  -7  -2 -11 850.771 24.0533   1
   7   2  11 864.344 22.5801   1
  -7   2 -11 859.440 23.7128   1
   8  -2  11 4.23374 2.38365   3
  -8  -2 -11 5.13620 2.93849   3
   8  -2  11 -0.8826 4.99398   1
  -8  -2 -11 16.7458 5.55083   1
   8   2  11 7.75023 4.58202   1
  -9  -2 -11 6.24210 4.94897   1
   9  -2  11 0.84136 2.04258   3
  -9  -2 -11 -3.4944 2.31161   3
   9  -2  11 -0.9645 4.40429   1
  -9  -2 -11 -0.6240 4.32232   1
   9   2  11 -0.9938 4.16951   1
 -10  -2 -11 3.30029 4.56124   1
  10  -2  11 7.64275 2.40522   3
  10  -2  11 8.19056 5.18355   1
 -10  -2 -11 6.75315 5.21811   1
 -10  -2 -11 2.25850 2.78028   3
  10   2  11 5.80800 6.09071   1
 -11  -2 -11 318.904 11.4892   3
  11  -2  11 298.899 16.0212   1
  11  -2  11 314.698 9.22165   3
 -11  -2 -11 341.399 16.8632   1
  12  -2  11 83.7805 5.13502   3
 -12  -2 -11 89.6931 10.4931   1
 -12  -2 -11 77.5610 6.90917   3
  12  -2  11 64.7911 9.08670   1
 -13  -2 -11 4.48414 3.24691   3
 -13  -2 -11 14.0320 6.12413   1
  13  -2  11 7.57289 2.44897   3
  13  -2  11 -0.1867 5.34034   1
  14  -2  11 30.4755 7.98994   1
 -14  -2 -11 38.8366 5.32150   3
  14  -2  11 39.2162 3.86330   3
 -14  -2 -11 30.1967 7.43401   1
  15  -2  11 41.9340 9.01289   1
  15  -2  11 42.6158 4.06840   3
 -15  -2 -11 64.7161 10.1119   1
 -15  -2 -11 51.1566 6.39174   3
 -16  -2 -11 8.45952 3.92791   3
  16  -2  11 3.29823 6.84584   1
 -16  -2 -11 4.31414 6.61096   1
 -16  -2 -11 -36.873 13.3692   2
  16  -2  11 1.47871 2.19781   3
 -19  -3  11 -1.4313 2.82228   3
  19  -3 -11 1.37637 6.36977   1
 -19  -3  11 0.93354 6.26644   1
 -19  -3  11 0.04449 7.15392   2
 -19  -3  11 0.82611 2.79033   3
  18  -3 -11 -0.9310 5.81060   1
 -18  -3  11 -1.6102 2.47205   3
 -18  -3  11 -1.3717 2.82708   3
 -18  -3  11 -4.5833 5.09079   1
 -18  -3  11 4.09097 6.67819   2
  17  -3 -11 8.57755 6.20013   1
 -17  -3  11 1.51972 2.38822   3
 -17  -3  11 -4.3428 2.29471   3
 -17  -3  11 6.80093 7.17119   2
 -17  -3  11 -1.1564 5.18014   1
 -16  -3  11 71.1449 5.79428   3
  16  -3 -11 53.9411 8.43660   1
 -16  -3  11 78.3890 10.3116   1
 -16  -3  11 80.4453 12.1768   2
 -16  -3  11 82.1496 5.81382   3
 -15  -3  11 -0.1685 2.26302   3
 -15  -3  11 6.34683 5.56003   1
 -15  -3  11 2.85464 2.32026   3
  15  -3 -11 3.51548 4.93863   1
 -15  -3  11 1.61905 6.54881   2
 -14  -3  11 10.7832 5.56750   1
 -14  -3  11 15.7343 7.15057   2
  14  -3 -11 12.4741 5.43122   1
 -14  -3  11 14.4070 3.00507   3
 -14  -3  11 17.2206 3.02845   3
 -13  -3  11 17.9769 2.85903   3
 -13  -3  11 14.4615 7.44835   2
 -13  -3  11 13.4273 2.76950   3
  13  -3 -11 9.52418 5.23961   1
 -13  -3  11 13.0046 5.58777   1
  12  -3 -11 -0.3342 3.86907   1
 -12  -3  11 -3.1704 3.90383   1
 -12  -3  11 0.98110 1.84550   3
 -12  -3  11 1.91780 1.80604   3
 -12  -3  11 2.42775 5.73912   2
 -11  -3  11 242.645 16.2961   2
  11  -3 -11 242.746 12.3730   1
 -11  -3  11 257.728 7.29437   3
 -11  -3  11 244.996 7.06398   3
 -11  -3  11 255.913 13.0767   1
 -10  -3  11 8.73888 1.77917   3
  10  -3 -11 2.87439 3.95542   1
 -10  -3  11 6.20079 4.44999   1
 -10  -3  11 10.6210 5.76351   2
  -9  -3  11 29.4208 7.10489   2
  -9  -3  11 27.4860 5.61331   1
   9  -3 -11 29.7596 5.41084   1
  -8  -3  11 80.0307 7.71061   1
  -8  -3  11 99.9554 11.6232   2
   8  -3 -11 93.6825 8.07557   1
  -7  -3  11 283.633 12.3249   1
   7  -3 -11 278.117 11.6778   1
  -7  -3  11 300.603 16.4664   2
  -6  -3  11 301.025 12.3410   1
  -6  -3  11 291.109 16.1720   2
   6  -3 -11 307.021 11.7823   1
   5  -3 -11 8.25233 3.46169   1
  -5  -3  11 2.37455 4.97709   2
  -5  -3  11 1.18919 3.49037   1
  -4  -3  11 89.3455 7.64599   1
   4  -3 -11 89.5276 7.05834   1
  -4  -3  11 106.837 11.1233   2
   3  -3 -11 -0.5844 2.65518   1
  -3  -3  11 2.69211 4.91117   2
  -3  -3  11 -0.3919 3.09522   1
   2  -3 -11 47.1977 5.51739   1
   2  -3 -11 62.4612 3.72102   2
  -2  -3  11 50.5375 8.59601   2
  -2  -3  11 52.6634 6.06262   1
   1  -3 -11 2.67255 3.27777   1
   1  -3 -11 5.27413 2.14582   2
  -1  -3  11 3.66117 4.87118   2
  -1  -3  11 2.15535 3.45680   1
   0  -3 -11 47.6138 5.76820   1
   0  -3 -11 54.7247 4.99550   2
   0  -3  11 43.2960 7.36889   2
   0  -3  11 52.5607 6.07641   1
  -1  -3 -11 255.467 11.4972   1
  -1  -3 -11 254.161 10.0047   2
   1  -3  11 253.469 14.8826   2
   1  -3  11 267.846 11.7472   1
  -2  -3 -11 406.435 14.7054   1
   2  -3  11 422.337 14.6869   1
   2  -3  11 399.483 19.0802   2
  -2  -3 -11 417.969 13.8328   2
  -3  -3 -11 61.5140 6.75436   2
   3  -3  11 44.9299 6.09137   1
  -3  -3 -11 47.6895 6.34905   1
  -4  -3 -11 6.04541 3.94859   2
   4  -3  11 -1.4280 3.68278   1
  -4  -3 -11 3.41838 3.64920   1
  -5  -3 -11 3.48394 4.11432   1
  -5  -3 -11 1.28330 4.10213   2
   5  -3  11 -6.6585 3.50002   1
  -6  -3 -11 277.098 14.4268   2
  -6  -3 -11 280.108 13.6286   1
   6  -3  11 270.861 12.9717   1
  -7  -3 -11 87.3528 9.20651   1
   7  -3  11 98.3537 9.27590   1
  -7  -3 -11 115.209 11.6542   2
  -8  -3 -11 37.4207 7.99488   2
  -8  -3 -11 36.4822 7.06569   1
   8  -3  11 31.0326 6.54542   1
  -9  -3 -11 15.7795 5.76456   1
  -9  -3 -11 44.3370 8.78598   2
   9  -3  11 22.9902 6.08069   1
  -9  -3 -11 20.4587 5.64509   1
 -10  -3 -11 108.884 13.7289   2
  10  -3  11 73.2955 9.26890   1
 -10  -3 -11 85.3390 9.98529   1
 -10  -3 -11 94.2481 10.4521   1
 -11  -3 -11 21.9662 6.67400   1
 -11  -3 -11 23.8848 7.69720   2
  11  -3  11 18.3734 6.46577   1
 -12  -3 -11 19.9214 7.01810   2
 -12  -3 -11 4.74894 5.88870   1
  12  -3  11 4.18424 5.38591   1
  13  -3  11 1.66379 5.26465   1
 -13  -3 -11 12.4748 7.21322   2
 -13  -3 -11 0.24048 5.10092   1
  14  -3  11 -3.0051 6.07574   1
 -14  -3 -11 13.8112 8.00737   2
 -14  -3 -11 -1.9399 5.72469   1
 -15  -3 -11 1.38941 6.18811   1
 -15  -3 -11 12.9968 8.79742   2
  15  -3  11 1.71476 6.72815   1
 -17  -4  11 25.8058 9.83604   2
  17  -4 -11 10.7497 6.28861   1
 -17  -4  11 4.90774 6.36809   1
 -16  -4  11 2.61589 6.07521   2
 -16  -4  11 1.40722 5.77482   1
  16  -4 -11 -3.2646 4.94106   1
 -15  -4  11 16.0229 8.32468   2
 -15  -4  11 2.11833 5.33108   1
  15  -4 -11 2.85658 5.11417   1
 -14  -4  11 -1.4050 6.06490   2
  14  -4 -11 -1.2873 4.58633   1
 -14  -4  11 4.04005 5.34067   1
 -13  -4  11 39.0485 7.51221   1
  13  -4 -11 43.9764 7.10743   1
 -13  -4  11 35.2513 9.48560   2
  12  -4 -11 65.5984 7.99654   1
 -12  -4  11 54.0194 10.4154   2
 -12  -4  11 52.3665 7.82733   1
 -11  -4  11 180.276 11.6983   1
  11  -4 -11 163.143 10.7295   1
 -11  -4  11 185.388 16.0209   2
  10  -4 -11 -1.2886 3.57480   1
 -10  -4  11 10.2594 6.74813   2
 -10  -4  11 0.66824 4.15002   1
  -9  -4  11 162.173 14.8958   2
  -9  -4  11 157.047 10.4810   1
   9  -4 -11 149.995 9.56576   1
  -8  -4  11 5.66113 5.72013   2
   8  -4 -11 4.26905 3.41008   1
  -8  -4  11 -0.4116 3.49962   1
   7  -4 -11 21.3874 4.49450   1
  -7  -4  11 13.4383 4.58393   1
  -7  -4  11 18.7997 6.92660   2
  -6  -4  11 22.6313 4.97972   1
   6  -4 -11 27.9132 4.73983   1
  -6  -4  11 26.7929 8.04844   2
  -5  -4  11 118.182 8.76345   1
  -5  -4  11 122.455 13.8281   2
   5  -4 -11 122.569 8.03091   1
  -4  -4  11 27.6167 8.13323   2
   4  -4 -11 37.0924 5.10809   1
  -4  -4  11 42.6194 5.88842   1
  -3  -4  11 31.0328 7.74241   2
   3  -4 -11 35.4550 5.04285   1
  -3  -4  11 43.1359 5.66509   1
  -2  -4  11 18.5524 7.40986   2
  -2  -4  11 16.3335 4.26490   1
   2  -4 -11 14.9605 4.11747   1
  -1  -4  11 53.2015 9.53286   2
   1  -4 -11 40.0027 5.38934   1
  -1  -4  11 50.9641 6.16049   1
   0  -4  11 4.26327 3.69542   1
   0  -4  11 -4.7767 4.39509   2
   0  -4 -11 -3.5872 2.84865   1
   1  -4  11 75.2042 11.1599   2
  -1  -4 -11 83.9724 7.57087   1
   1  -4  11 80.2576 7.42930   1
  -2  -4 -11 94.3676 9.06282   2
   2  -4  11 84.4650 7.82212   1
  -2  -4 -11 82.8037 7.85811   1
   2  -4  11 106.674 12.8791   2
   3  -4  11 203.132 11.1092   1
   3  -4  11 219.159 16.7281   2
  -3  -4 -11 201.132 11.1392   1
  -3  -4 -11 205.625 12.0813   2
  -4  -4 -11 73.6057 8.15124   1
   4  -4  11 82.2093 8.07095   1
  -4  -4 -11 71.8126 9.04727   2
  -5  -4 -11 16.6615 5.79413   2
  -5  -4 -11 18.6458 5.39737   1
   5  -4  11 11.1157 4.79201   1
  -6  -4 -11 4.05027 4.41072   1
   6  -4  11 -6.0842 3.72599   1
  -6  -4 -11 4.83290 5.66601   2
  -7  -4 -11 25.6156 7.99207   2
   7  -4  11 12.7246 5.29739   1
  -7  -4 -11 12.2102 5.09776   1
   8  -4  11 83.0309 9.20002   1
  -8  -4 -11 155.683 16.6139   2
  -8  -4 -11 91.8056 9.65965   1
  -9  -4 -11 14.6330 8.66054   2
  -9  -4 -11 -0.0793 4.57001   1
  -9  -4 -11 2.01522 4.80010   1
   9  -4  11 -3.0862 4.34245   1
 -10  -4 -11 52.1028 8.52175   1
 -10  -4 -11 91.4515 14.1902   2
  10  -4  11 52.0004 8.27055   1
 -10  -4 -11 48.7060 8.60565   1
  11  -4  11 196.642 14.0434   1
 -11  -4 -11 198.333 14.4051   1
 -11  -4 -11 211.119 18.3383   2
  12  -4  11 26.6808 7.56905   1
 -12  -4 -11 48.1503 11.8129   2
 -12  -4 -11 24.9352 7.90915   1
  13  -4  11 7.64096 6.47306   1
 -13  -4 -11 9.50461 6.84470   1
 -13  -4 -11 20.3244 9.59853   2
 -14  -5  11 106.922 15.5084   2
  14  -5 -11 89.3080 9.69600   1
 -14  -5  11 98.1748 11.0836   1
 -13  -5  11 -1.4609 5.97090   2
 -13  -5  11 1.31107 4.97589   1
  13  -5 -11 8.07896 5.07099   1
 -12  -5  11 24.4166 9.49269   2
  12  -5 -11 33.6493 6.38073   1
 -12  -5  11 16.9689 6.16127   1
 -11  -5  11 -0.0727 7.51426   2
  11  -5 -11 6.09971 4.54581   1
 -11  -5  11 3.69171 4.82070   1
  10  -5 -11 319.731 13.7561   1
 -10  -5  11 329.940 21.7548   2
 -10  -5  11 307.819 15.0887   1
  -9  -5  11 96.2196 14.5984   2
  -9  -5  11 77.3680 8.65440   1
   9  -5 -11 83.3840 7.79920   1
  -8  -5  11 44.9939 6.85236   1
   8  -5 -11 41.2548 5.76978   1
  -8  -5  11 41.0978 10.4720   2
  -7  -5  11 241.879 12.4339   1
   7  -5 -11 237.135 10.8651   1
  -7  -5  11 232.190 18.4246   2
  -6  -5  11 11.6414 4.93823   1
  -6  -5  11 12.1515 7.16402   2
   6  -5 -11 8.49893 3.77116   1
   5  -5 -11 2.06421 3.41046   1
  -5  -5  11 2.55082 4.00907   1
  -5  -5  11 -1.7134 5.39980   2
  -4  -5  11 162.142 15.1314   2
  -4  -5  11 170.497 10.4223   1
   4  -5 -11 178.105 9.45293   1
  -3  -5  11 80.3735 7.75575   1
  -3  -5  11 60.2406 11.3222   2
   3  -5 -11 79.2043 7.13606   1
  -2  -5  11 17.3158 8.08679   2
   2  -5 -11 12.8105 4.22382   1
  -2  -5  11 15.5376 4.75529   1
   1  -5 -11 287.039 12.1072   1
  -1  -5  11 305.303 13.0395   1
  -1  -5  11 313.936 20.4047   2
   0  -5  11 240.240 17.9463   2
   0  -5 -11 248.061 11.6032   1
   0  -5  11 246.403 11.9179   1
   1  -5  11 23.6301 9.08992   2
   1  -5  11 11.6310 4.63991   1
  -1  -5 -11 6.94687 3.97084   1
   2  -5  11 225.435 11.7393   1
   2  -5  11 219.870 18.5975   2
  -2  -5 -11 243.475 12.1498   1
   3  -5  11 133.859 15.3542   2
   3  -5  11 165.183 10.5897   1
  -3  -5 -11 143.087 10.3182   1
  -4  -5 -11 1.70188 4.22049   1
   4  -5  11 5.39703 4.19439   1
   6  -5  11 174.408 11.6324   1
  -6  -5 -11 149.558 11.6703   1
  -8  -5 -11 6.77093 5.18719   1
  -8  -5 -11 2.48331 4.83110   1
   8  -5  11 5.47988 4.75231   1
  -9  -5 -11 27.1132 7.08207   1
  -9  -5 -11 26.1255 6.82090   1
   9  -5  11 25.9107 6.71998   1
 -10  -5 -11 70.1238 9.81467   1
 -10  -5 -11 115.748 14.0771   2
  10  -5  11 65.8540 9.44725   1
 -10  -6  11 35.8210 7.35282   1
 -10  -6  11 49.3785 12.5035   2
  10  -6 -11 40.4802 6.47323   1
  -9  -6  11 142.232 17.4009   2
  -9  -6  11 144.355 11.5710   1
   9  -6 -11 129.913 9.53956   1
  -8  -6  11 45.4336 12.0288   2
  -8  -6  11 30.3787 6.37534   1
   8  -6 -11 28.1831 5.26144   1
  -7  -6  11 22.5214 9.13913   2
  -7  -6  11 17.8928 5.61218   1
   7  -6 -11 23.0411 5.01738   1
   6  -6 -11 20.2207 4.69608   1
  -6  -6  11 14.4670 5.43540   1
  -6  -6  11 21.4500 9.44050   2
  -5  -6  11 43.1118 6.70960   1
  -5  -6  11 36.9789 10.3183   2
   5  -6 -11 46.6304 5.94699   1
  -4  -6  11 11.9245 8.67009   2
   4  -6 -11 10.4573 3.94001   1
  -4  -6  11 6.59287 4.55823   1
  -3  -6  11 -5.9480 6.81362   2
   3  -6 -11 -0.5602 3.29008   1
  -3  -6  11 3.58936 4.02786   1
  -2  -6  11 36.2842 6.12279   1
  -2  -6  11 22.3977 9.70578   2
   2  -6 -11 28.4973 5.24002   1
   1  -6 -11 26.9328 5.14799   1
  -1  -6  11 29.7976 9.45826   2
  -1  -6  11 31.2002 5.80102   1
   0  -6  11 0.37502 7.40712   2
   0  -6  11 3.22536 4.13343   1
   0  -6 -11 4.13496 3.85094   1
  -1  -6 -11 20.1400 4.97224   1
   1  -6  11 28.5683 5.82820   1
   1  -6  11 16.9243 9.98544   2
   2  -6  11 37.3082 11.6984   2
   2  -6  11 21.9897 5.49638   1
  -2  -6 -11 13.7287 4.94070   1
   3  -6  11 2.80836 4.50062   1
  -3  -6 -11 6.87289 4.38910   1
   3  -6  11 5.83118 9.12060   2
   4  -6  11 30.8761 6.33133   1
  -4  -6 -11 20.4362 5.62614   1
  -5  -6 -11 91.0833 9.75576   1
   5  -6  11 116.154 10.2314   1
  -6  -6 -11 0.77810 4.55109   1
 -21   0  12 94.8216 12.6361   2
  21   0 -12 82.3794 12.1511   1
  20   0 -12 -9.4771 5.44527   1
 -20   0  12 18.6991 6.82443   2
  19   0 -12 41.7804 8.92334   1
 -19   0  12 46.6285 9.34229   2
  18   0 -12 29.4204 7.73941   1
 -18   0  12 43.5931 8.35427   2
 -18   0  12 29.7715 6.94816   1
 -17   0  12 199.995 14.2480   2
  17   0 -12 159.108 12.6355   1
 -17   0  12 177.918 12.2339   1
 -16   0  12 237.603 14.5190   2
  16   0 -12 211.420 13.7596   1
 -16   0  12 227.350 13.0661   1
 -15   0  12 278.682 15.1940   2
 -15   0  12 288.541 14.0362   1
  15   0 -12 274.567 14.8805   1
 -14   0  12 6.67040 4.69005   2
  14   0 -12 6.47497 4.90669   1
 -14   0  12 4.31925 4.35355   1
 -14   0  12 -0.1189 2.49064   3
  13   0 -12 39.8480 6.95301   1
 -13   0  12 35.6904 4.92455   3
 -13   0  12 27.5002 5.97181   2
 -13   0  12 21.4071 5.22284   1
 -12   0  12 10.7623 4.37481   1
 -12   0  12 10.7760 3.12794   3
  12   0 -12 8.15887 4.52727   1
 -12   0  12 10.6369 4.30257   2
 -11   0  12 57.0014 6.53697   1
 -11   0  12 59.2396 5.65686   3
 -11   0  12 53.0128 6.54185   2
  11   0 -12 42.1792 6.09634   1
  10   0 -12 -0.8534 3.24519   1
 -10   0  12 4.71718 3.30704   2
 -10   0  12 4.59085 2.66190   3
 -10   0  12 2.37378 3.32100   1
   9   0 -12 597.875 17.9385   1
  -9   0  12 578.472 16.2433   2
  -9   0  12 594.029 17.2272   1
  -9   0  12 575.880 15.2166   3
   8   0 -12 47.2921 5.91439   1
  -8   0  12 57.6713 4.95890   3
  -8   0  12 42.7340 5.17039   1
  -8   0  12 48.2158 5.15663   2
  -7   0  12 223.437 8.61936   2
   7   0 -12 224.613 10.3292   1
  -7   0  12 216.801 9.91724   1
  -7   0  12 217.447 8.36222   3
  -6   0  12 14.1369 3.92945   1
   6   0 -12 13.0543 3.84021   1
  -6   0  12 18.1040 3.21135   2
   5   0 -12 983.413 22.8237   1
  -5   0  12 952.640 22.0530   1
  -5   0  12 960.999 19.2000   2
  -4   0  12 15.1765 2.98120   2
   4   0 -12 4.75076 3.40351   1
  -4   0  12 4.72897 3.50091   1
   3   0 -12 4939.80 76.8758   1
  -3   0  12 4772.31 72.2294   2
  -3   0  12 4821.83 76.0741   1
   2   0 -12 3503.17 57.8844   1
  -2   0  12 3436.48 57.2036   1
   1   0 -12 1516.35 30.6495   1
  -1   0  12 1545.77 30.6250   1
   0   0  12 25.7104 4.50575   1
   0   0 -12 31.3035 5.02025   1
   1   0  12 4456.86 69.9652   3
  -1   0 -12 4615.37 70.1491   3
   1   0  12 4650.20 73.3341   1
  -1   0 -12 4574.23 73.3544   1
   2   0  12 106.095 6.20287   3
   2   0  12 104.143 7.58754   1
  -2   0 -12 100.737 6.13877   3
  -2   0 -12 113.057 7.74634   1
  -3   0 -12 2.21196 2.93207   1
  -3   0 -12 7.83136 2.61278   3
   3   0  12 9.43873 2.65615   3
   3   0  12 9.12960 3.47051   1
  -4   0 -12 -0.2057 2.00232   3
   4   0  12 2.26432 2.28812   3
   4   0  12 -1.4297 2.99806   1
  -4   0 -12 1.38868 3.17146   1
   5   0  12 12.8365 3.10872   3
  -5   0 -12 3.39780 2.47151   3
   5   0  12 4.68637 3.90411   1
  -5   0 -12 9.40010 3.73889   1
  -6   0 -12 21.2826 4.82709   1
   6   0  12 26.4127 5.37740   1
   6   0  12 23.9415 3.87379   3
  -6   0 -12 26.5400 4.24879   3
  -7   0 -12 835.327 20.2492   3
  -7   0 -12 811.005 22.9462   1
   7   0  12 845.012 23.5312   1
  -8   0 -12 220.614 10.3655   3
  -8   0 -12 227.672 12.4546   1
  -8   0 -12 241.763 12.6293   1
   8   0  12 192.638 11.9600   1
  -9   0 -12 100.016 9.45868   1
   9   0  12 103.762 10.0485   1
  -9   0 -12 98.7419 7.87247   3
  -9   0 -12 97.2198 9.31233   1
 -10   0 -12 122.471 10.7689   1
 -10   0 -12 144.746 9.01711   3
  10   0  12 141.223 11.3244   1
  11   0  12 306.138 15.7083   1
 -11   0 -12 308.963 13.0501   3
 -11   0 -12 299.152 15.2730   1
 -12   0 -12 127.088 12.0108   1
  12   0  12 151.251 13.3913   1
 -13   0 -12 34.3253 7.18745   1
  13   0  12 34.9942 7.93630   1
  14   0  12 222.013 15.3004   1
 -14   0 -12 243.012 15.1281   1
  15   0  12 426.384 20.8480   1
  16   0  12 9.28601 7.36628   1
 -21  -1  12 10.4533 6.90910   2
  21  -1 -12 -0.0083 7.09820   1
 -21  -1  12 9.02451 7.12297   1
  21   1 -12 15.5482 7.76487   1
 -20  -1  12 2.43579 5.60789   2
 -20  -1  12 -3.4977 5.66287   1
  20  -1 -12 -9.1651 5.73918   1
  20   1 -12 -5.9547 5.25007   1
 -19  -1  12 22.0604 7.53250   2
 -19  -1  12 4.79834 3.92730   3
  19  -1 -12 12.8239 7.01124   1
 -19  -1  12 9.04291 6.22742   1
 -19   1  12 32.4942 6.96581   2
  19   1 -12 6.35681 6.31016   1
 -18  -1  12 11.0859 6.10460   1
 -18  -1  12 23.1800 7.14884   2
 -18  -1  12 10.6794 3.90038   3
  18  -1 -12 14.6618 6.51830   1
 -18   1  12 24.1099 6.10021   2
  18   1 -12 9.41639 5.68604   1
 -17  -1  12 64.5750 9.14779   1
 -17  -1  12 51.0525 6.66167   3
 -17  -1  12 53.8492 9.46919   2
  17  -1 -12 49.4856 8.29615   1
 -17   1  12 62.6841 8.67264   2
  17   1 -12 60.9737 8.95747   1
 -16  -1  12 4.66875 3.29848   3
 -16  -1  12 -3.1689 4.72394   1
  16  -1 -12 -5.4978 4.54646   1
 -16  -1  12 1.06371 5.35081   2
  16   1 -12 4.07646 5.07905   1
 -16   1  12 13.1192 4.93674   2
 -15  -1  12 12.6700 4.03080   3
 -15  -1  12 11.5512 5.30363   1
  15  -1 -12 12.4871 6.14187   1
 -15  -1  12 11.8898 5.74086   2
 -15   1  12 17.4689 5.24204   2
  15   1 -12 7.55508 5.13260   1
 -14  -1  12 317.511 16.5166   2
  14  -1 -12 328.373 15.8238   1
 -14  -1  12 336.032 15.4442   1
 -14  -1  12 347.851 12.9304   3
  14   1 -12 315.711 15.3361   1
 -14   1  12 319.790 13.9496   1
 -14   1  12 346.000 14.7789   2
 -13  -1  12 4.62108 4.84939   2
 -13  -1  12 9.62256 4.68406   1
 -13  -1  12 4.63029 2.93339   3
  13  -1 -12 -0.6179 4.28886   1
 -13   1  12 10.3363 4.34519   2
  13   1 -12 -0.5200 4.24108   1
 -13   1  12 0.75823 3.74475   1
  12  -1 -12 55.7706 7.22534   1
 -12  -1  12 82.3618 6.69365   3
 -12  -1  12 69.1483 7.83446   1
 -12  -1  12 65.9366 8.64231   2
  12   1 -12 64.5932 7.71371   1
 -12   1  12 64.6238 7.01558   1
 -12   1  12 51.6261 6.12993   2
 -11  -1  12 392.508 12.6640   3
 -11  -1  12 400.211 16.6515   2
  11  -1 -12 389.408 15.2472   1
 -11  -1  12 403.025 15.2327   1
 -11   1  12 411.243 14.1407   1
 -11   1  12 412.668 13.4599   2
 -11   1  12 381.269 15.7208   3
  11   1 -12 423.662 15.6418   1
 -10  -1  12 531.705 18.2526   2
  10  -1 -12 540.860 17.3852   1
 -10  -1  12 502.344 16.7258   1
 -10  -1  12 522.947 14.2566   3
 -10   1  12 534.229 15.8606   1
 -10   1  12 520.212 14.5268   3
 -10   1  12 483.138 13.7721   2
  10   1 -12 542.223 17.2529   1
  -9  -1  12 79.7963 7.76162   1
  -9  -1  12 74.7755 5.53563   3
   9  -1 -12 65.0903 7.04180   1
  -9  -1  12 86.2672 7.91859   2
   9   1 -12 67.4774 6.92056   1
  -9   1  12 68.3126 6.30589   1
  -9   1  12 71.5586 5.02442   2
  -8  -1  12 138.053 6.86108   3
  -8  -1  12 139.801 9.00188   2
  -8  -1  12 149.961 7.17864   3
  -8  -1  12 137.540 8.75709   1
   8  -1 -12 143.862 8.88254   1
   8   1 -12 147.116 8.82556   1
  -8   1  12 122.092 7.57320   1
  -8   1  12 144.459 5.82100   2
  -7  -1  12 1.06798 1.89743   3
   7  -1 -12 4.92665 3.36106   1
  -7  -1  12 4.73785 2.36888   3
  -7  -1  12 6.00450 3.14104   1
  -7  -1  12 -0.2474 2.92484   2
  -7   1  12 4.19117 2.99197   1
  -7   1  12 5.25148 1.68507   2
   7   1 -12 3.28641 3.16230   1
   6  -1 -12 435.320 14.2570   1
  -6  -1  12 466.280 12.2137   3
  -6  -1  12 450.296 14.7102   2
  -6  -1  12 427.438 14.2031   1
  -6  -1  12 421.052 12.0012   3
   6   1 -12 427.484 14.0794   1
  -6   1  12 437.646 13.3379   1
   5  -1 -12 41.0616 5.52416   1
  -5  -1  12 38.7088 5.20132   2
  -5  -1  12 27.8463 4.69141   1
  -5  -1  12 32.6635 3.95977   3
  -5  -1  12 26.8807 3.45668   3
   5   1 -12 22.8702 4.21679   1
  -5   1  12 31.1907 4.36836   1
  -4  -1  12 1607.11 28.4162   3
  -4  -1  12 1542.05 31.6403   2
   4  -1 -12 1616.05 31.8842   1
  -4  -1  12 1547.69 31.5293   1
  -4  -1  12 1606.02 28.6764   3
  -4   1  12 1576.71 30.3975   1
   4   1 -12 1622.47 31.6610   1
  -3  -1  12 102.572 5.76061   3
  -3  -1  12 108.162 7.49539   2
   3  -1 -12 99.6380 7.18373   1
  -3  -1  12 109.281 7.58541   1
   3   1 -12 115.657 7.31180   1
  -3   1  12 104.825 7.07124   1
  -2  -1  12 720.685 19.0671   2
  -2  -1  12 730.972 16.2117   3
  -2  -1  12 739.849 18.8864   1
   2  -1 -12 767.531 19.2746   1
   2   1 -12 724.673 18.4161   1
  -2   1  12 733.371 18.0118   1
   1  -1 -12 28.9692 4.91988   1
  -1  -1  12 29.9578 3.44832   3
  -1  -1  12 34.6457 5.14459   2
  -1  -1  12 28.5051 4.81620   1
  -1   1  12 23.0966 4.28287   1
   1   1 -12 16.3666 2.95588   3
   1   1 -12 29.5978 4.65137   1
   0  -1 -12 587.777 16.7435   1
   0  -1  12 587.901 13.9383   3
   0  -1  12 572.891 16.5382   1
   0   1 -12 566.236 14.3877   3
   0   1  12 584.073 15.9020   1
   0   1 -12 572.383 16.0367   1
   1  -1  12 48.9110 4.52997   3
   1  -1  12 31.6313 4.95140   1
  -1  -1 -12 31.2261 4.90736   1
  -1   1 -12 35.6350 4.06587   3
   1   1  12 45.7470 5.39072   1
  -1   1 -12 44.6516 5.46414   1
   2  -1  12 442.939 14.8473   1
  -2  -1 -12 446.999 14.9317   1
   2  -1  12 476.798 12.3664   3
  -2   1 -12 455.054 12.9540   3
   2   1  12 462.982 14.4848   1
  -2   1 -12 460.843 14.4644   1
   3  -1  12 107.586 8.08918   1
   3  -1  12 114.240 6.16309   3
  -3  -1 -12 100.827 8.55815   1
  -3   1 -12 108.873 6.68897   3
   3   1  12 122.992 8.08263   1
  -3   1 -12 109.792 7.55969   1
   4  -1  12 175.102 7.56911   3
   4  -1  12 192.122 10.4609   1
  -4  -1 -12 178.856 10.1904   1
  -4  -1 -12 175.970 7.91181   3
  -4   1 -12 195.915 8.72134   3
  -4   1 -12 187.097 9.66802   1
   4   1  12 204.906 10.4294   1
   5  -1  12 0.00323 2.15378   3
  -5  -1 -12 1.22132 2.42267   3
   5  -1  12 -3.2712 3.39159   1
  -5  -1 -12 0.33222 3.65521   1
   5   1  12 -2.6606 3.30724   1
  -5   1 -12 -2.5599 2.25106   3
  -5   1 -12 0.39997 3.34246   1
  -6  -1 -12 922.013 20.6699   3
   6  -1  12 920.903 20.0905   3
   6  -1  12 955.277 24.7407   1
  -6  -1 -12 927.427 24.7561   1
  -6   1 -12 895.527 23.2652   1
   6   1  12 908.725 23.8049   1
  -7  -1 -12 11.6945 3.62358   3
  -7  -1 -12 13.4285 5.41239   1
   7  -1  12 15.7395 3.59354   3
   7  -1  12 15.4606 5.31181   1
   7   1  12 11.7219 5.04145   1
  -7   1 -12 16.7037 4.09656   3
  -7   1 -12 18.7994 5.48957   1
  -7   1 -12 20.0407 5.30418   1
  -8  -1 -12 77.1211 6.77696   3
   8  -1  12 66.5095 8.23944   1
  -8  -1 -12 87.4795 8.92054   1
   8  -1  12 77.2398 6.24021   3
   8   1  12 73.9509 8.43517   1
  -8   1 -12 82.8108 8.44033   1
  -8   1 -12 82.5459 8.16507   1
  -9  -1 -12 179.616 12.1786   1
  -9  -1 -12 179.975 11.8885   1
   9  -1  12 207.478 12.7504   1
   9  -1  12 188.244 8.96685   3
  -9  -1 -12 202.692 9.78517   3
  -9   1 -12 202.821 11.6879   1
   9   1  12 201.972 12.2919   1
  10  -1  12 31.4909 7.26117   1
 -10  -1 -12 28.9282 6.85518   1
 -10  -1 -12 16.2105 5.92720   1
 -10  -1 -12 15.3391 4.24313   3
  10  -1  12 17.7253 3.99006   3
  10   1  12 12.2284 5.62955   1
 -10   1 -12 11.1776 5.50294   1
 -11  -1 -12 -1.5095 5.06665   1
 -11  -1 -12 -4.2760 2.95834   3
  11  -1  12 -6.7289 2.51023   3
  11  -1  12 -2.8179 4.92149   1
 -11   1 -12 -3.5683 4.48912   1
  11   1  12 1.35067 5.19158   1
 -12  -1 -12 12.3306 6.05261   1
  12  -1  12 4.68064 5.58833   1
 -12  -1 -12 7.25607 3.66639   3
  12   1  12 -0.2218 5.04769   1
  13  -1  12 8.22526 6.11404   1
 -13  -1 -12 1.15991 3.44242   3
 -13  -1 -12 3.05231 5.43652   1
  13   1  12 -2.9871 5.13449   1
  14  -1  12 12.0871 6.58890   1
 -14  -1 -12 3.75326 5.97587   1
 -14  -1 -12 3.15459 3.65833   3
  14   1  12 5.89985 6.06766   1
 -15  -1 -12 76.7324 10.3864   1
 -15  -1 -12 80.2879 8.40368   3
  15  -1  12 89.2730 11.7955   1
  15   1  12 65.3644 11.8279   1
  16  -1  12 93.8290 12.4479   1
 -16  -1 -12 114.021 12.7357   1
 -16  -1 -12 85.4583 8.85714   3
 -20  -2  12 46.7149 9.68201   1
  20  -2 -12 27.6240 8.69961   1
 -20  -2  12 19.3924 5.14706   3
 -20  -2  12 19.7539 8.75605   2
  19  -2 -12 0.83814 6.16316   1
 -19  -2  12 3.43308 3.34713   3
 -19  -2  12 3.24191 6.35949   2
 -19  -2  12 5.51662 5.97431   1
 -19   2  12 -23.321 10.4529   2
 -18  -2  12 3.43643 6.29209   2
 -18  -2  12 1.97475 5.84332   1
  18  -2 -12 11.0205 6.80998   1
 -18  -2  12 12.4576 3.87321   3
 -17  -2  12 5.48379 6.19252   2
 -17  -2  12 0.98174 5.25368   1
 -17  -2  12 8.29115 3.65573   3
  17  -2 -12 -8.3331 4.94703   1
 -16  -2  12 68.8844 9.45282   1
  16  -2 -12 63.9801 9.12984   1
 -16  -2  12 56.7705 6.05187   3
 -16  -2  12 60.3106 10.4006   2
 -15  -2  12 31.9167 4.98753   3
 -15  -2  12 37.7567 8.85242   2
  15  -2 -12 33.6245 7.33833   1
 -15  -2  12 32.9059 7.11489   1
  15   2 -12 31.6638 6.78380   1
  14  -2 -12 16.4330 5.91051   1
 -14  -2  12 24.1140 7.37090   2
 -14  -2  12 25.2921 4.48690   3
 -14  -2  12 24.5648 6.71280   1
  14   2 -12 18.7965 5.91350   1
  13  -2 -12 26.4268 6.12872   1
 -13  -2  12 29.3913 7.56877   2
 -13  -2  12 36.1988 6.79879   1
 -13  -2  12 24.2855 4.14091   3
  13   2 -12 17.2743 5.51233   1
 -12  -2  12 1.84545 5.03797   2
 -12  -2  12 4.11118 4.54067   1
 -12  -2  12 5.33134 2.49473   3
  12  -2 -12 5.76063 4.45883   1
 -12  -2  12 7.68804 2.91236   3
  12   2 -12 5.26230 4.27355   1
 -12   2  12 -19.594 5.26211   2
 -11  -2  12 2.71550 2.61905   3
 -11  -2  12 5.77574 5.16374   2
 -11  -2  12 6.34334 2.65717   3
 -11  -2  12 3.98510 4.54955   1
  11  -2 -12 5.95124 4.48995   1
 -11   2  12 -5.0659 4.21124   2
  11   2 -12 1.42557 3.81798   1
 -10  -2  12 41.4921 6.35474   1
 -10  -2  12 36.8691 4.30667   3
 -10  -2  12 43.0234 4.48581   3
 -10  -2  12 33.4770 6.97561   2
  10  -2 -12 27.3502 5.41528   1
 -10   2  12 42.1458 4.40284   2
  10   2 -12 51.1504 6.61601   1
  -9  -2  12 216.499 8.20206   3
   9  -2 -12 229.700 11.2730   1
  -9  -2  12 219.367 13.3714   2
  -9  -2  12 201.915 8.12493   3
  -9  -2  12 201.456 11.1388   1
   9   2 -12 201.393 10.3674   1
  -9   2  12 216.922 6.81174   2
  -9   2  12 198.027 9.96732   1
  -8  -2  12 1034.83 20.4502   3
   8  -2 -12 1014.92 24.5301   1
  -8  -2  12 1062.65 25.3409   1
  -8  -2  12 1030.42 28.3137   2
  -8  -2  12 1046.68 20.7353   3
   8   2 -12 1022.70 24.0915   1
  -8   2  12 992.297 21.8360   1
  -7  -2  12 8.01370 2.31700   3
  -7  -2  12 10.0404 4.12794   1
  -7  -2  12 -1.0666 3.89059   2
  -7  -2  12 6.01828 2.17933   3
   7  -2 -12 2.89233 3.32584   1
   7   2 -12 10.0706 3.54894   1
  -7   2  12 6.81008 2.94284   1
  -6  -2  12 7.62722 2.30734   3
  -6  -2  12 9.97594 2.24754   3
  -6  -2  12 12.2129 3.89932   1
  -6  -2  12 11.7893 4.65107   2
   6  -2 -12 3.42273 3.00170   1
  -6   2  12 3.46411 2.70478   1
   6   2 -12 5.59171 3.08798   1
   5  -2 -12 28.7268 4.66016   1
  -5  -2  12 32.0306 5.82622   2
  -5  -2  12 28.7288 4.94323   1
  -5  -2  12 31.1597 3.23370   3
  -5  -2  12 30.2631 3.27375   3
   5   2 -12 28.5168 4.40896   1
  -5   2  12 34.3642 4.29328   1
  -4  -2  12 13.3753 3.73553   1
  -4  -2  12 20.2420 2.76562   3
   4  -2 -12 16.8435 4.03254   1
  -4  -2  12 20.9004 5.16909   2
  -4  -2  12 23.1913 2.79436   3
  -4   2  12 20.5916 3.62286   1
   4   2 -12 22.7641 4.13209   1
  -3  -2  12 132.876 8.12771   1
  -3  -2  12 135.629 5.39691   3
  -3  -2  12 129.563 5.44467   3
   3  -2 -12 135.061 7.99534   1
  -3  -2  12 139.133 9.81893   2
   3   2 -12 134.407 7.45331   1
  -3   2  12 139.116 7.03927   1
  -2  -2  12 340.914 12.4665   1
  -2  -2  12 325.051 8.54880   3
  -2  -2  12 338.139 8.79938   3
  -2  -2  12 324.458 14.2642   2
   2  -2 -12 322.883 12.1406   1
  -2   2  12 309.716 10.5828   1
   2   2 -12 324.652 11.2144   1
  -1  -2  12 41.2244 3.38273   3
  -1  -2  12 40.6763 5.31758   1
  -1  -2  12 42.2545 3.39766   3
  -1  -2  12 40.7401 6.70112   2
   1  -2 -12 40.0605 5.58495   1
   1   2 -12 43.0150 5.06215   1
  -1   2  12 39.4599 4.66992   1
   0  -2  12 432.123 10.0786   3
   0  -2  12 423.481 14.3187   1
   0  -2  12 461.481 17.4765   2
   0  -2 -12 451.484 14.5813   1
   0  -2  12 440.730 10.1644   3
   0  -2 -12 425.223 10.3979   2
   0   2  12 437.648 13.0584   1
   0   2 -12 420.057 13.1937   1
   1  -2  12 72.3336 8.59379   2
   1  -2  12 61.0067 6.52041   1
  -1  -2 -12 65.7952 4.76438   2
  -1  -2 -12 67.9150 6.92970   1
   1  -2  12 58.2972 3.86348   3
   1  -2  12 55.0837 3.64723   3
   1   2  12 59.5544 5.87241   1
  -1   2 -12 57.2744 5.73600   1
  -2  -2 -12 326.991 11.0715   2
   2  -2  12 319.153 8.39915   3
  -2  -2 -12 309.552 12.7794   1
   2  -2  12 312.612 8.24972   3
   2  -2  12 319.783 12.7539   1
   2   2  12 308.491 11.4242   1
  -2   2 -12 308.554 11.3626   1
   3  -2  12 1.11865 3.31696   1
  -3  -2 -12 -5.3229 3.25847   2
   3  -2  12 3.08024 1.74497   3
  -3  -2 -12 4.77768 3.80096   1
  -3   2 -12 -2.6447 2.77782   1
   3   2  12 4.10453 2.94593   1
  -4  -2 -12 35.2007 7.13076   2
  -4  -2 -12 35.2433 5.96998   1
   4  -2  12 38.6534 3.45831   3
   4  -2  12 36.2748 5.98490   1
   4   2  12 40.6727 5.63543   1
  -4   2 -12 32.4981 4.94355   1
  -5  -2 -12 44.5354 6.60227   1
   5  -2  12 45.4365 6.56426   1
   5  -2  12 50.6203 4.01182   3
   5   2  12 50.6682 6.31831   1
  -5   2 -12 67.0377 6.80396   1
  -5   2 -12 60.9494 6.57301   1
   6  -2  12 38.9135 3.81693   3
   6  -2  12 46.5690 7.36295   1
  -6  -2 -12 48.0609 7.39253   1
   6   2  12 48.2473 6.57106   1
  -6   2 -12 36.1977 5.89597   1
   7  -2  12 97.2262 5.33608   3
   7  -2  12 103.399 10.0857   1
  -7  -2 -12 85.8055 9.03105   1
   7   2  12 103.277 9.08009   1
  -8  -2 -12 90.3556 6.36030   3
   8  -2  12 101.408 9.70810   1
  -8  -2 -12 90.5551 9.50664   1
   8  -2  12 89.0557 5.33839   3
   8   2  12 97.7522 8.89956   1
  -9  -2 -12 225.039 13.5186   1
  -9  -2 -12 259.232 14.7453   1
  -9  -2 -12 244.722 9.75367   3
   9  -2  12 234.945 7.92573   3
   9  -2  12 242.803 14.2928   1
  10  -2  12 15.1032 2.86632   3
 -10  -2 -12 14.9680 3.75357   3
  10  -2  12 11.5903 5.96475   1
 -10  -2 -12 12.5143 5.58468   1
 -10  -2 -12 16.8723 6.12365   1
  11  -2  12 173.108 12.9120   1
  11  -2  12 157.777 6.70584   3
 -11  -2 -12 163.183 12.8730   1
 -11  -2 -12 139.865 8.23564   3
  12  -2  12 21.9470 7.03995   1
 -12  -2 -12 19.4411 6.68110   1
 -12  -2 -12 16.8508 3.86621   3
  12  -2  12 22.1817 3.31456   3
 -13  -2 -12 3.23227 5.17968   1
  13  -2  12 0.68750 5.46520   1
 -13  -2 -12 -1.7019 2.86443   3
  13  -2  12 1.06273 2.09999   3
  14  -2  12 2.31404 6.19194   1
  14  -2  12 11.7634 2.76929   3
 -14  -2 -12 12.1647 3.94794   3
 -14  -2 -12 4.51741 5.73804   1
  15  -2  12 74.1778 5.17628   3
 -15  -2 -12 60.9655 10.1225   1
 -15  -2 -12 67.8535 7.11143   3
  15  -2  12 66.2036 11.0925   1
 -19  -3  12 2.35070 7.24365   2
 -19  -3  12 5.58872 6.75025   1
 -19  -3  12 5.95082 3.42595   3
 -19  -3  12 5.21272 3.28258   3
  19  -3 -12 0.91175 6.56526   1
  18  -3 -12 4.78113 6.10827   1
 -18  -3  12 0.45060 5.80872   1
 -18  -3  12 8.58209 3.38725   3
 -18  -3  12 -0.6993 6.58485   2
 -18  -3  12 2.66659 3.01674   3
 -17  -3  12 85.4531 13.1712   2
 -17  -3  12 110.661 6.82193   3
 -17  -3  12 97.6270 6.81326   3
 -17  -3  12 79.3810 10.9018   1
  17  -3 -12 95.5949 11.1519   1
 -16  -3  12 82.0824 10.2857   1
  16  -3 -12 98.4763 10.7983   1
 -16  -3  12 102.682 6.36248   3
 -16  -3  12 93.3551 13.4859   2
 -16  -3  12 97.9975 6.54559   3
 -15  -3  12 5.52201 5.37260   1
 -15  -3  12 7.84343 2.90269   3
 -15  -3  12 8.45361 2.70501   3
  15  -3 -12 8.66885 5.33636   1
 -15  -3  12 4.79156 6.79356   2
 -14  -3  12 45.0300 9.24705   2
 -14  -3  12 51.9393 4.75316   3
 -14  -3  12 34.9640 7.47099   1
 -14  -3  12 47.6735 4.41754   3
  14  -3 -12 39.5287 7.17064   1
  13  -3 -12 701.184 22.4372   1
 -13  -3  12 716.806 23.3508   1
 -13  -3  12 692.623 15.2605   3
 -13  -3  12 694.899 15.3314   3
 -13  -3  12 735.783 28.3215   2
  12  -3 -12 8.62048 4.75165   1
 -12  -3  12 2.38214 6.02372   2
 -12  -3  12 7.96554 2.27556   3
 -12  -3  12 4.52562 1.97196   3
 -12  -3  12 1.99601 4.39487   1
 -11  -3  12 249.932 13.2876   1
 -11  -3  12 252.524 7.41984   3
 -11  -3  12 240.055 7.21558   3
 -11  -3  12 213.644 15.5827   2
  11  -3 -12 250.887 12.6221   1
 -10  -3  12 140.340 10.3689   1
  10  -3 -12 149.641 10.1036   1
 -10  -3  12 161.030 13.6055   2
 -10  -3  12 157.637 5.28993   3
 -10  -3  12 144.630 5.27656   3
  -9  -3  12 8.07986 1.65189   3
  -9  -3  12 6.50606 4.40692   1
  -9  -3  12 5.07530 1.47103   3
  -9  -3  12 -3.1033 4.87686   2
   9  -3 -12 1.44008 3.60939   1
   8  -3 -12 51.9671 6.45071   1
  -8  -3  12 65.8435 7.50562   1
  -8  -3  12 73.7665 10.3961   2
   7  -3 -12 1596.36 32.6333   1
  -7  -3  12 1545.53 39.5731   2
  -7  -3  12 1560.82 33.3689   1
  -6  -3  12 148.306 12.6602   2
   6  -3 -12 174.429 9.46338   1
  -6  -3  12 183.511 10.5957   1
  -5  -3  12 331.354 17.0463   2
  -5  -3  12 341.179 13.3361   1
   5  -3 -12 326.616 12.7653   1
  -4  -3  12 658.918 23.2746   2
   4  -3 -12 676.843 18.6185   1
  -4  -3  12 704.038 19.3361   1
   3  -3 -12 218.343 10.3175   1
  -3  -3  12 228.360 14.4236   2
  -3  -3  12 219.593 10.9878   1
   2  -3 -12 688.776 18.9682   1
  -2  -3  12 669.055 19.2234   1
  -2  -3  12 698.005 24.2982   2
   2  -3 -12 732.200 12.6509   2
  -1  -3  12 446.140 15.5509   1
  -1  -3  12 476.003 20.1574   2
   1  -3 -12 511.299 10.9972   2
   1  -3 -12 453.921 15.3136   1
   0  -3 -12 175.291 7.20897   2
   0  -3 -12 162.296 9.85528   1
   0  -3  12 159.497 12.9164   2
   0  -3  12 157.373 9.90438   1
   1  -3  12 1798.90 35.6940   1
   1  -3  12 1718.73 42.2213   2
  -1  -3 -12 1767.20 35.5453   1
  -1  -3 -12 1665.33 31.8443   2
  -2  -3 -12 410.146 14.8369   1
  -2  -3 -12 390.312 13.2870   2
   2  -3  12 377.303 19.0049   2
   2  -3  12 419.226 15.2105   1
  -3  -3 -12 1.92744 3.29679   2
  -3  -3 -12 3.59865 3.87875   1
   3  -3  12 -2.6817 3.61839   1
  -4  -3 -12 330.295 13.7964   2
  -4  -3 -12 308.633 13.7352   1
   4  -3  12 335.737 14.1369   1
   5  -3  12 34.6463 6.28184   1
  -5  -3 -12 23.4346 5.90491   1
  -5  -3 -12 51.9083 7.63030   2
   6  -3  12 74.9619 8.29696   1
  -6  -3 -12 92.6604 10.0866   2
  -6  -3 -12 70.1667 8.53038   1
   7  -3  12 161.230 11.3553   1
  -7  -3 -12 183.824 13.0298   2
  -7  -3 -12 170.320 12.1329   1
   8  -3  12 1.39801 4.60077   1
  -8  -3 -12 5.53905 5.67258   2
  -8  -3 -12 -1.3185 4.53958   1
   9  -3  12 24.9721 6.67749   1
  -9  -3 -12 34.4184 7.23122   1
  -9  -3 -12 44.9188 7.72417   1
  -9  -3 -12 42.9945 9.17246   2
 -10  -3 -12 43.8871 8.13463   1
 -10  -3 -12 56.5449 8.68484   1
 -10  -3 -12 93.0464 12.6323   2
  10  -3  12 55.2784 8.79937   1
  11  -3  12 13.3256 6.52876   1
 -11  -3 -12 13.4864 6.57423   1
 -11  -3 -12 18.7056 6.82443   1
 -11  -3 -12 31.4156 8.34809   2
 -12  -3 -12 15.8701 6.64520   1
  12  -3  12 7.69892 6.02899   1
 -12  -3 -12 29.5664 8.94210   2
 -13  -3 -12 107.732 14.9945   2
  13  -3  12 48.2695 9.05910   1
 -13  -3 -12 77.7501 10.9749   1
  14  -3  12 74.4078 11.5691   1
 -14  -3 -12 116.287 16.9653   2
 -14  -3 -12 47.8500 9.66692   1
 -17  -4  12 -5.3975 5.30296   1
 -17  -4  12 5.34204 7.57283   2
  17  -4 -12 3.98025 5.63661   1
  16  -4 -12 -6.6605 4.77477   1
 -16  -4  12 -6.6386 5.81484   2
 -16  -4  12 1.25975 5.87177   1
 -15  -4  12 2.81345 5.74469   1
  15  -4 -12 -3.1772 4.67028   1
 -15  -4  12 -1.1743 6.04414   2
 -14  -4  12 37.8361 7.47528   1
 -14  -4  12 41.6256 10.0841   2
  14  -4 -12 37.6751 7.30023   1
 -13  -4  12 23.5486 6.48761   1
  13  -4 -12 16.7533 5.85934   1
 -13  -4  12 25.0793 8.79020   2
 -12  -4  12 105.487 13.9188   2
  12  -4 -12 75.7984 8.61607   1
 -12  -4  12 77.6695 9.13108   1
 -11  -4  12 6.39528 5.12245   1
  11  -4 -12 -0.2606 4.11745   1
 -11  -4  12 4.13937 6.46399   2
  10  -4 -12 209.693 11.4678   1
 -10  -4  12 192.149 15.7489   2
 -10  -4  12 189.433 11.8173   1
  -9  -4  12 23.1000 7.93151   2
   9  -4 -12 21.4305 5.02211   1
  -9  -4  12 23.0064 5.62997   1
   8  -4 -12 39.0573 6.02739   1
  -8  -4  12 41.4194 6.50861   1
  -8  -4  12 39.7480 9.16853   2
  -7  -4  12 -1.6299 5.32276   2
   7  -4 -12 1.17338 3.29620   1
  -7  -4  12 -1.0777 3.75897   1
  -6  -4  12 10.9517 6.87506   2
  -6  -4  12 18.7257 4.98118   1
   6  -4 -12 23.3511 4.80749   1
   5  -4 -12 3.96230 3.50955   1
  -5  -4  12 1.80797 3.59342   1
  -5  -4  12 4.20451 5.36403   2
  -4  -4  12 144.539 9.63567   1
  -4  -4  12 154.175 13.3177   2
   4  -4 -12 144.602 8.90318   1
  -3  -4  12 37.8216 8.79497   2
   3  -4 -12 17.6510 4.49071   1
  -3  -4  12 27.7169 5.37708   1
   2  -4 -12 63.5305 6.79631   1
  -2  -4  12 54.1101 6.53496   1
  -2  -4  12 61.2598 10.3793   2
  -1  -4  12 -0.0890 4.75964   2
   1  -4 -12 4.50546 3.78871   1
  -1  -4  12 -4.6398 3.41283   1
   0  -4 -12 90.3338 7.97546   1
   0  -4  12 114.632 13.2208   2
   0  -4  12 74.8455 7.54511   1
  -1  -4 -12 63.9341 7.32306   1
   1  -4  12 52.1074 9.60963   2
   1  -4  12 75.7991 7.57648   1
   2  -4  12 243.822 12.2719   1
   2  -4  12 238.037 17.3027   2
  -2  -4 -12 252.355 12.3686   1
   3  -4  12 8.17623 6.15712   2
  -3  -4 -12 0.58647 3.78916   1
   3  -4  12 4.35482 4.33040   1
   4  -4  12 42.9509 6.78241   1
  -4  -4 -12 37.6127 6.43231   1
   5  -4  12 87.1635 8.60372   1
  -5  -4 -12 77.8088 8.60256   1
  -5  -4 -12 120.085 10.0266   2
   6  -4  12 -7.9905 3.55797   1
  -6  -4 -12 14.3850 5.35347   2
  -6  -4 -12 1.23709 4.29106   1
   7  -4  12 2.42382 4.70742   1
  -7  -4 -12 6.67940 4.97362   1
   8  -4  12 38.6154 7.34493   1
  -8  -4 -12 36.9321 7.22601   1
  -8  -4 -12 75.9547 11.9520   2
  -9  -4 -12 44.0773 7.96174   1
   9  -4  12 46.9188 7.90331   1
  -9  -4 -12 69.3075 12.7874   2
  -9  -4 -12 51.1083 8.43738   1
 -10  -4 -12 -1.5162 5.22001   1
 -10  -4 -12 -6.4251 4.74218   1
  10  -4  12 -11.511 4.78407   1
 -10  -4 -12 3.66551 7.37141   2
 -11  -4 -12 44.5565 11.8525   2
 -11  -4 -12 23.4940 7.52436   1
  11  -4  12 27.9691 7.44143   1
 -12  -4 -12 13.0843 7.11786   1
  12  -4  12 10.9140 6.87031   1
 -14  -5  12 35.4356 7.91353   1
  14  -5 -12 27.3728 7.06347   1
 -14  -5  12 41.5264 12.1706   2
 -13  -5  12 3.94383 5.45698   1
 -13  -5  12 4.99584 7.45752   2
  13  -5 -12 -1.6767 4.70600   1
 -12  -5  12 10.5871 8.76135   2
  12  -5 -12 -0.4298 4.33101   1
 -12  -5  12 1.74145 5.11339   1
 -11  -5  12 30.9400 10.0145   2
 -11  -5  12 47.2284 8.07407   1
  11  -5 -12 30.0008 6.15586   1
 -10  -5  12 18.9176 5.84771   1
  10  -5 -12 21.1941 5.30256   1
 -10  -5  12 26.0219 9.84371   2
   9  -5 -12 26.9536 5.46941   1
  -9  -5  12 28.6427 9.82417   2
  -9  -5  12 20.5436 5.78410   1
   8  -5 -12 8.28524 4.21065   1
  -8  -5  12 10.5170 4.97248   1
  -8  -5  12 4.17440 7.05661   2
   7  -5 -12 26.0462 5.22762   1
  -7  -5  12 33.5495 9.83877   2
  -7  -5  12 18.1076 5.43071   1
   6  -5 -12 13.3830 4.56262   1
  -6  -5  12 4.60893 6.67801   2
  -6  -5  12 14.9504 5.03289   1
  -5  -5  12 26.5091 5.63638   1
   5  -5 -12 33.0382 5.52531   1
  -5  -5  12 27.6648 9.29612   2
   4  -5 -12 91.3148 7.89548   1
  -4  -5  12 153.010 16.5266   2
  -4  -5  12 113.928 9.31177   1
   3  -5 -12 -2.4920 3.38204   1
  -3  -5  12 -3.0521 3.77079   1
  -3  -5  12 -4.1667 6.28022   2
  -2  -5  12 2.88802 3.95097   1
   2  -5 -12 -2.0406 3.46276   1
  -2  -5  12 -2.6915 5.69246   2
   1  -5 -12 4.40822 3.71134   1
  -1  -5  12 1.61833 6.82847   2
  -1  -5  12 6.85606 4.33976   1
   0  -5  12 34.9358 6.28264   1
   0  -5  12 37.7576 9.38437   2
   0  -5 -12 38.7944 6.00898   1
   1  -5  12 45.5669 6.63162   1
  -1  -5 -12 46.1409 6.76619   1
   1  -5  12 64.3662 12.5173   2
   2  -5  12 5.03962 6.88521   2
   2  -5  12 5.88876 4.50237   1
  -2  -5 -12 -0.0482 3.97953   1
   5  -5  12 5.01368 4.79384   1
  -5  -5 -12 2.43609 4.69131   1
   9  -5  12 2.99397 5.70977   1
  -9  -5 -12 0.44572 5.01194   1
  -9  -5 -12 1.95730 5.26041   1
   9  -6 -12 13.4398 4.92052   1
  -9  -6  12 9.26709 8.91330   2
  -9  -6  12 7.29504 5.63204   1
   8  -6 -12 9.00777 4.55714   1
  -8  -6  12 14.6617 9.24494   2
  -8  -6  12 16.9457 5.94658   1
   7  -6 -12 5.99618 4.16879   1
  -7  -6  12 14.8996 9.13897   2
  -7  -6  12 4.55602 4.76077   1
  -6  -6  12 -2.2809 6.73444   2
   6  -6 -12 2.54170 3.61008   1
  -6  -6  12 -3.8989 4.05117   1
   5  -6 -12 48.0286 6.38397   1
  -5  -6  12 40.8307 7.18338   1
  -5  -6  12 35.8003 10.9413   2
  -4  -6  12 -2.9030 7.35499   2
   4  -6 -12 8.09449 4.09030   1
  -4  -6  12 2.29065 4.50732   1
   3  -6 -12 24.4427 5.20119   1
  -3  -6  12 31.3347 10.4007   2
  -3  -6  12 40.6712 6.77026   1
   2  -6 -12 46.1146 6.48598   1
  -2  -6  12 71.2973 13.3785   2
  -2  -6  12 67.7929 8.23792   1
  -1  -6  12 128.420 17.0240   2
  -1  -6  12 153.476 11.0845   1
   1  -6 -12 152.984 10.2959   1
   0  -6 -12 6.62103 4.45909   1
   0  -6  12 -2.3251 4.34581   1
   0  -6  12 1.83747 8.26904   2
  -1  -6 -12 178.943 11.4160   1
   1  -6  12 194.948 12.0659   1
   1  -6  12 196.071 21.1444   2
  -2  -6 -12 98.9855 9.30355   1
   2  -6  12 108.035 16.1362   2
   2  -6  12 119.543 10.2594   1
  -3  -6 -12 -0.6510 4.08653   1
   3  -6  12 -1.3752 7.32701   2
   3  -6  12 5.35807 4.73646   1
   4  -6  12 152.374 11.4893   1
  -4  -6 -12 168.478 12.1680   1
 -21   0  13 37.3034 7.04939   2
  21   0 -13 0.85540 6.45494   1
  20   0 -13 -7.0841 6.10883   1
 -20   0  13 21.5578 5.84146   2
 -19   0  13 9.53984 5.56768   2
  19   0 -13 -2.2949 5.42312   1
  18   0 -13 -0.2950 5.19243   1
 -18   0  13 1.29305 5.43596   1
 -18   0  13 1.93330 4.84866   2
  17   0 -13 -2.1343 4.71779   1
 -17   0  13 0.85987 4.72757   2
 -17   0  13 7.44330 5.11236   1
 -16   0  13 -1.9604 4.29355   1
 -16   0  13 6.06373 4.93593   2
  16   0 -13 -4.7513 4.56392   1
  15   0 -13 1.10736 4.48515   1
 -15   0  13 -2.1992 4.09353   1
 -15   0  13 -3.6456 3.80982   2
 -14   0  13 -6.6607 3.79297   1
  14   0 -13 -2.4265 4.36321   1
 -14   0  13 -1.7165 3.22598   3
 -14   0  13 4.51614 4.25856   2
 -13   0  13 -3.0060 3.59606   1
 -13   0  13 1.51357 4.06672   2
 -13   0  13 -0.0888 2.61235   3
  13   0 -13 -6.7043 3.96066   1
  12   0 -13 5.17709 4.19926   1
 -12   0  13 0.56090 2.51223   3
 -12   0  13 4.48244 3.88507   2
 -12   0  13 2.91425 3.98491   1
 -11   0  13 -0.4968 2.17232   3
 -11   0  13 -1.9755 3.02032   2
 -11   0  13 2.32778 3.50263   1
  11   0 -13 1.10513 3.70561   1
 -10   0  13 -0.9177 2.02753   3
 -10   0  13 3.25289 3.12678   2
  10   0 -13 -0.3149 3.42943   1
 -10   0  13 1.50039 3.34662   1
  -9   0  13 -1.5581 2.45327   2
  -9   0  13 -0.3675 2.04774   3
  -9   0  13 -0.9301 3.23777   1
   9   0 -13 -5.2174 3.06301   1
  -8   0  13 -4.6979 2.86482   1
  -8   0  13 0.08120 2.06053   3
   8   0 -13 -4.1208 3.04338   1
  -8   0  13 0.65054 2.53272   2
  -7   0  13 -1.2484 2.13757   2
  -7   0  13 -1.0777 3.02438   1
   7   0 -13 -2.6107 3.20561   1
   6   0 -13 -1.1917 3.00711   1
  -6   0  13 -2.2761 1.94320   2
  -6   0  13 -0.8659 2.75038   1
  -5   0  13 1.52665 2.12191   2
  -5   0  13 1.88058 3.20701   1
   5   0 -13 0.09239 3.09605   1
  -4   0  13 2.73790 3.17388   1
   4   0 -13 0.68382 3.26842   1
  -4   0  13 2.26615 2.32517   2
  -3   0  13 0.11317 3.07834   1
   3   0 -13 0.72536 3.04818   1
   2   0 -13 1.44875 2.95026   1
  -2   0  13 0.35212 3.02908   1
  -1   0  13 -0.2015 2.06619   3
   1   0 -13 3.98387 3.19400   1
  -1   0  13 -3.1227 2.99534   1
   0   0 -13 -0.8986 2.78792   1
   0   0  13 -0.1044 1.80876   3
   0   0  13 0.22379 3.15206   1
   1   0  13 4.70981 3.08933   1
   1   0  13 2.82657 2.18265   3
  -1   0 -13 6.47894 2.25305   3
  -1   0 -13 7.17732 3.34945   1
   2   0  13 -0.0532 1.97014   3
  -2   0 -13 1.55008 2.13696   3
  -2   0 -13 -0.0057 3.00149   1
   2   0  13 -4.7411 3.00767   1
   3   0  13 3.76322 2.60734   3
  -3   0 -13 -0.3649 3.33792   1
   3   0  13 -1.6395 3.33054   1
  -3   0 -13 4.55181 2.31031   3
   4   0  13 2.76960 2.60762   3
  -4   0 -13 2.78846 3.34907   1
  -4   0 -13 1.18653 2.44988   3
   4   0  13 -1.2513 3.23151   1
   5   0  13 0.76407 3.08445   3
   5   0  13 4.90604 4.27399   1
  -5   0 -13 -3.5100 3.48905   1
  -5   0 -13 5.85048 2.82129   3
   6   0  13 8.73494 4.54715   1
  -6   0 -13 3.36250 3.00418   3
  -6   0 -13 0.32853 4.12963   1
  -7   0 -13 5.74344 4.49405   1
   7   0  13 -3.3506 4.06652   1
  -7   0 -13 0.78571 3.02193   3
  -8   0 -13 -3.5538 2.45675   3
  -8   0 -13 2.31239 4.45107   1
  -8   0 -13 -7.7604 3.53952   1
   8   0  13 -3.3006 4.07904   1
  -9   0 -13 -1.0812 2.70195   3
  -9   0 -13 -7.9549 3.98453   1
  -9   0 -13 -2.4331 4.08861   1
   9   0  13 -4.8597 4.21949   1
  10   0  13 0.67973 4.77398   1
 -10   0 -13 1.80871 3.30057   3
 -10   0 -13 4.59287 5.28165   1
 -11   0 -13 -3.3268 4.52204   1
  11   0  13 0.80724 5.06313   1
 -12   0 -13 2.47308 5.29138   1
  12   0  13 -2.2264 4.99625   1
 -13   0 -13 4.39677 5.47442   1
  13   0  13 -0.9669 5.72839   1
  14   0  13 2.99435 6.23269   1
 -14   0 -13 6.72900 5.88489   1
  15   0  13 12.4885 7.21272   1
 -20  -1  13 0.64836 5.75628   1
 -20  -1  13 17.0517 7.46536   2
  20  -1 -13 -11.477 5.68216   1
  20   1 -13 0.30339 6.01649   1
  19  -1 -13 -7.0472 5.72860   1
 -19  -1  13 -6.3262 5.20432   1
 -19  -1  13 -3.4293 5.34845   2
 -19  -1  13 -0.8799 4.25358   3
  19   1 -13 -4.4095 5.25856   1
 -18  -1  13 4.48293 3.43029   3
 -18  -1  13 -1.2912 5.21912   1
 -18  -1  13 2.27899 5.58616   2
  18  -1 -13 3.50884 5.97087   1
  18   1 -13 3.43670 5.60245   1
 -17  -1  13 76.0427 7.92740   3
  17  -1 -13 66.9718 9.86221   1
 -17  -1  13 80.2263 10.0939   1
 -17  -1  13 70.7066 10.8677   2
 -17   1  13 102.269 9.97678   2
  17   1 -13 63.6939 9.32417   1
 -16  -1  13 202.253 10.6335   3
  16  -1 -13 212.173 14.1282   1
 -16  -1  13 203.886 13.2200   1
 -16  -1  13 200.772 14.9395   2
  16   1 -13 205.557 13.5100   1
 -16   1  13 215.197 12.9617   2
 -15  -1  13 4.79575 5.38397   2
 -15  -1  13 10.2823 5.48816   1
  15  -1 -13 5.06977 5.56080   1
 -15  -1  13 3.94249 3.06469   3
  15   1 -13 5.96519 5.16726   1
 -15   1  13 9.91831 4.45119   2
 -14  -1  13 1216.49 33.3745   2
  14  -1 -13 1167.91 31.0126   1
 -14  -1  13 1172.58 30.3558   1
 -14  -1  13 1227.76 26.8746   3
 -14   1  13 1172.65 28.9896   2
  14   1 -13 1193.23 30.7602   1
 -14   1  13 1173.66 30.7561   1
 -13  -1  13 1075.40 27.9444   1
 -13  -1  13 1053.39 24.0417   3
  13  -1 -13 1095.26 28.7221   1
 -13  -1  13 1021.78 29.4345   2
 -13   1  13 1038.26 25.6528   2
  13   1 -13 1015.03 27.6959   1
 -13   1  13 1037.23 25.9418   1
 -12  -1  13 30.3232 6.47882   2
 -12  -1  13 21.4411 5.31667   1
 -12  -1  13 22.9753 4.19058   3
  12  -1 -13 23.2099 5.73644   1
  12   1 -13 30.9110 6.07667   1
 -12   1  13 32.1566 5.54199   1
 -12   1  13 32.1845 5.07720   2
 -11  -1  13 48.4146 5.12656   3
 -11  -1  13 50.1348 7.51123   2
  11  -1 -13 45.7015 6.64367   1
 -11  -1  13 54.3286 7.16252   1
 -11   1  13 47.7287 6.35880   1
  11   1 -13 37.0367 6.21469   1
 -11   1  13 55.8868 5.79025   2
 -10  -1  13 11.9548 4.40675   1
 -10  -1  13 16.9318 3.55630   3
  10  -1 -13 11.3827 4.70831   1
 -10  -1  13 11.2118 4.53555   2
 -10   1  13 14.6643 3.37724   2
 -10   1  13 16.6094 3.48299   3
  10   1 -13 12.3894 4.38784   1
 -10   1  13 10.6132 3.89129   1
   9  -1 -13 10.5255 4.20571   1
  -9  -1  13 9.68969 4.13317   2
  -9  -1  13 13.5329 2.96002   3
  -9  -1  13 5.15210 3.73678   1
   9   1 -13 8.67891 4.05700   1
  -9   1  13 12.9835 2.85965   2
  -9   1  13 12.9482 4.07964   1
   8  -1 -13 16.2708 4.52158   1
  -8  -1  13 26.2021 4.78276   1
  -8  -1  13 29.4548 4.02247   3
  -8  -1  13 31.1230 5.51169   2
  -8  -1  13 36.3030 4.38388   3
  -8   1  13 31.7435 5.03025   1
   8   1 -13 21.0193 4.66672   1
  -8   1  13 28.6960 2.96050   2
  -7  -1  13 4.56648 2.56506   3
  -7  -1  13 2.62775 3.44165   1
   7  -1 -13 -0.2662 3.04210   1
  -7  -1  13 3.02151 3.18380   2
  -7  -1  13 0.31248 1.90514   3
   7   1 -13 1.67674 3.06211   1
  -7   1  13 2.58120 2.80687   1
  -6  -1  13 -0.5168 1.96770   3
  -6  -1  13 0.37428 1.90726   3
  -6  -1  13 -0.9755 3.01242   1
   6  -1 -13 -2.8416 2.77239   1
  -6  -1  13 3.09826 2.98483   2
   6   1 -13 2.01640 2.82662   1
  -6   1  13 2.87163 2.89938   1
  -5  -1  13 403.664 13.7697   2
  -5  -1  13 386.812 13.7324   1
  -5  -1  13 399.088 11.5187   3
   5  -1 -13 387.963 13.9451   1
  -5  -1  13 405.870 11.8123   3
   5   1 -13 414.427 13.9718   1
  -5   1  13 399.688 13.0870   1
   4  -1 -13 28.4242 4.95354   1
  -4  -1  13 24.8376 4.63591   2
  -4  -1  13 27.9100 3.80509   3
  -4  -1  13 26.4283 3.37538   3
  -4  -1  13 21.2038 4.60987   1
   4   1 -13 30.1403 4.87734   1
  -4   1  13 27.5792 4.50607   1
  -3  -1  13 183.315 9.69527   1
   3  -1 -13 187.674 9.71090   1
  -3  -1  13 185.870 7.73050   3
  -3  -1  13 198.243 9.83585   2
   3   1 -13 233.275 10.1533   1
  -3   1  13 211.777 9.62542   1
   2  -1 -13 4.09198 3.20329   1
  -2  -1  13 -1.7611 2.94588   1
  -2  -1  13 -0.7325 2.77228   2
  -2  -1  13 -2.0265 1.72052   3
  -2   1  13 -2.2108 2.71544   1
   2   1 -13 -4.6334 2.33016   1
  -1  -1  13 580.875 14.1741   3
  -1  -1  13 560.696 17.0189   2
  -1  -1  13 543.960 16.6154   1
   1  -1 -13 548.774 16.7323   1
   1   1 -13 542.552 14.4981   3
   1   1 -13 565.556 16.4316   1
  -1   1  13 556.770 16.0547   1
   0  -1  13 377.586 13.7691   1
   0  -1  13 379.489 11.2405   3
   0  -1 -13 413.768 14.3838   1
   0   1 -13 386.549 11.9989   3
   0   1 -13 395.826 13.4989   1
   0   1  13 396.108 13.3411   1
   1  -1  13 7.52698 2.61268   3
  -1  -1 -13 9.44043 3.85741   1
   1  -1  13 10.2123 3.96336   1
  -1   1 -13 7.70322 3.03870   3
   1   1  13 7.55934 3.50005   1
  -1   1 -13 5.16158 3.38901   1
  -2  -1 -13 47.1929 6.21254   1
   2  -1  13 58.4580 6.97061   1
   2  -1  13 50.5710 4.76149   3
  -2   1 -13 53.6379 6.22064   1
   2   1  13 51.0309 6.11533   1
  -2   1 -13 49.8786 5.24239   3
   3  -1  13 39.5264 5.71597   1
  -3  -1 -13 38.5829 5.80327   1
   3  -1  13 45.1082 4.61097   3
  -3   1 -13 42.0056 5.85070   1
   3   1  13 35.0262 5.47483   1
  -3   1 -13 50.8048 5.21587   3
  -4  -1 -13 196.427 11.1486   1
   4  -1  13 211.065 8.52183   3
   4  -1  13 180.457 10.8680   1
  -4  -1 -13 215.182 8.87042   3
  -4   1 -13 195.292 9.18715   3
  -4   1 -13 188.409 10.5176   1
   4   1  13 192.408 10.5251   1
  -5  -1 -13 12.0879 3.55626   3
  -5  -1 -13 13.1478 4.87083   1
   5  -1  13 14.7883 3.43048   3
   5  -1  13 13.6723 5.07344   1
  -5   1 -13 8.11445 4.26758   1
   5   1  13 11.5653 4.51323   1
  -5   1 -13 8.54789 3.36471   3
  -6  -1 -13 20.6131 5.43024   1
  -6  -1 -13 20.8014 4.03523   3
   6  -1  13 18.8639 3.77099   3
   6  -1  13 22.2063 5.92988   1
  -6   1 -13 15.9723 3.87794   3
   6   1  13 22.3205 5.84429   1
  -6   1 -13 26.7837 5.47678   1
  -7  -1 -13 55.9147 7.79696   1
   7  -1  13 50.4870 5.31444   3
   7  -1  13 48.4666 7.74423   1
  -7  -1 -13 53.0072 5.79015   3
   7   1  13 49.9225 7.10169   1
  -7   1 -13 60.8630 7.59948   1
  -7   1 -13 67.0109 7.85907   1
  -8  -1 -13 43.7504 7.32003   1
  -8  -1 -13 46.2235 5.53940   3
   8  -1  13 54.9823 5.65914   3
   8  -1  13 42.4328 7.14617   1
  -8   1 -13 48.3895 7.06145   1
  -8   1 -13 51.9081 7.46062   1
   8   1  13 63.7776 8.31743   1
   9  -1  13 145.661 11.8107   1
  -9  -1 -13 142.772 11.2922   1
  -9  -1 -13 131.500 8.69765   3
   9  -1  13 157.233 8.47120   3
  -9  -1 -13 155.879 11.7669   1
   9   1  13 151.449 11.3681   1
  -9   1 -13 143.421 10.6306   1
 -10  -1 -13 2.61187 3.45115   3
 -10  -1 -13 11.6299 5.33351   1
  10  -1  13 1.81591 3.18497   3
 -10  -1 -13 -2.7022 4.76125   1
  10  -1  13 4.78960 5.74187   1
 -10   1 -13 0.15353 4.84930   1
  10   1  13 -0.1836 5.07976   1
 -11  -1 -13 0.46299 3.25843   3
 -11  -1 -13 4.13292 4.93491   1
  11  -1  13 1.03267 4.91937   1
  11   1  13 2.44921 5.18405   1
 -12  -1 -13 11.7232 6.37988   1
  12  -1  13 14.6590 6.78885   1
 -12  -1 -13 8.27009 3.91021   3
  12   1  13 13.2748 6.00977   1
  13  -1  13 10.7994 6.88625   1
 -13  -1 -13 0.15752 5.13073   1
 -13  -1 -13 0.76523 3.45051   3
  13   1  13 -0.8493 5.06806   1
  14  -1  13 -4.7332 5.64943   1
 -14  -1 -13 4.42864 3.83616   3
 -14  -1 -13 2.07834 5.63683   1
  14   1  13 1.83372 6.20373   1
  15  -1  13 19.0136 7.47018   1
 -15  -1 -13 20.2472 8.04221   1
 -15  -1 -13 21.3257 5.36896   3
 -20  -2  13 12.8581 4.46306   3
  20  -2 -13 10.5720 7.24244   1
 -20  -2  13 -1.5983 6.16712   1
 -20  -2  13 16.1857 8.08348   2
 -19  -2  13 1.39893 3.08707   3
 -19  -2  13 -4.3720 5.43285   2
 -19  -2  13 1.89940 6.23011   1
  19  -2 -13 -4.5564 5.52493   1
 -18  -2  13 24.4153 4.91354   3
 -18  -2  13 22.1015 8.44728   2
  18  -2 -13 26.4592 8.09419   1
 -18  -2  13 27.8944 7.79318   1
 -17  -2  13 31.9166 8.66683   2
 -17  -2  13 22.5750 7.03805   1
 -17  -2  13 23.2824 4.87068   3
  17  -2 -13 27.6314 7.63438   1
  16  -2 -13 146.393 13.0948   1
 -16  -2  13 131.901 12.0328   1
 -16  -2  13 164.979 9.18527   3
 -16  -2  13 154.104 14.4071   2
 -15  -2  13 339.437 12.7065   3
 -15  -2  13 309.781 18.6339   2
  15  -2 -13 372.506 17.3439   1
 -15  -2  13 407.680 18.0216   1
  15   2 -13 347.756 17.3418   1
  14  -2 -13 -2.5396 4.52034   1
 -14  -2  13 0.59614 5.30305   2
 -14  -2  13 1.12588 2.74178   3
 -14  -2  13 6.01731 5.02888   1
  14   2 -13 -5.7018 4.16781   1
 -13  -2  13 -2.0980 5.00440   2
 -13  -2  13 -0.2505 2.47249   3
 -13  -2  13 3.02873 4.62378   1
 -13  -2  13 -1.6752 2.60569   3
  13  -2 -13 0.19425 4.49130   1
  13   2 -13 -5.6841 3.71208   1
  12  -2 -13 95.8951 9.57139   1
 -12  -2  13 110.373 7.17099   3
 -12  -2  13 101.454 6.91345   3
 -12  -2  13 108.680 9.94563   1
 -12  -2  13 111.854 12.0887   2
  12   2 -13 115.306 10.0264   1
 -11  -2  13 0.89030 2.26599   3
 -11  -2  13 0.38823 3.91930   1
 -11  -2  13 2.05873 2.47196   3
 -11  -2  13 4.45991 5.07292   2
  11  -2 -13 9.52012 4.58447   1
  11   2 -13 -7.1889 3.02029   1
 -10  -2  13 777.994 22.4825   1
 -10  -2  13 761.485 17.9579   3
 -10  -2  13 765.496 17.8059   3
  10  -2 -13 796.612 22.3805   1
 -10  -2  13 779.530 25.2953   2
  10   2 -13 779.388 21.5980   1
  -9  -2  13 136.632 9.80321   1
  -9  -2  13 139.367 11.1573   2
  -9  -2  13 143.884 7.16630   3
  -9  -2  13 148.223 7.07260   3
   9  -2 -13 149.194 9.79299   1
   9   2 -13 139.915 9.29146   1
  -8  -2  13 739.569 16.5851   3
  -8  -2  13 716.811 16.2430   3
  -8  -2  13 670.913 22.5529   2
   8  -2 -13 734.264 20.4644   1
  -8  -2  13 752.170 20.9523   1
   8   2 -13 713.671 19.7596   1
  -8   2  13 703.905 19.8358   1
   7  -2 -13 19.3150 4.78641   1
  -7  -2  13 19.2842 3.07686   3
  -7  -2  13 25.0646 3.48573   3
  -7  -2  13 24.7248 5.17825   1
  -7  -2  13 22.1340 5.76295   2
  -7   2  13 19.7719 3.93209   1
   7   2 -13 15.2367 4.17541   1
  -6  -2  13 490.715 16.0931   1
  -6  -2  13 463.366 12.0167   3
  -6  -2  13 487.163 12.2554   3
   6  -2 -13 498.094 16.1047   1
  -6  -2  13 451.367 17.6559   2
   6   2 -13 490.896 15.2781   1
  -6   2  13 480.462 13.8326   1
  -5  -2  13 199.294 11.9016   2
  -5  -2  13 199.539 7.29796   3
  -5  -2  13 228.429 10.9647   1
  -5  -2  13 220.791 7.70377   3
   5  -2 -13 212.769 10.4745   1
   5   2 -13 224.257 10.1617   1
  -5   2  13 218.731 9.13646   1
  -4  -2  13 41.5108 3.90171   3
  -4  -2  13 49.6849 3.98215   3
  -4  -2  13 50.8088 7.35835   2
   4  -2 -13 47.3636 5.94120   1
  -4  -2  13 36.1775 5.35975   1
  -4   2  13 44.9864 5.14826   1
   4   2 -13 46.8209 5.59146   1
  -3  -2  13 91.9141 4.96341   3
  -3  -2  13 93.3968 7.58647   1
  -3  -2  13 76.3216 8.33777   2
   3  -2 -13 103.250 7.67215   1
  -3  -2  13 84.4351 4.73305   3
  -3   2  13 91.4688 6.42556   1
   3   2 -13 92.1029 6.98293   1
  -2  -2  13 16.3169 4.56881   1
   2  -2 -13 16.3476 4.39386   1
  -2  -2  13 10.7971 2.44668   3
  -2  -2  13 14.9426 2.51186   3
  -2  -2  13 18.4520 5.21337   2
  -2   2  13 18.3904 3.80657   1
   2   2 -13 13.8132 3.73023   1
  -1  -2  13 12.6636 4.79375   2
   1  -2 -13 12.3294 4.08466   1
  -1  -2  13 14.4457 2.58778   3
  -1  -2  13 15.4952 4.39338   1
  -1  -2  13 17.0637 2.67987   3
   1   2 -13 9.16867 3.45044   1
  -1   2  13 12.0884 3.56741   1
   0  -2 -13 97.6886 7.87989   1
   0  -2  13 85.5701 4.65240   3
   0  -2  13 91.0074 7.90666   1
   0  -2  13 85.1121 4.70712   3
   0  -2 -13 100.443 4.71869   2
   0  -2  13 75.5325 8.54628   2
   0   2 -13 86.3789 7.17397   1
   0   2  13 89.6546 7.00312   1
   1  -2  13 87.0193 4.65416   3
  -1  -2 -13 84.4622 7.81478   1
  -1  -2 -13 98.4170 5.63106   2
   1  -2  13 94.8690 8.55536   1
   1  -2  13 84.6445 4.76711   3
  -1   2 -13 78.9113 7.03487   1
   1   2  13 87.7183 7.23859   1
   2  -2  13 514.376 11.9828   3
   2  -2  13 536.152 12.0135   3
  -2  -2 -13 547.056 17.4853   1
   2  -2  13 528.137 17.1758   1
  -2  -2 -13 492.762 14.3659   2
   2   2  13 506.025 15.4174   1
  -2   2 -13 536.286 15.7627   1
  -3  -2 -13 313.745 13.4807   1
   3  -2  13 291.054 13.1453   1
  -3  -2 -13 286.095 12.5782   2
   3  -2  13 285.373 8.56910   3
   3   2  13 286.043 11.6502   1
  -3   2 -13 298.374 11.8546   1
  -4  -2 -13 170.622 10.8113   1
  -4  -2 -13 123.198 11.8638   2
   4  -2  13 144.638 6.25611   3
   4  -2  13 136.282 9.97733   1
  -4   2 -13 142.091 8.89209   1
   4   2  13 141.607 9.18454   1
  -5  -2 -13 218.636 12.5473   1
   5  -2  13 203.630 12.0311   1
   5  -2  13 200.576 7.42391   3
  -5   2 -13 193.317 10.7515   1
  -5   2 -13 207.964 10.8571   1
   5   2  13 207.698 10.8751   1
  -6  -2 -13 249.103 13.5293   1
   6  -2  13 238.975 13.4698   1
   6  -2  13 222.044 7.87240   3
   6   2  13 232.369 11.6922   1
   7  -2  13 263.810 8.62389   3
   7  -2  13 254.198 13.7867   1
  -7  -2 -13 265.277 14.2195   1
   7   2  13 297.103 14.5270   1
   8  -2  13 276.955 14.7148   1
   8  -2  13 262.438 8.65243   3
  -8  -2 -13 262.815 14.5557   1
  -9  -2 -13 189.062 13.0775   1
   9  -2  13 169.422 7.12173   3
   9  -2  13 163.415 12.6341   1
  -9  -2 -13 168.467 8.53765   3
 -10  -2 -13 19.5211 4.11154   3
 -10  -2 -13 19.7228 6.23848   1
  10  -2  13 20.9136 6.61846   1
 -10  -2 -13 16.7556 6.25832   1
  10  -2  13 16.6567 3.10633   3
 -11  -2 -13 51.6113 5.64811   3
 -11  -2 -13 51.1679 8.60449   1
  11  -2  13 42.9294 8.30007   1
  11  -2  13 42.7596 4.28466   3
 -11  -2 -13 48.2844 8.55345   1
  12  -2  13 93.2172 11.4069   1
  12  -2  13 83.4330 5.46778   3
 -12  -2 -13 66.4048 6.60545   3
 -12  -2 -13 60.5604 9.81723   1
  13  -2  13 31.2206 8.18856   1
 -13  -2 -13 18.5826 4.48413   3
 -13  -2 -13 22.6975 7.76748   1
  13  -2  13 20.6377 3.28718   3
 -14  -2 -13 26.2898 5.02149   3
 -14  -2 -13 28.0046 8.13927   1
  14  -2  13 22.8932 7.97932   1
  14  -2  13 28.6763 3.60145   3
  15  -2  13 -1.0765 2.23903   3
 -18  -3  13 -0.4248 2.94100   3
 -18  -3  13 0.01974 6.26817   2
  18  -3 -13 -4.6818 5.49997   1
 -18  -3  13 -4.2409 2.32862   3
 -18  -3  13 -9.3123 5.41006   1
  17  -3 -13 43.9495 8.64919   1
 -17  -3  13 33.5753 4.72078   3
 -17  -3  13 39.2676 9.96970   2
 -17  -3  13 32.0503 8.27259   1
 -16  -3  13 26.4112 4.11440   3
  16  -3 -13 33.4882 7.80444   1
 -16  -3  13 9.36449 6.41292   1
 -16  -3  13 28.9516 9.03684   2
 -16  -3  13 22.1770 3.71661   3
 -15  -3  13 229.999 8.80898   3
 -15  -3  13 212.465 8.70968   3
  15  -3 -13 221.350 13.9974   1
 -15  -3  13 178.553 13.9402   1
 -15  -3  13 228.699 17.6562   2
 -14  -3  13 8.02140 2.58047   3
 -14  -3  13 0.69739 5.04452   1
 -14  -3  13 4.46298 2.42254   3
 -14  -3  13 9.43428 6.54393   2
  14  -3 -13 7.86283 5.29151   1
 -13  -3  13 76.7199 5.40946   3
 -13  -3  13 79.6051 5.17873   3
  13  -3 -13 87.4068 9.73819   1
 -13  -3  13 74.9116 9.31418   1
 -13  -3  13 86.9235 12.3252   2
  12  -3 -13 172.708 11.4536   1
 -12  -3  13 158.254 12.1403   1
 -12  -3  13 150.437 6.41490   3
 -12  -3  13 149.165 6.25430   3
 -12  -3  13 118.583 13.0833   2
  11  -3 -13 27.2680 5.93363   1
 -11  -3  13 24.4305 3.03295   3
 -11  -3  13 27.7649 3.01225   3
 -11  -3  13 28.2391 6.28957   1
 -11  -3  13 17.7389 6.83232   2
  10  -3 -13 82.8210 8.46949   1
 -10  -3  13 96.3433 12.0993   2
 -10  -3  13 90.5232 4.39361   3
 -10  -3  13 72.8226 8.21470   1
 -10  -3  13 75.7945 4.27809   3
   9  -3 -13 488.786 16.6942   1
  -9  -3  13 441.637 9.57994   3
  -9  -3  13 445.467 20.6902   2
  -9  -3  13 471.475 17.2954   1
  -9  -3  13 468.854 9.81240   3
  -8  -3  13 34.2139 8.05116   2
   8  -3 -13 24.7699 5.10832   1
  -8  -3  13 41.8746 6.66086   1
   7  -3 -13 278.240 12.4629   1
  -7  -3  13 274.520 16.1672   2
  -7  -3  13 296.254 13.1843   1
  -6  -3  13 95.9992 8.52072   1
   6  -3 -13 109.767 8.46999   1
  -6  -3  13 99.5863 11.0353   2
   5  -3 -13 94.9874 8.28652   1
  -5  -3  13 81.9555 7.99846   1
  -5  -3  13 94.5306 10.7054   2
  -4  -3  13 93.9790 11.0331   2
  -4  -3  13 71.8216 7.33297   1
   4  -3 -13 79.7985 7.59284   1
  -3  -3  13 9.07693 4.27904   1
  -3  -3  13 4.23237 5.53380   2
   3  -3 -13 8.35631 4.13542   1
   2  -3 -13 143.141 9.48617   1
  -2  -3  13 153.036 9.99014   1
  -2  -3  13 136.675 12.2557   2
   1  -3 -13 202.979 11.0626   1
  -1  -3  13 207.337 11.4284   1
   1  -3 -13 273.110 6.89208   2
  -1  -3  13 198.534 13.5577   2
   0  -3 -13 43.0389 6.16570   1
   0  -3  13 39.3038 6.09390   1
   0  -3  13 46.1468 8.69863   2
  -1  -3 -13 27.2624 5.37988   1
   1  -3  13 28.4505 5.44054   1
   1  -3  13 30.1148 7.47321   2
  -2  -3 -13 17.7750 3.89897   2
  -2  -3 -13 13.8066 4.77531   1
   2  -3  13 13.1028 4.88572   1
  -3  -3 -13 176.402 9.43391   2
   3  -3  13 147.576 10.2520   1
  -3  -3 -13 150.906 10.6218   1
  -4  -3 -13 12.3937 5.13110   1
  -4  -3 -13 24.8685 5.17216   2
   4  -3  13 7.43272 4.82513   1
  -5  -3 -13 41.4737 7.07912   2
  -5  -3 -13 20.3860 5.82226   1
   5  -3  13 30.8699 6.33634   1
   6  -3  13 30.4127 6.55970   1
  -6  -3 -13 33.9584 6.75644   1
  -6  -3 -13 53.7526 8.23317   2
   7  -3  13 174.222 12.1646   1
  -7  -3 -13 202.405 13.5002   2
  -7  -3 -13 168.487 12.5100   1
  -8  -3 -13 20.7249 7.18300   2
   8  -3  13 8.90999 5.46415   1
  -8  -3 -13 11.3723 5.92616   1
  -9  -3 -13 19.3173 6.88160   2
  -9  -3 -13 3.99673 5.02560   1
   9  -3  13 0.93195 5.10554   1
 -10  -3 -13 29.6549 7.33324   2
  10  -3  13 11.4614 6.38090   1
 -10  -3 -13 19.7104 6.95741   1
 -10  -3 -13 19.8732 6.78557   1
  11  -3  13 10.1421 6.31584   1
 -11  -3 -13 1.13072 5.02256   1
 -11  -3 -13 32.7967 8.17482   2
 -11  -3 -13 -0.6432 5.50295   1
 -12  -3 -13 18.1438 7.44191   2
 -12  -3 -13 1.29779 5.72515   1
  12  -3  13 2.08261 6.06553   1
 -13  -3 -13 6.86917 6.70822   1
 -13  -3 -13 29.8858 9.52662   2
  13  -3  13 7.78286 6.81963   1
 -16  -4  13 -10.917 5.63995   2
 -16  -4  13 -2.7904 5.71717   1
  16  -4 -13 0.09040 5.52911   1
 -15  -4  13 5.04989 6.17068   1
  15  -4 -13 11.0372 5.89374   1
 -15  -4  13 15.0078 8.28124   2
 -14  -4  13 79.4111 9.94590   1
 -14  -4  13 107.667 14.9885   2
  14  -4 -13 99.3519 10.4617   1
 -13  -4  13 5.81350 7.19407   2
 -13  -4  13 9.73098 5.63494   1
  13  -4 -13 8.56835 5.10479   1
 -12  -4  13 81.4781 10.0274   1
 -12  -4  13 84.6123 13.0665   2
  12  -4 -13 106.399 10.1545   1
  11  -4 -13 348.861 15.4163   1
 -11  -4  13 342.553 16.0682   1
 -11  -4  13 345.187 21.1735   2
 -10  -4  13 79.2099 12.3060   2
 -10  -4  13 63.5729 8.15348   1
  10  -4 -13 60.8548 7.70842   1
   9  -4 -13 32.9675 6.06467   1
  -9  -4  13 28.7548 8.27990   2
  -9  -4  13 40.5585 6.94898   1
  -8  -4  13 1.78681 4.17830   1
  -8  -4  13 -5.9360 5.32868   2
   8  -4 -13 -4.4196 3.26682   1
  -7  -4  13 4.57005 4.25638   1
  -7  -4  13 -0.7807 5.92163   2
   7  -4 -13 4.89880 3.92213   1
   6  -4 -13 6.46146 3.92014   1
  -6  -4  13 -1.9183 4.71719   2
  -6  -4  13 3.31171 4.01343   1
  -5  -4  13 58.1309 10.4593   2
  -5  -4  13 62.5693 7.50450   1
   5  -4 -13 52.7702 6.59923   1
   4  -4 -13 31.6229 5.39078   1
  -4  -4  13 35.2789 8.85387   2
  -4  -4  13 24.7672 5.29889   1
  -3  -4  13 23.1019 5.36992   1
   3  -4 -13 16.5848 4.50949   1
  -3  -4  13 19.9469 7.67221   2
  -2  -4  13 13.4591 6.81221   2
   2  -4 -13 14.1045 4.57982   1
  -2  -4  13 6.69283 4.14795   1
   1  -4 -13 18.3277 5.04440   1
  -1  -4  13 22.9382 7.21938   2
  -1  -4  13 16.8995 5.14582   1
   0  -4 -13 48.3583 6.66106   1
   0  -4  13 49.5088 10.0048   2
   0  -4  13 49.6153 6.84376   1
  -1  -4 -13 502.557 17.2737   1
   1  -4  13 472.681 17.0810   1
   1  -4  13 473.595 23.4431   2
  -2  -4 -13 93.2641 8.92056   1
   2  -4  13 122.315 9.96740   1
   2  -4  13 109.760 13.8118   2
  -3  -4 -13 134.451 10.4496   1
   3  -4  13 155.366 10.7621   1
   5  -4  13 250.030 13.3468   1
  -5  -4 -13 261.255 13.8904   1
   9  -4  13 3.41255 5.81985   1
  -9  -4 -13 13.5614 6.05104   1
  -9  -4 -13 11.6389 6.10875   1
 -10  -4 -13 7.78472 6.23750   1
  10  -4  13 -2.4467 5.48760   1
 -10  -4 -13 -5.0874 5.18417   1
  11  -4  13 61.7526 10.0228   1
 -11  -4 -13 51.9154 9.22011   1
 -13  -5  13 65.5875 9.87371   1
  13  -5 -13 66.9138 9.05001   1
 -13  -5  13 67.8603 13.7506   2
 -12  -5  13 -5.0344 4.53949   1
 -12  -5  13 7.20511 8.06270   2
  12  -5 -13 -5.0123 4.40239   1
 -11  -5  13 74.2500 13.7787   2
 -11  -5  13 46.8747 8.00196   1
  11  -5 -13 58.9877 7.76973   1
 -10  -5  13 109.935 15.5206   2
  10  -5 -13 85.7368 8.85993   1
 -10  -5  13 91.4218 9.99613   1
  -9  -5  13 0.54795 7.10254   2
  -9  -5  13 -5.5397 4.13026   1
   9  -5 -13 1.24041 3.93332   1
  -8  -5  13 35.6628 10.0041   2
  -8  -5  13 35.8923 6.93788   1
   8  -5 -13 39.9068 6.20252   1
  -7  -5  13 30.9878 6.42739   1
   7  -5 -13 44.6433 6.56162   1
  -7  -5  13 47.7875 11.5042   2
  -6  -5  13 139.751 16.1740   2
  -6  -5  13 159.366 11.1266   1
   6  -5 -13 149.209 10.0071   1
   5  -5 -13 71.2345 7.63630   1
  -5  -5  13 99.9312 14.6906   2
  -5  -5  13 79.3834 8.59351   1
  -4  -5  13 206.318 12.1318   1
  -4  -5  13 210.462 18.2742   2
   4  -5 -13 226.082 11.6817   1
   3  -5 -13 147.720 10.0076   1
  -3  -5  13 145.923 16.5073   2
  -3  -5  13 141.746 10.7400   1
  -2  -5  13 18.2274 5.53472   1
   2  -5 -13 10.6613 4.69296   1
  -2  -5  13 32.0533 10.1457   2
  -1  -5  13 490.697 17.6215   1
   1  -5 -13 472.391 16.9183   1
  -1  -5  13 423.152 23.6754   2
   0  -5  13 191.146 11.7922   1
   0  -5  13 208.073 18.4315   2
   0  -5 -13 185.713 11.2924   1
   1  -5  13 82.4586 8.60422   1
  -1  -5 -13 83.5481 8.83453   1
   1  -5  13 71.8067 13.3686   2
  -2  -5 -13 260.143 13.8456   1
   2  -5  13 271.791 13.7633   1
   2  -5  13 244.739 19.2541   2
   3  -5  13 9.28018 5.06700   1
  -3  -5 -13 3.51167 4.81022   1
   4  -5  13 76.2863 8.77776   1
  -4  -5 -13 63.3432 8.39969   1
   5  -5  13 50.5894 7.85493   1
  -5  -5 -13 38.0175 7.45386   1
  -6  -5 -13 192.859 13.4405   1
   6  -5  13 181.188 12.7566   1
  -7  -5 -13 6.72008 5.76567   1
   7  -5  13 3.88555 5.48812   1
  -8  -6  13 1.45336 7.40566   2
   8  -6 -13 5.74245 4.50820   1
  -8  -6  13 2.22365 5.24132   1
   7  -6 -13 -2.6661 3.67536   1
  -7  -6  13 1.12149 8.13728   2
  -7  -6  13 3.14334 5.17256   1
  -6  -6  13 -3.5525 8.40421   2
  -6  -6  13 9.59213 5.46618   1
   6  -6 -13 10.4750 4.71813   1
   5  -6 -13 4.17771 4.44836   1
  -5  -6  13 1.07718 4.82304   1
  -5  -6  13 0.71998 8.34556   2
  -4  -6  13 42.7858 12.0046   2
  -4  -6  13 32.9631 7.01050   1
   4  -6 -13 24.8160 5.63220   1
  -3  -6  13 4.79173 5.13152   1
  -3  -6  13 14.9291 9.07796   2
   3  -6 -13 11.1123 4.75373   1
   2  -6 -13 41.4132 6.83962   1
  -2  -6  13 50.6909 12.3091   2
  -2  -6  13 47.5659 7.49038   1
  -1  -6  13 92.1565 15.1788   2
   1  -6 -13 92.4230 9.00173   1
  -1  -6  13 96.2160 9.42686   1
   0  -6  13 38.2814 12.0554   2
   0  -6 -13 37.2965 6.88053   1
   0  -6  13 20.5768 6.14471   1
   1  -6  13 171.702 12.1795   1
   1  -6  13 142.462 17.9422   2
  -1  -6 -13 166.493 11.6034   1
   2  -6  13 -3.5653 4.61098   1
  -2  -6 -13 -3.7924 3.95212   1
   2  -6  13 -5.8421 7.96258   2
   3  -6  13 -1.8302 4.50867   1
  -3  -6 -13 -1.4000 4.39514   1
 -20   0  14 44.1216 7.61415   2
  20   0 -14 23.3363 8.03724   1
  19   0 -14 53.9767 9.54108   1
 -19   0  14 65.4558 9.16394   2
  18   0 -14 98.6510 11.3329   1
 -18   0  14 130.755 11.7136   2
 -17   0  14 159.147 12.1427   1
  17   0 -14 140.359 12.6535   1
 -17   0  14 164.425 12.9682   2
 -16   0  14 -5.9328 4.09932   1
  16   0 -14 -2.6724 4.61027   1
 -16   0  14 8.72127 5.29318   2
 -15   0  14 22.5240 6.20815   2
  15   0 -14 16.3606 6.12997   1
 -15   0  14 8.07275 5.42719   1
  14   0 -14 -7.4169 4.12544   1
 -14   0  14 2.38844 4.33709   2
 -14   0  14 -6.6161 3.81138   1
 -13   0  14 188.933 10.0526   3
 -13   0  14 192.321 11.5399   2
  13   0 -14 202.840 12.6920   1
 -13   0  14 217.184 12.3485   1
 -12   0  14 448.330 16.1724   2
 -12   0  14 433.421 14.4232   3
  12   0 -14 432.270 17.3326   1
 -12   0  14 460.306 16.7856   1
 -11   0  14 44.0411 5.66455   3
  11   0 -14 47.5953 7.04397   1
 -11   0  14 43.9106 6.00860   2
 -11   0  14 44.8219 6.32523   1
 -10   0  14 9.76789 3.30398   3
 -10   0  14 9.04039 3.62918   2
  10   0 -14 11.5821 4.70063   1
 -10   0  14 5.87212 3.98002   1
   9   0 -14 548.053 18.0089   1
  -9   0  14 534.104 17.3397   1
  -9   0  14 535.957 15.3730   2
  -9   0  14 559.076 15.4816   3
  -8   0  14 167.800 8.21524   3
  -8   0  14 207.873 10.5115   1
   8   0 -14 177.778 10.5747   1
  -8   0  14 180.129 8.22206   2
  -7   0  14 1073.70 22.1455   2
   7   0 -14 1091.73 26.4547   1
  -7   0  14 1098.15 25.7789   1
  -6   0  14 1561.37 32.6768   1
   6   0 -14 1571.12 33.3857   1
  -6   0  14 1560.57 28.4690   2
  -5   0  14 2828.19 50.2531   1
   5   0 -14 2855.69 50.9917   1
  -5   0  14 2792.29 45.4244   2
   4   0 -14 284.599 12.3769   1
  -4   0  14 256.597 9.14746   2
  -4   0  14 289.465 12.1854   1
  -3   0  14 1027.17 24.3719   1
   3   0 -14 1026.38 24.9405   1
  -2   0  14 1407.86 30.3832   1
   2   0 -14 1407.20 30.8044   1
  -2   0  14 1500.34 30.1806   3
  -1   0  14 1752.18 32.7548   3
  -1   0  14 1804.00 35.7718   1
   1   0 -14 1774.09 36.0269   1
   0   0  14 15.0006 3.46650   3
   0   0  14 16.7613 4.35488   1
   0   0 -14 18.5672 4.57507   1
   1   0  14 703.500 17.5800   3
  -1   0 -14 740.878 20.4788   1
   1   0  14 693.259 19.9080   1
   2   0  14 1888.52 38.2665   1
  -2   0 -14 1922.57 35.1818   3
   2   0  14 1922.88 35.2490   3
  -2   0 -14 1879.14 38.3955   1
  -3   0 -14 29.4900 4.23168   3
   3   0  14 24.2351 5.34360   1
   3   0  14 28.5753 5.10542   3
  -3   0 -14 36.3454 6.07224   1
  -4   0 -14 2947.24 50.7127   3
  -4   0 -14 2988.41 54.9596   1
   4   0  14 3028.10 54.9078   1
  -5   0 -14 1317.40 31.6397   1
   5   0  14 1357.10 31.9948   1
  -5   0 -14 1375.42 28.5009   3
  -6   0 -14 763.031 19.9705   3
   6   0  14 774.095 23.2256   1
  -6   0 -14 797.802 23.3114   1
  -7   0 -14 385.515 16.2406   1
  -7   0 -14 385.235 13.7558   3
   7   0  14 406.442 16.7923   1
  -8   0 -14 18.8793 5.93630   1
  -8   0 -14 12.3604 3.99905   3
  -8   0 -14 27.9974 6.40599   1
   8   0  14 13.2102 5.50229   1
  -9   0 -14 60.6828 6.81601   3
   9   0  14 51.1156 8.50860   1
  -9   0 -14 47.3993 7.52633   1
  -9   0 -14 55.3462 8.21968   1
  10   0  14 71.2880 9.33398   1
 -10   0 -14 60.8076 8.78841   1
 -10   0 -14 51.2885 8.27928   1
 -10   0 -14 67.5324 9.10557   3
 -11   0 -14 68.0494 9.37822   1
  11   0  14 65.2850 9.43260   1
 -12   0 -14 274.054 16.2891   1
  12   0  14 261.321 16.2190   1
 -13   0 -14 75.1205 10.4216   1
  13   0  14 99.1755 12.1142   1
  14   0  14 2.14236 6.42210   1
  15   0  14 257.946 18.3345   1
  20  -1 -14 35.6624 9.75637   1
 -20  -1  14 39.3385 8.96093   2
 -20  -1  14 19.5730 7.19437   1
  20   1 -14 31.7468 8.77384   1
  19  -1 -14 17.2672 8.02922   1
 -19  -1  14 21.8543 7.41636   2
 -19  -1  14 8.82040 6.55506   1
  19   1 -14 6.78410 6.40792   1
 -18  -1  14 109.099 12.0033   1
  18  -1 -14 88.7170 11.6483   1
 -18  -1  14 90.6452 8.92652   3
 -18  -1  14 99.2675 12.5780   2
 -18   1  14 104.526 16.1492   2
  18   1 -14 114.059 12.4438   1
 -17  -1  14 5.20198 5.81597   2
 -17  -1  14 -0.1986 5.15306   1
 -17  -1  14 5.69908 3.72993   3
  17  -1 -14 6.34139 6.21641   1
  17   1 -14 -3.1990 4.95523   1
 -17   1  14 8.48538 4.93259   2
 -16  -1  14 54.7008 9.29106   2
  16  -1 -14 51.8026 8.65168   1
 -16  -1  14 51.5779 8.14076   1
 -16  -1  14 69.0520 7.31162   3
 -16   1  14 68.2167 8.54626   2
  16   1 -14 59.8190 8.61809   1
 -15  -1  14 43.1733 7.55657   1
 -15  -1  14 57.4608 6.54443   3
 -15  -1  14 59.0183 8.93402   2
  15  -1 -14 65.0765 9.36084   1
 -15   1  14 62.9270 7.73465   2
  15   1 -14 67.8408 8.93752   1
 -14  -1  14 91.2081 10.0302   1
 -14  -1  14 79.8222 7.18902   3
 -14  -1  14 68.7867 9.44799   2
  14  -1 -14 65.1189 9.08749   1
  14   1 -14 70.5978 8.97418   1
 -14   1  14 84.4474 8.39814   2
 -13  -1  14 402.043 13.8372   3
  13  -1 -14 381.894 17.0012   1
 -13  -1  14 389.599 16.6230   1
 -13  -1  14 373.362 17.4089   2
  13   1 -14 362.981 16.3000   1
 -13   1  14 366.883 14.0854   2
 -13   1  14 383.562 15.3853   1
 -12  -1  14 165.097 11.9558   2
 -12  -1  14 165.706 11.3676   1
  12  -1 -14 182.123 11.8898   1
 -12  -1  14 172.675 9.19601   3
  12   1 -14 184.575 11.8499   1
 -12   1  14 167.985 10.3975   1
 -12   1  14 177.757 9.33862   2
 -11  -1  14 48.2280 7.39333   2
 -11  -1  14 44.7007 6.83199   1
 -11  -1  14 50.6747 5.55056   3
  11  -1 -14 40.6645 6.80186   1
 -11   1  14 43.9614 6.18055   1
 -11   1  14 43.7417 5.12428   2
  11   1 -14 38.9969 6.33047   1
  10  -1 -14 444.660 16.5802   1
 -10  -1  14 447.859 13.6621   3
 -10  -1  14 463.279 17.0485   2
 -10  -1  14 436.263 16.2409   1
 -10   1  14 440.498 12.1040   2
 -10   1  14 423.645 15.1987   1
  10   1 -14 441.260 16.4144   1
   9  -1 -14 10.2716 4.56451   1
  -9  -1  14 10.1289 3.10746   3
  -9  -1  14 7.69595 2.78599   3
  -9  -1  14 1.83094 3.84068   1
  -9  -1  14 8.23999 4.11451   2
  -9   1  14 4.81586 3.51257   1
   9   1 -14 8.12589 4.14468   1
  -9   1  14 6.13023 2.35888   2
  -8  -1  14 26.5620 4.10833   3
  -8  -1  14 28.2338 3.90069   3
   8  -1 -14 25.9216 5.33264   1
  -8  -1  14 33.4055 5.43939   2
  -8  -1  14 23.9712 5.06397   1
   8   1 -14 35.1318 5.87748   1
  -8   1  14 20.7244 4.52678   1
  -8   1  14 27.5899 2.52141   2
  -7  -1  14 451.311 15.7482   1
   7  -1 -14 465.083 16.1243   1
  -7  -1  14 460.174 13.4224   3
  -7  -1  14 442.622 12.9578   3
  -7  -1  14 452.140 15.4282   2
  -7   1  14 420.225 14.3938   1
   7   1 -14 448.993 15.5936   1
   6  -1 -14 145.572 9.33941   1
  -6  -1  14 165.234 7.88735   3
  -6  -1  14 152.547 7.52119   3
  -6  -1  14 164.853 9.69427   1
  -6  -1  14 160.337 9.27281   2
   6   1 -14 164.690 9.61446   1
  -6   1  14 169.051 9.02766   1
  -5  -1  14 120.344 6.65946   3
  -5  -1  14 120.130 8.55968   1
  -5  -1  14 139.412 7.13351   3
  -5  -1  14 114.956 8.20727   2
   5  -1 -14 124.333 8.83818   1
   5   1 -14 120.384 8.44223   1
  -5   1  14 119.316 7.79980   1
   4  -1 -14 202.932 10.4770   1
  -4  -1  14 198.940 10.0411   2
  -4  -1  14 200.600 8.34913   3
  -4  -1  14 204.329 8.18451   3
  -4  -1  14 185.694 10.2897   1
  -4   1  14 192.288 9.54738   1
   4   1 -14 191.673 10.0298   1
  -3  -1  14 138.512 7.05287   3
  -3  -1  14 138.792 8.95928   1
   3  -1 -14 136.626 8.95897   1
  -3  -1  14 137.069 8.64032   2
  -3   1  14 135.509 8.51335   1
   3   1 -14 133.179 8.78180   1
  -2  -1  14 72.2869 7.23476   1
   2  -1 -14 90.0019 8.07720   1
  -2  -1  14 68.2851 7.14627   2
  -2  -1  14 85.0859 5.81773   3
   2   1 -14 70.0381 6.81877   1
  -2   1  14 67.3321 6.62296   1
   1  -1 -14 48.9144 6.19530   1
  -1  -1  14 48.6788 5.98612   1
  -1  -1  14 62.7527 5.28055   3
   1   1 -14 60.0217 6.57837   1
  -1   1  14 52.6687 6.27821   1
   0  -1  14 850.320 22.4739   1
   0  -1  14 848.456 18.9168   3
   0  -1 -14 859.881 22.6395   1
   0   1 -14 828.001 19.5983   3
   0   1  14 826.496 21.3622   1
   0   1 -14 862.356 21.8953   1
   1  -1  14 32.8521 5.70533   1
   1  -1  14 32.0801 4.07080   3
  -1  -1 -14 27.8314 5.65639   1
  -1   1 -14 30.4307 4.40211   3
   1   1  14 27.8668 5.25657   1
  -1   1 -14 28.7643 5.38184   1
  -2  -1 -14 38.1809 6.12668   1
   2  -1  14 38.8279 6.53176   1
   2  -1  14 38.7178 4.42447   3
  -2   1 -14 40.3378 4.90716   3
   2   1  14 44.8908 6.11549   1
  -2   1 -14 39.1306 5.87549   1
  -3  -1 -14 273.712 12.6738   1
   3  -1  14 270.715 13.0590   1
   3  -1  14 251.275 9.82389   3
   3   1  14 252.494 12.1197   1
  -3   1 -14 254.225 10.6316   3
  -3   1 -14 275.943 12.3756   1
  -4  -1 -14 126.606 10.0808   1
   4  -1  14 143.036 7.57460   3
   4  -1  14 130.274 10.1049   1
  -4   1 -14 147.010 9.72236   1
   4   1  14 149.916 10.0312   1
  -4   1 -14 133.585 8.28026   3
  -5  -1 -14 543.058 15.3846   3
   5  -1  14 547.783 19.0064   1
  -5  -1 -14 540.519 18.9528   1
   5  -1  14 529.832 14.8834   3
   5   1  14 567.116 18.6537   1
  -5   1 -14 527.943 18.1061   3
  -5   1 -14 537.165 18.1317   1
  -6  -1 -14 164.199 11.4473   1
   6  -1  14 176.723 8.62517   3
  -6  -1 -14 189.981 9.29307   3
   6  -1  14 172.928 11.6352   1
  -6   1 -14 178.112 10.9205   1
   6   1  14 171.325 11.1854   1
  -7  -1 -14 103.334 7.49801   3
  -7  -1 -14 89.1700 9.42193   1
   7  -1  14 93.3733 6.89081   3
   7  -1  14 95.8350 10.1406   1
  -7   1 -14 105.115 9.50032   1
   7   1  14 96.2348 9.68948   1
  -7   1 -14 89.3441 8.97679   1
  -8  -1 -14 -0.9777 2.82226   3
  -8  -1 -14 1.59088 4.83891   1
   8  -1  14 4.20282 5.27886   1
   8  -1  14 4.09038 2.88654   3
   8   1  14 -1.2604 4.43151   1
  -8   1 -14 -0.5284 4.21618   1
  -8   1 -14 -2.2675 4.23518   1
   9  -1  14 115.917 11.2560   1
  -9  -1 -14 112.715 11.0897   1
   9  -1  14 127.637 10.7920   3
  -9  -1 -14 107.827 8.38703   3
  -9  -1 -14 118.264 10.9028   1
  -9   1 -14 118.565 10.7983   1
   9   1  14 123.600 11.3147   1
 -10  -1 -14 26.9490 6.89963   1
 -10  -1 -14 42.1269 7.63246   1
  10  -1  14 25.7746 7.13281   1
 -10  -1 -14 30.6828 5.29314   3
  10   1  14 38.5287 7.62695   1
 -11  -1 -14 4.33347 3.65304   3
  11  -1  14 -3.9516 4.98161   1
 -11  -1 -14 2.59491 5.63677   1
  11   1  14 5.82322 5.39079   1
 -12  -1 -14 81.5979 7.90483   3
  12  -1  14 85.2016 11.3166   1
 -12  -1 -14 68.6182 9.81102   1
  12   1  14 61.8180 9.62824   1
  13  -1  14 53.1531 9.89299   1
 -13  -1 -14 49.2195 9.53232   1
 -13  -1 -14 50.0619 6.82573   3
  13   1  14 35.6722 10.1473   1
 -14  -1 -14 42.9567 9.27763   1
 -14  -1 -14 41.4751 6.44908   3
  14  -1  14 44.5570 9.91940   1
 -19  -2  14 2.10879 6.14160   1
 -19  -2  14 1.05104 3.57818   3
 -19  -2  14 -1.4487 5.89645   2
  19  -2 -14 -9.2027 5.71648   1
 -18  -2  14 0.97940 3.19247   3
 -18  -2  14 18.1303 7.04497   1
  18  -2 -14 9.19406 6.91406   1
 -18  -2  14 9.78570 6.99947   2
 -17  -2  14 32.6683 5.33941   3
  17  -2 -14 20.8481 7.41828   1
 -17  -2  14 22.8764 7.08361   1
 -17  -2  14 39.1630 9.32494   2
  16  -2 -14 249.426 15.5637   1
 -16  -2  14 242.996 17.0591   2
 -16  -2  14 259.777 15.7843   1
 -16  -2  14 267.887 11.5939   3
 -15  -2  14 -0.4016 4.88689   1
 -15  -2  14 1.81627 2.74914   3
 -15  -2  14 1.81360 5.69726   2
  15  -2 -14 7.97236 5.69617   1
 -14  -2  14 1.18084 2.99814   3
 -14  -2  14 -2.1358 4.80999   1
  14  -2 -14 2.23050 5.20600   1
 -14  -2  14 6.13189 5.78936   2
  14   2 -14 -0.1889 4.68131   1
 -13  -2  14 190.410 9.40760   3
 -13  -2  14 194.218 14.1948   2
  13  -2 -14 170.663 12.3953   1
 -13  -2  14 177.572 9.06783   3
 -13  -2  14 170.999 12.2626   1
  13   2 -14 184.082 12.1297   1
 -12  -2  14 -0.6888 4.38832   1
  12  -2 -14 0.44170 4.73140   1
 -12  -2  14 0.51531 2.69982   3
 -12  -2  14 1.87524 2.63392   3
 -12  -2  14 4.80411 5.29876   2
  12   2 -14 2.31439 4.19977   1
 -11  -2  14 11.1417 3.28259   3
 -11  -2  14 17.0088 5.46403   1
 -11  -2  14 10.8808 5.84392   2
 -11  -2  14 22.6962 4.11366   3
  11  -2 -14 21.0598 5.76435   1
  11   2 -14 18.7038 5.38610   1
 -10  -2  14 11.3383 3.09928   3
 -10  -2  14 16.0242 5.47421   1
  10  -2 -14 0.38681 3.92132   1
 -10  -2  14 14.2912 5.80675   2
 -10  -2  14 8.84752 2.91529   3
  10   2 -14 10.5047 4.73858   1
   9  -2 -14 46.0458 6.71068   1
  -9  -2  14 54.5594 4.92820   3
  -9  -2  14 36.6009 6.24192   1
  -9  -2  14 46.5241 4.99062   3
  -9  -2  14 47.3506 7.80111   2
   9   2 -14 48.6253 6.68418   1
  -8  -2  14 99.3789 10.1784   2
  -8  -2  14 121.020 6.74774   3
  -8  -2  14 101.588 6.22686   3
   8  -2 -14 116.779 9.03347   1
  -8  -2  14 106.767 9.62298   1
   8   2 -14 110.541 8.74090   1
  -7  -2  14 -0.2105 2.13021   3
  -7  -2  14 2.56664 4.06911   2
  -7  -2  14 0.43841 3.68793   1
   7  -2 -14 4.96812 3.88142   1
  -7  -2  14 1.73772 2.32375   3
   7   2 -14 -0.6605 3.28063   1
  -7   2  14 0.51097 4.99941   1
  -6  -2  14 6.21496 4.42225   2
  -6  -2  14 8.95684 4.44246   1
   6  -2 -14 7.50716 4.04156   1
  -6  -2  14 5.63747 2.51573   3
  -6  -2  14 9.98048 2.78513   3
   6   2 -14 10.5523 4.13277   1
  -6   2  14 7.94250 3.29713   1
  -5  -2  14 52.9181 4.50585   3
  -5  -2  14 55.0790 4.69403   3
  -5  -2  14 54.7142 7.54748   2
   5  -2 -14 50.5031 6.37293   1
  -5  -2  14 45.5308 6.39370   1
  -5   2  14 53.3640 5.69881   1
   5   2 -14 59.8248 6.52586   1
  -4  -2  14 7.60095 4.42552   2
  -4  -2  14 3.13187 2.17315   3
  -4  -2  14 4.73567 4.03301   1
  -4  -2  14 5.69268 2.38309   3
   4  -2 -14 -0.3672 3.34382   1
   4   2 -14 5.65207 3.57666   1
  -4   2  14 7.46252 3.24241   1
   3  -2 -14 312.106 13.1176   1
  -3  -2  14 298.217 9.04212   3
  -3  -2  14 311.087 9.33068   3
  -3  -2  14 294.099 14.2230   2
  -3  -2  14 292.077 12.9124   1
   3   2 -14 282.553 11.7508   1
  -3   2  14 286.073 11.1822   1
  -2  -2  14 308.689 9.20462   3
  -2  -2  14 299.781 14.4417   2
  -2  -2  14 315.579 9.38074   3
  -2  -2  14 324.729 13.5936   1
   2  -2 -14 304.831 13.0604   1
   2   2 -14 316.674 12.2982   1
  -2   2  14 307.007 11.6182   1
   1  -2 -14 168.329 10.1998   1
  -1  -2  14 183.075 7.12865   3
  -1  -2  14 168.182 10.3842   1
  -1  -2  14 193.219 12.2631   2
  -1  -2  14 178.171 6.88883   3
  -1   2  14 182.599 9.24687   1
   1   2 -14 174.458 9.48609   1
   0  -2  14 2.82330 1.92440   3
   0  -2  14 4.58202 2.18519   3
   0  -2 -14 7.40838 4.13024   1
   0  -2  14 -0.2930 4.03603   2
   0  -2  14 -0.7304 4.08914   1
   0   2 -14 4.54141 3.52708   1
   0   2  14 3.00769 3.32761   1
   1  -2  14 0.44439 1.75888   3
   1  -2  14 2.37899 4.09364   1
  -1  -2 -14 1.68131 3.71297   1
   1  -2  14 0.75025 2.09903   3
   1   2  14 2.26509 3.26209   1
  -1   2 -14 -4.0172 2.88605   1
  -2  -2 -14 234.821 9.63105   2
   2  -2  14 224.492 12.1132   1
   2  -2  14 220.713 7.55756   3
   2  -2  14 223.070 7.75606   3
  -2  -2 -14 208.961 11.6937   1
  -2   2 -14 196.963 10.2656   1
   2   2  14 212.697 10.6584   1
   3  -2  14 4.51024 4.59767   1
   3  -2  14 1.00972 2.04529   3
  -3  -2 -14 -8.8611 3.97016   2
  -3  -2 -14 -8.8839 3.60526   1
  -3   2 -14 -2.3892 3.06747   1
   3   2  14 4.70427 3.63287   1
   4  -2  14 31.4963 6.41171   1
   4  -2  14 26.0803 3.43964   3
  -4  -2 -14 7.76250 6.93368   2
  -4  -2 -14 23.2779 5.69313   1
  -4   2 -14 32.1208 6.37233   1
   4   2  14 22.4962 5.06296   1
   5  -2  14 67.6679 8.40490   1
  -5  -2 -14 53.8950 7.56415   1
   5  -2  14 70.6112 5.05268   3
   5   2  14 82.9050 8.52673   1
   6  -2  14 159.906 7.00739   3
   6  -2  14 190.608 12.4580   1
  -6  -2 -14 171.088 12.2353   1
  -7  -2 -14 55.3144 8.59755   1
   7  -2  14 77.7188 5.44691   3
   7  -2  14 58.6530 8.37662   1
   8  -2  14 5.26147 5.72311   1
   8  -2  14 7.10143 2.72916   3
  -8  -2 -14 1.00918 5.27794   1
   9  -2  14 4.66988 5.50935   1
   9  -2  14 7.18668 2.68113   3
  -9  -2 -14 7.69640 5.46234   1
  10  -2  14 8.50504 6.24465   1
 -10  -2 -14 5.79876 5.54177   1
 -10  -2 -14 8.33776 3.42446   3
  10  -2  14 8.39700 2.62417   3
 -10  -2 -14 -1.2947 4.75741   1
 -11  -2 -14 2.37983 3.05689   3
  11  -2  14 -4.6385 5.13994   1
 -11  -2 -14 -0.3081 5.07410   1
  11  -2  14 4.04034 2.35102   3
 -11  -2 -14 1.70345 5.49771   1
 -12  -2 -14 73.1317 6.97071   3
 -12  -2 -14 82.6571 10.6474   1
  12  -2  14 107.785 12.1002   1
  12  -2  14 73.5311 5.38555   3
  13  -2  14 17.5205 3.16751   3
  13  -2  14 16.3599 7.79088   1
 -13  -2 -14 13.7783 4.07443   3
 -13  -2 -14 31.9917 8.27104   1
  14  -2  14 1.37988 2.21479   3
 -14  -2 -14 3.17782 3.53384   3
 -14  -2 -14 0.79946 6.15937   1
  14  -2  14 -9.7261 5.70607   1
 -18  -3  14 2.88163 3.07623   3
 -18  -3  14 3.48069 6.87332   1
 -18  -3  14 6.50712 7.30958   2
  18  -3 -14 -2.0972 6.23661   1
 -18  -3  14 4.02428 3.32048   3
  17  -3 -14 -0.1198 6.09545   1
 -17  -3  14 3.95999 2.92683   3
 -17  -3  14 8.25361 6.37667   1
 -17  -3  14 0.01885 6.44340   2
 -17  -3  14 8.11734 3.43113   3
 -16  -3  14 6.66257 6.43595   2
 -16  -3  14 -9.1668 5.08758   1
  16  -3 -14 -2.4830 5.29423   1
 -16  -3  14 5.03413 2.82137   3
 -16  -3  14 3.65025 2.94059   3
  15  -3 -14 35.4006 7.46647   1
 -15  -3  14 25.4960 4.03122   3
 -15  -3  14 25.2801 3.80016   3
 -15  -3  14 22.8052 6.81629   1
 -15  -3  14 14.9202 7.29665   2
 -14  -3  14 65.3324 11.0138   2
 -14  -3  14 49.9654 8.27699   1
 -14  -3  14 62.4280 5.22390   3
 -14  -3  14 75.9433 5.75351   3
  14  -3 -14 85.3478 10.0272   1
 -13  -3  14 67.3400 4.98231   3
 -13  -3  14 60.3569 4.95085   3
 -13  -3  14 63.4396 8.81049   1
  13  -3 -14 51.8551 7.92113   1
 -13  -3  14 63.7134 10.3209   2
  12  -3 -14 17.2638 5.81989   1
 -12  -3  14 23.9323 3.26266   3
 -12  -3  14 14.3694 5.67454   1
 -12  -3  14 22.6748 3.15155   3
 -12  -3  14 37.7167 9.07860   2
 -11  -3  14 768.088 15.8198   3
 -11  -3  14 764.349 28.3639   2
 -11  -3  14 797.850 16.1930   3
 -11  -3  14 799.021 24.3562   1
  11  -3 -14 781.805 23.6237   1
 -10  -3  14 235.427 16.1396   2
 -10  -3  14 223.597 7.06634   3
  10  -3 -14 244.771 12.7386   1
 -10  -3  14 248.390 13.4728   1
 -10  -3  14 224.773 7.17356   3
  -9  -3  14 26.9033 2.69768   3
  -9  -3  14 31.9655 3.05746   3
   9  -3 -14 34.4053 6.09721   1
  -9  -3  14 36.9155 8.13331   2
  -9  -3  14 24.5305 5.73931   1
   8  -3 -14 81.2928 8.06590   1
  -8  -3  14 83.6461 11.0930   2
  -8  -3  14 82.9385 3.73135   3
  -8  -3  14 71.9505 7.98741   1
  -8  -3  14 87.7685 3.95800   3
  -7  -3  14 35.3265 8.10850   2
  -7  -3  14 28.0607 5.59195   1
   7  -3 -14 32.8546 5.81994   1
  -6  -3  14 2.85405 4.15350   1
  -6  -3  14 -2.1012 5.09892   2
   6  -3 -14 5.09093 3.99168   1
  -5  -3  14 12.8276 6.05763   2
  -5  -3  14 3.77799 3.99319   1
   5  -3 -14 2.07416 3.64874   1
   4  -3 -14 111.305 8.84818   1
  -4  -3  14 152.010 10.2223   1
  -4  -3  14 127.216 11.8882   2
   3  -3 -14 196.431 11.0451   1
  -3  -3  14 215.969 11.6002   1
  -3  -3  14 227.263 14.6392   2
   2  -3 -14 3.15940 3.80229   1
  -2  -3  14 2.12980 5.15130   2
  -2  -3  14 3.08611 4.16829   1
   1  -3 -14 30.0055 5.50769   1
  -1  -3  14 33.4312 7.87649   2
  -1  -3  14 32.7430 5.95791   1
   0  -3  14 131.731 12.4830   2
   0  -3  14 131.778 9.81796   1
   0  -3 -14 124.926 9.43940   1
   1  -3  14 9.44424 5.85748   2
   1  -3  14 2.26710 4.38617   1
  -1  -3 -14 9.70640 4.43012   1
  -2  -3 -14 64.9400 7.97356   1
   2  -3  14 51.7834 7.36799   1
   3  -3  14 170.830 11.4666   1
  -3  -3 -14 158.628 11.2347   1
   4  -3  14 61.6099 7.90884   1
  -4  -3 -14 62.8992 8.06841   1
   5  -3  14 -1.4033 4.58521   1
  -5  -3 -14 4.96361 4.96031   1
  -6  -3 -14 73.5603 9.41200   1
   6  -3  14 49.8790 7.99900   1
  -7  -3 -14 527.006 19.7918   2
   7  -3  14 480.028 19.3543   1
  -7  -3 -14 473.179 19.7931   1
   8  -3  14 -1.1777 5.16057   1
  -8  -3 -14 -4.8022 4.63022   1
  -9  -3 -14 341.387 17.9592   2
  -9  -3 -14 274.373 16.0975   1
   9  -3  14 271.870 16.2812   1
  10  -3  14 158.602 14.1779   1
 -10  -3 -14 115.848 12.1365   1
 -10  -3 -14 117.843 12.3281   1
 -10  -3 -14 179.189 15.2580   2
  11  -3  14 43.0010 8.69762   1
 -11  -3 -14 28.3722 7.85041   1
 -11  -3 -14 70.8265 11.4715   2
 -11  -3 -14 22.8015 7.27024   1
  12  -3  14 48.1129 9.78441   1
 -12  -3 -14 42.6288 9.42350   1
 -12  -3 -14 91.5566 13.1418   2
  16  -4 -14 -5.6227 5.06059   1
 -16  -4  14 -6.8919 5.12726   1
 -16  -4  14 2.28655 6.88877   2
 -15  -4  14 0.10229 5.94219   1
 -15  -4  14 16.7706 8.49771   2
  15  -4 -14 3.24821 5.64878   1
 -14  -4  14 38.7785 10.2163   2
 -14  -4  14 39.0639 8.28517   1
  14  -4 -14 34.1544 7.34068   1
 -13  -4  14 18.1841 7.87777   2
  13  -4 -14 16.9678 6.17267   1
 -13  -4  14 34.0418 7.36040   1
  12  -4 -14 68.7988 8.71861   1
 -12  -4  14 70.7971 9.50725   1
 -12  -4  14 76.9652 12.6846   2
 -11  -4  14 76.7777 12.2229   2
  11  -4 -14 77.2258 8.72096   1
 -11  -4  14 84.6544 9.85748   1
 -10  -4  14 129.585 11.5462   1
  10  -4 -14 114.618 10.2949   1
 -10  -4  14 109.682 14.2453   2
  -9  -4  14 1.04855 6.38674   2
   9  -4 -14 -0.0480 3.95004   1
  -9  -4  14 -1.6085 4.37843   1
  -8  -4  14 -1.8596 6.22632   2
   8  -4 -14 -3.6063 3.46640   1
  -8  -4  14 -2.2831 4.16055   1
  -7  -4  14 41.5948 6.88257   1
  -7  -4  14 47.8631 10.0800   2
   7  -4 -14 42.8432 6.40840   1
   6  -4 -14 -3.2805 3.43246   1
  -6  -4  14 9.65874 4.64579   1
  -6  -4  14 2.61434 6.01556   2
  -5  -4  14 105.190 9.46315   1
  -5  -4  14 77.8907 11.7329   2
   5  -4 -14 79.3833 8.13880   1
   4  -4 -14 244.337 12.1373   1
  -4  -4  14 244.304 12.9280   1
  -4  -4  14 218.463 16.0307   2
   3  -4 -14 25.7147 5.52075   1
  -3  -4  14 23.2548 7.81210   2
  -3  -4  14 27.7884 6.02852   1
  -2  -4  14 2.06014 6.20133   2
   2  -4 -14 -2.7573 3.61109   1
  -2  -4  14 -3.9858 3.80228   1
  -1  -4  14 7.64573 4.69430   1
  -1  -4  14 21.4635 7.44541   2
   1  -4 -14 13.7040 4.89336   1
   0  -4  14 0.63679 4.10152   1
   0  -4  14 5.59748 5.83679   2
   0  -4 -14 4.75290 4.41552   1
   1  -4  14 -1.4764 4.19047   1
  -1  -4 -14 5.34853 4.64005   1
   1  -4  14 0.83971 5.56242   2
   2  -4  14 17.5529 5.63971   1
   2  -4  14 11.0527 6.74226   2
  -2  -4 -14 17.7893 5.56707   1
  -3  -4 -14 66.2333 8.12027   1
   3  -4  14 85.1950 9.08734   1
  -4  -4 -14 1.88771 4.42470   1
   4  -4  14 -1.1561 4.36072   1
  -5  -4 -14 1.02388 4.62645   1
   5  -4  14 -0.0836 4.76419   1
 -10  -4 -14 -0.1272 5.61616   1
  10  -4  14 0.39715 5.79311   1
 -10  -4 -14 2.27567 6.10303   1
  13  -5 -14 2.63990 5.22889   1
 -13  -5  14 13.6900 6.35014   1
 -13  -5  14 5.84664 8.56367   2
  12  -5 -14 21.5005 6.11721   1
 -12  -5  14 28.5303 7.25321   1
 -12  -5  14 25.9961 10.3869   2
 -11  -5  14 1.21923 7.91998   2
 -11  -5  14 10.5715 6.01256   1
  11  -5 -14 2.13652 4.85341   1
  10  -5 -14 15.0212 5.46638   1
 -10  -5  14 13.5281 5.84902   1
 -10  -5  14 23.0774 9.56616   2
  -9  -5  14 45.8582 7.75899   1
   9  -5 -14 50.9746 7.07162   1
  -9  -5  14 38.1228 10.6418   2
  -8  -5  14 9.18668 5.10141   1
  -8  -5  14 2.29579 7.40824   2
   8  -5 -14 -4.7233 3.86509   1
  -7  -5  14 -2.5962 6.47946   2
  -7  -5  14 10.4075 5.00497   1
   7  -5 -14 -3.5004 3.72283   1
  -6  -5  14 3.46316 6.88123   2
   6  -5 -14 0.28574 3.73720   1
  -6  -5  14 -3.8298 4.34109   1
   5  -5 -14 0.00120 3.89306   1
  -5  -5  14 -1.9682 6.81278   2
  -5  -5  14 -5.5931 4.05835   1
  -4  -5  14 4.58639 7.23504   2
  -4  -5  14 3.02440 4.66642   1
   4  -5 -14 -2.5396 3.80934   1
  -3  -5  14 10.9777 5.24194   1
   3  -5 -14 15.6608 5.03739   1
  -3  -5  14 10.7678 7.72451   2
  -2  -5  14 8.47104 7.80614   2
   2  -5 -14 11.9107 5.07334   1
  -2  -5  14 8.43159 5.13318   1
  -1  -5  14 75.7484 8.71006   1
   1  -5 -14 82.8054 8.84192   1
  -1  -5  14 76.5288 12.9666   2
   0  -5  14 98.6195 9.95963   1
   0  -5 -14 113.884 10.0836   1
   0  -5  14 115.996 15.6610   2
   1  -5  14 11.6767 5.46818   1
  -1  -5 -14 15.9392 5.54150   1
   1  -5  14 14.0517 8.98702   2
   2  -5  14 0.53095 7.28470   2
  -2  -5 -14 -1.1074 4.44733   1
   2  -5  14 13.2380 5.60710   1
  -3  -5 -14 6.30721 5.00098   1
   3  -5  14 8.92981 5.32026   1
   4  -5  14 19.0700 6.20757   1
  -4  -5 -14 18.1390 6.18950   1
   5  -5  14 34.5097 7.37560   1
  -5  -5 -14 13.4801 6.23262   1
  -6  -5 -14 12.5473 6.23931   1
   6  -5  14 12.2568 6.17759   1
   7  -5  14 -0.9049 5.50502   1
  -7  -5 -14 1.15002 5.40102   1
   6  -6 -14 -2.1123 4.45190   1
  -6  -6  14 4.60067 5.41723   1
  -6  -6  14 5.31597 9.54294   2
   5  -6 -14 301.562 14.6072   1
  -5  -6  14 301.120 15.8061   1
  -5  -6  14 319.071 23.9977   2
  -4  -6  14 107.624 10.4057   1
  -4  -6  14 85.4811 14.7003   2
   4  -6 -14 75.3356 8.63903   1
  -3  -6  14 17.1020 9.48154   2
   3  -6 -14 15.9364 5.65353   1
  -3  -6  14 27.4166 6.82698   1
  -2  -6  14 196.304 21.0762   2
   2  -6 -14 181.867 12.2058   1
  -2  -6  14 160.961 12.6150   1
  -1  -6  14 126.548 11.1258   1
  -1  -6  14 132.899 18.0251   2
   1  -6 -14 125.700 11.0441   1
   0  -6  14 21.3865 6.37713   1
   0  -6  14 27.2495 11.6065   2
   0  -6 -14 29.1983 6.69118   1
  20   0 -15 -3.9968 6.39426   1
  19   0 -15 -9.9828 5.67476   1
  18   0 -15 2.71556 5.59079   1
 -17   0  15 1.90868 4.36996   2
  17   0 -15 -0.2609 5.36536   1
 -17   0  15 5.62831 5.29370   1
  16   0 -15 -4.3250 4.69437   1
 -16   0  15 1.37241 4.56740   2
 -16   0  15 -2.7339 4.50273   1
 -15   0  15 2.45873 4.48859   2
  15   0 -15 -0.1576 4.71142   1
 -15   0  15 -3.7307 4.02450   1
 -14   0  15 2.46124 4.30325   2
  14   0 -15 -7.5573 4.23945   1
 -14   0  15 -5.4181 3.80447   1
 -13   0  15 0.58111 4.00648   2
  13   0 -15 -2.6652 4.71544   1
 -13   0  15 2.16651 4.39770   1
 -12   0  15 -2.6196 3.64619   2
 -12   0  15 -0.6892 2.77298   3
  12   0 -15 3.73199 5.08717   1
 -12   0  15 -1.4990 4.24172   1
 -11   0  15 4.18373 3.69468   2
 -11   0  15 8.20943 4.38126   1
 -11   0  15 -0.7078 2.42279   3
  11   0 -15 10.2741 4.79594   1
 -10   0  15 -1.2003 2.95495   2
 -10   0  15 0.52707 2.61708   3
  10   0 -15 2.19961 3.69781   1
 -10   0  15 -3.6704 3.23798   1
  -9   0  15 -3.1682 3.44036   1
   9   0 -15 -0.1880 3.64566   1
  -9   0  15 2.26379 2.90781   2
  -9   0  15 1.61118 2.64023   3
  -8   0  15 -1.5818 3.42645   1
  -8   0  15 -1.8417 2.08160   3
   8   0 -15 -2.2418 3.08249   1
  -8   0  15 -2.5204 2.31829   2
   7   0 -15 -5.6172 3.21296   1
  -7   0  15 -1.4717 2.23271   2
  -7   0  15 -6.3433 3.07808   1
  -6   0  15 -1.4580 3.53329   1
   6   0 -15 -0.0576 3.64276   1
  -6   0  15 -3.4583 2.22233   2
  -5   0  15 -1.3532 2.43462   2
  -5   0  15 0.22413 3.55548   1
   5   0 -15 5.49016 3.88792   1
  -4   0  15 3.53759 3.45393   1
   4   0 -15 -7.2556 3.08713   1
   3   0 -15 -4.8305 2.91084   1
  -3   0  15 -3.5451 1.95076   3
  -3   0  15 0.89121 3.41755   1
   2   0 -15 1.73602 3.74147   1
  -2   0  15 11.2493 4.37472   1
  -2   0  15 0.16507 2.31441   3
  -1   0  15 -0.0185 3.54949   1
   1   0 -15 6.32865 3.78670   1
  -1   0  15 -1.0426 2.31695   3
   0   0 -15 -1.2855 3.69924   1
   0   0  15 0.25158 3.55506   1
   0   0  15 -2.3972 4.27533   3
  -1   0 -15 2.27267 4.03784   1
   1   0  15 2.74506 4.08390   1
  -2   0 -15 -1.1704 2.87006   3
  -2   0 -15 4.76973 4.61330   1
   2   0  15 0.54891 4.08948   1
   3   0  15 0.33193 4.33830   1
  -3   0 -15 -0.2275 3.24128   3
  -3   0 -15 -2.8389 4.61482   1
  -4   0 -15 -4.1908 2.80241   3
  -4   0 -15 -0.5549 4.32914   1
   4   0  15 -5.2448 3.98216   1
  -5   0 -15 2.45468 3.11129   3
  -5   0 -15 0.23576 4.24419   1
   5   0  15 0.19842 4.57618   1
  -6   0 -15 2.54402 3.08437   3
  -6   0 -15 1.67846 4.24665   1
   6   0  15 3.44542 4.49954   1
  -7   0 -15 2.55589 4.62954   1
  -7   0 -15 -3.4369 2.65102   3
   7   0  15 -0.6942 4.56625   1
  -8   0 -15 1.89671 3.26345   3
   8   0  15 0.17708 4.64163   1
  -8   0 -15 -4.2957 4.02416   1
  -9   0 -15 3.80245 5.11096   1
  -9   0 -15 6.03058 3.63681   3
  -9   0 -15 2.17061 5.16360   1
   9   0  15 4.15142 5.24983   1
 -10   0 -15 -4.2076 4.78306   1
 -10   0 -15 -1.6446 4.90183   1
  10   0  15 -9.7160 4.72947   1
  11   0  15 -5.2688 5.24981   1
 -11   0 -15 5.29720 5.60958   1
  12   0  15 7.84116 6.72572   1
 -12   0 -15 2.38237 5.62515   1
  13   0  15 -5.0661 5.86917   1
  14   0  15 -3.4105 5.90460   1
 -20  -1  15 122.268 13.1949   1
 -20  -1  15 172.687 14.9454   2
  20  -1 -15 128.828 13.9814   1
  20   1 -15 120.804 13.6281   1
  19  -1 -15 52.3039 9.98152   1
 -19  -1  15 65.0754 10.0961   2
 -19  -1  15 53.1501 9.54301   1
  19   1 -15 55.3618 9.82512   1
 -18  -1  15 39.8340 6.38467   3
  18  -1 -15 39.1017 8.95387   1
 -18  -1  15 37.7361 8.31060   1
 -18  -1  15 35.7149 8.62686   2
  18   1 -15 46.7870 8.66752   1
  17  -1 -15 33.1751 8.14693   1
 -17  -1  15 35.7061 7.91059   1
 -17  -1  15 41.5530 6.22079   3
 -17  -1  15 57.6866 9.57476   2
  17   1 -15 28.3248 7.67597   1
 -16  -1  15 95.0870 11.5753   2
 -16  -1  15 107.514 11.1759   1
  16  -1 -15 96.5103 11.3347   1
 -16  -1  15 95.1429 8.89010   3
  16   1 -15 113.320 11.7050   1
  15  -1 -15 42.2606 8.00257   1
 -15  -1  15 51.5132 6.60262   3
 -15  -1  15 41.6530 8.25031   2
 -15  -1  15 45.3065 8.02060   1
  15   1 -15 42.0378 7.75414   1
 -14  -1  15 5.38330 3.51133   3
 -14  -1  15 9.35245 5.07809   1
 -14  -1  15 6.58967 5.12846   2
  14  -1 -15 0.18808 4.65254   1
  14   1 -15 -4.3150 4.18820   1
  13  -1 -15 85.0337 9.66013   1
 -13  -1  15 90.3222 7.55453   3
 -13  -1  15 72.3099 9.39153   2
 -13  -1  15 81.7496 9.01891   1
  13   1 -15 75.6310 9.15258   1
 -12  -1  15 441.241 17.5228   1
 -12  -1  15 421.309 14.1751   3
  12  -1 -15 407.195 17.8227   1
 -12  -1  15 439.601 18.1090   2
  12   1 -15 424.094 17.4950   1
 -12   1  15 467.459 16.5816   1
 -11  -1  15 104.753 10.1755   2
 -11  -1  15 116.960 10.3951   1
  11  -1 -15 116.970 10.4101   1
 -11  -1  15 113.613 7.77613   3
 -11   1  15 118.688 9.80209   1
  11   1 -15 114.435 9.96444   1
 -10  -1  15 -2.8075 3.63810   2
 -10  -1  15 0.01619 2.23495   3
 -10  -1  15 -2.9714 3.51761   1
  10  -1 -15 1.43077 4.40872   1
 -10   1  15 -0.7564 3.66082   1
  10   1 -15 -2.0596 3.59754   1
  -9  -1  15 76.4189 7.88864   1
  -9  -1  15 87.3818 8.21701   2
   9  -1 -15 90.0631 8.94269   1
  -9  -1  15 80.6093 6.78001   3
  -9   1  15 83.5787 7.93575   1
   9   1 -15 113.582 9.78034   1
  -8  -1  15 3.81700 3.50276   2
  -8  -1  15 -0.6271 3.67899   1
  -8  -1  15 0.53882 2.37772   3
  -8  -1  15 3.26592 2.63988   3
   8  -1 -15 2.42664 3.82983   1
  -8   1  15 -4.8675 2.97885   1
   8   1 -15 2.43227 3.66008   1
  -7  -1  15 19.0407 3.87437   3
  -7  -1  15 15.4957 3.46259   3
   7  -1 -15 9.22112 4.53954   1
  -7  -1  15 8.64203 4.13469   1
  -7  -1  15 10.3860 4.21632   2
   7   1 -15 12.6800 4.40300   1
  -7   1  15 17.1417 4.55969   1
  -6  -1  15 15.9541 4.84373   1
  -6  -1  15 8.42080 3.88061   2
   6  -1 -15 11.5373 4.63763   1
  -6  -1  15 12.2033 3.06892   3
  -6  -1  15 13.8755 3.26462   3
  -6   1  15 17.3553 4.32282   1
   6   1 -15 11.7446 4.30231   1
  -5  -1  15 43.6098 6.02053   2
  -5  -1  15 40.3472 6.03989   1
  -5  -1  15 46.6882 5.11773   3
   5  -1 -15 33.4330 5.70350   1
  -5  -1  15 38.9430 4.63095   3
  -5   1  15 40.3169 5.76944   1
   5   1 -15 49.6722 6.75061   1
  -4  -1  15 -1.0817 2.38826   3
  -4  -1  15 0.84725 2.14629   3
  -4  -1  15 -0.9003 3.04678   2
   4  -1 -15 2.49256 3.64840   1
  -4  -1  15 3.50913 3.85146   1
   4   1 -15 1.07183 3.61391   1
  -4   1  15 -0.4168 3.34406   1
   3  -1 -15 520.675 17.2558   1
  -3  -1  15 462.899 13.7564   3
  -3  -1  15 497.002 16.8434   1
  -3  -1  15 487.431 16.3267   2
  -3   1  15 491.860 15.7699   1
   3   1 -15 504.605 16.5709   1
  -2  -1  15 46.9387 5.08490   3
   2  -1 -15 39.0863 6.34757   1
  -2  -1  15 28.8210 5.74512   1
  -2   1  15 40.3206 5.68676   1
   2   1 -15 43.5607 6.16034   1
  -1  -1  15 324.905 11.0710   3
   1  -1 -15 342.321 14.1479   1
  -1  -1  15 327.622 13.8357   1
   1   1 -15 321.377 13.3224   1
  -1   1  15 308.092 12.8376   1
   0  -1  15 954.971 21.0467   3
   0  -1 -15 930.978 24.7553   1
   0  -1  15 959.250 24.9908   1
   0   1  15 996.641 24.3263   1
   0   1 -15 931.604 21.8648   3
   0   1 -15 944.675 24.2167   1
   1  -1  15 6.63201 4.36235   1
  -1  -1 -15 2.10325 4.31368   1
   1  -1  15 5.98825 2.93357   3
   1   1  15 12.6655 4.49192   1
  -1   1 -15 5.49589 2.83412   3
  -1   1 -15 1.56654 4.11127   1
   2  -1  15 -0.3089 4.11817   1
  -2  -1 -15 -0.9503 3.76849   1
   2  -1  15 -0.9687 2.51681   3
  -2   1 -15 -3.0053 3.50379   1
  -2   1 -15 -1.2802 2.96467   3
   2   1  15 5.03790 4.23512   1
  -3  -1 -15 2.89223 4.10706   1
   3  -1  15 -1.1110 4.10243   1
   3  -1  15 -2.4013 2.35216   3
  -3   1 -15 -6.1786 3.28255   1
   3   1  15 -2.4426 3.95511   1
  -3   1 -15 -0.1936 2.71848   3
   4  -1  15 -1.2423 4.29812   1
   4  -1  15 3.50475 2.73588   3
  -4  -1 -15 -4.7745 3.85111   1
  -4   1 -15 0.06435 3.82296   1
   4   1  15 6.12757 4.54124   1
   5  -1  15 176.876 11.9279   1
  -5  -1 -15 184.559 9.14757   3
   5  -1  15 186.099 8.98839   3
  -5  -1 -15 168.258 11.6177   1
   5   1  15 163.307 11.0953   1
  -5   1 -15 181.886 11.2546   1
  -6  -1 -15 78.1928 9.31139   1
   6  -1  15 45.1118 5.22682   3
  -6  -1 -15 46.1800 5.58500   3
   6  -1  15 46.2691 7.38107   1
  -6   1 -15 49.8152 7.40139   1
   6   1  15 54.4397 7.75782   1
   7  -1  15 162.007 12.2313   1
   7  -1  15 170.201 9.26863   3
  -7  -1 -15 172.201 12.3205   1
  -7  -1 -15 148.011 8.91190   3
  -7   1 -15 154.741 11.2215   1
  -7   1 -15 154.878 11.5146   1
   7   1  15 159.149 11.4179   1
   8  -1  15 -2.0617 5.06807   1
  -8  -1 -15 -0.0846 3.16102   3
  -8  -1 -15 1.53080 4.74349   1
   8   1  15 9.54101 5.23023   1
  -8   1 -15 8.47379 5.27320   1
  -8   1 -15 3.29938 4.65127   1
  -9  -1 -15 20.3297 6.42094   1
  -9  -1 -15 32.9008 5.39764   3
  -9  -1 -15 22.8173 6.52316   1
   9  -1  15 27.1578 7.44480   1
   9   1  15 28.5665 6.92724   1
  -9   1 -15 27.8187 11.1110   1
 -10  -1 -15 132.334 12.2389   1
  10  -1  15 179.526 13.9101   1
 -10  -1 -15 133.903 12.3144   1
 -10  -1 -15 162.841 9.90883   3
  10   1  15 178.751 13.1490   1
  11  -1  15 33.9377 8.15045   1
 -11  -1 -15 28.6094 7.66107   1
 -11  -1 -15 25.6654 7.38515   1
 -11  -1 -15 29.7752 5.32084   3
  11   1  15 26.2444 7.31560   1
  12  -1  15 4.98028 6.16503   1
 -12  -1 -15 7.69081 6.28093   1
 -12  -1 -15 14.2743 4.37350   3
  12   1  15 3.49822 9.28761   1
  13  -1  15 59.1630 10.7685   1
 -13  -1 -15 65.9566 7.56257   3
 -13  -1 -15 75.7730 11.1142   1
 -14  -1 -15 -2.7379 5.63758   1
  14  -1  15 -8.4269 6.43354   1
 -14  -1 -15 7.94644 4.29777   3
 -19  -2  15 14.6956 4.41718   3
 -19  -2  15 16.8924 8.18427   2
  19  -2 -15 10.5214 7.59376   1
 -19  -2  15 21.5161 7.62847   1
 -18  -2  15 -1.8022 5.70964   1
  18  -2 -15 -4.0938 5.69349   1
 -18  -2  15 -1.5912 2.92498   3
  17  -2 -15 59.5865 9.72962   1
 -17  -2  15 69.3841 11.3536   2
 -17  -2  15 49.5201 6.06717   3
 -17  -2  15 50.0922 8.53899   1
 -16  -2  15 60.9212 10.7644   2
  16  -2 -15 61.4484 9.42194   1
 -16  -2  15 64.3888 6.58628   3
 -16  -2  15 59.3558 9.36606   1
 -15  -2  15 160.917 9.21145   3
  15  -2 -15 165.354 13.1186   1
 -15  -2  15 187.111 13.7058   1
 -15  -2  15 164.656 14.9009   2
 -14  -2  15 121.958 11.8185   1
  14  -2 -15 111.804 11.7435   1
 -14  -2  15 129.151 8.30901   3
 -14  -2  15 130.432 12.7397   2
 -13  -2  15 -3.6191 5.31478   2
 -13  -2  15 3.86551 2.99959   3
  13  -2 -15 -0.3635 4.53203   1
 -13  -2  15 0.96882 3.80998   3
 -13  -2  15 6.63953 5.69100   1
  13   2 -15 -3.5275 4.31821   1
 -12  -2  15 360.317 16.7260   1
  12  -2 -15 401.159 16.9818   1
 -12  -2  15 374.172 12.7260   3
 -12  -2  15 378.360 18.8080   2
 -12  -2  15 372.771 12.9448   3
  12   2 -15 403.762 16.5329   1
 -11  -2  15 378.803 12.7647   3
  11  -2 -15 407.943 16.9246   1
 -11  -2  15 392.560 18.5979   2
 -11  -2  15 372.486 12.4823   3
 -11  -2  15 416.916 17.1371   1
  11   2 -15 357.073 15.8013   1
 -10  -2  15 15.8912 3.51774   3
 -10  -2  15 18.8908 3.69313   3
 -10  -2  15 15.1645 5.52858   1
  10  -2 -15 -0.4345 4.13753   1
 -10  -2  15 12.6056 5.89483   2
  10   2 -15 11.7147 4.92878   1
   9  -2 -15 238.739 12.6665   1
  -9  -2  15 236.929 13.8847   2
  -9  -2  15 246.842 13.1366   1
  -9  -2  15 247.220 9.59010   3
  -9  -2  15 249.908 9.74056   3
   9   2 -15 268.181 12.8185   1
   8  -2 -15 117.350 9.51876   1
  -8  -2  15 127.895 6.88068   3
  -8  -2  15 118.961 6.96888   3
  -8  -2  15 124.296 9.91267   1
  -8  -2  15 105.442 10.6561   2
   8   2 -15 113.191 9.12151   1
  -7  -2  15 -3.8226 3.86118   1
   7  -2 -15 1.93385 4.10056   1
  -7  -2  15 -1.3827 4.00658   2
  -7  -2  15 1.55349 2.27959   3
  -7  -2  15 -1.8369 2.12402   3
   7   2 -15 0.96253 3.67436   1
  -6  -2  15 255.550 13.7995   2
   6  -2 -15 251.385 12.6822   1
  -6  -2  15 233.119 12.3134   1
  -6  -2  15 243.502 9.03860   3
  -6  -2  15 258.405 9.29969   3
   6   2 -15 229.813 11.3472   1
  -5  -2  15 270.816 14.1771   2
  -5  -2  15 241.065 12.5920   1
  -5  -2  15 250.758 8.93154   3
  -5  -2  15 268.313 9.40983   3
   5  -2 -15 265.144 12.6831   1
   5   2 -15 267.137 12.1199   1
   4  -2 -15 13.0288 4.87221   1
  -4  -2  15 18.3705 3.43051   3
  -4  -2  15 23.9582 5.61727   1
  -4  -2  15 14.6613 3.18592   3
  -4  -2  15 19.5668 5.70462   2
  -4   2  15 15.4330 4.53307   1
   4   2 -15 20.1901 5.03349   1
   3  -2 -15 -5.4009 3.49025   1
  -3  -2  15 -1.5413 4.12917   2
  -3  -2  15 -1.6512 4.05979   1
  -3  -2  15 -3.2538 1.87839   3
  -3  -2  15 -2.3575 1.91475   3
   3   2 -15 -5.7646 3.14369   1
  -3   2  15 -0.9511 3.09861   1
  -2  -2  15 561.062 13.5069   3
   2  -2 -15 551.538 18.4080   1
  -2  -2  15 539.468 13.4761   3
  -2  -2  15 532.956 19.9391   2
  -2  -2  15 549.556 18.3923   1
  -2   2  15 564.549 16.5193   1
   2   2 -15 536.853 16.9968   1
  -1  -2  15 474.738 18.8863   2
  -1  -2  15 443.785 11.9603   3
  -1  -2  15 470.612 17.0791   1
   1  -2 -15 451.018 16.6647   1
  -1  -2  15 465.076 12.0208   3
  -1   2  15 435.911 14.8244   1
   1   2 -15 452.309 15.2941   1
   0  -2  15 349.074 9.99951   3
   0  -2  15 323.344 9.87391   3
   0  -2 -15 336.791 14.9079   1
   0  -2  15 338.529 14.7712   1
   0   2  15 302.617 12.6239   1
   0   2 -15 328.809 13.3444   1
  -1  -2 -15 86.2268 8.90007   1
   1  -2  15 68.8885 4.86875   3
   1  -2  15 71.1748 8.21402   1
   1  -2  15 65.7789 5.01636   3
   1   2  15 65.7221 7.07836   1
  -1   2 -15 62.8204 7.07626   1
  -2  -2 -15 586.455 15.4398   2
   2  -2  15 538.288 18.9972   1
  -2  -2 -15 572.899 19.6131   1
   2  -2  15 537.138 13.3009   3
   2   2  15 518.396 17.4576   1
  -2   2 -15 516.730 16.9385   1
   3  -2  15 39.3977 4.20695   3
  -3  -2 -15 24.2103 5.81502   1
  -3  -2 -15 45.7584 6.67002   2
   3  -2  15 47.4882 7.34821   1
   3   2  15 38.8071 7.70881   1
  -4  -2 -15 145.034 11.0711   1
  -4  -2 -15 144.742 12.7826   2
   4  -2  15 146.191 11.2101   1
   4  -2  15 157.738 7.05772   3
  -5  -2 -15 199.219 13.0238   1
   5  -2  15 199.879 7.94995   3
   5  -2  15 215.773 13.2295   1
   6  -2  15 328.788 10.3794   3
   6  -2  15 362.052 16.8666   1
  -6  -2 -15 347.593 16.7494   1
   7  -2  15 28.9750 7.12697   1
   7  -2  15 32.4187 4.13890   3
  -7  -2 -15 42.9376 8.29712   1
  -8  -2 -15 95.0833 10.4033   1
   8  -2  15 104.843 11.2248   1
   8  -2  15 122.461 6.53864   3
   9  -2  15 0.69287 2.31960   3
  -9  -2 -15 3.61110 5.20849   1
   9  -2  15 0.10330 5.14148   1
 -10  -2 -15 3.66012 5.31317   1
  10  -2  15 -1.2713 2.08571   3
 -10  -2 -15 2.88306 5.21441   1
  10  -2  15 3.75310 5.94619   1
 -11  -2 -15 13.2823 3.86324   3
 -11  -2 -15 7.35415 6.44097   1
  11  -2  15 13.8215 7.07384   1
 -11  -2 -15 15.3243 7.13194   1
  11  -2  15 13.1661 3.14531   3
 -12  -2 -15 11.8013 6.82612   1
 -12  -2 -15 17.2343 4.37833   3
  12  -2  15 17.8427 7.99017   1
  12  -2  15 13.2340 3.08050   3
  13  -2  15 5.02404 2.65836   3
 -13  -2 -15 -1.3274 6.22686   1
  13  -2  15 7.02166 7.40412   1
 -13  -2 -15 4.19629 3.47231   3
 -18  -3  15 -0.8449 2.96677   3
 -18  -3  15 0.16859 3.13377   3
 -18  -3  15 -0.7408 6.57909   2
 -17  -3  15 19.5146 7.62711   1
  17  -3 -15 13.3259 7.19630   1
 -17  -3  15 11.9496 3.78283   3
 -17  -3  15 18.6072 8.05221   2
 -17  -3  15 11.3963 3.65440   3
 -16  -3  15 4.51206 3.12469   3
 -16  -3  15 1.80082 6.47615   2
 -16  -3  15 4.83689 2.91771   3
 -16  -3  15 0.71019 5.67113   1
  16  -3 -15 9.96038 6.44204   1
 -15  -3  15 46.5439 10.0777   2
 -15  -3  15 41.5030 4.73384   3
  15  -3 -15 44.8572 8.49681   1
 -15  -3  15 56.9000 5.36838   3
 -15  -3  15 39.3944 8.32279   1
  14  -3 -15 -0.6236 5.29024   1
 -14  -3  15 4.41280 2.57655   3
 -14  -3  15 -2.3013 5.14265   1
 -14  -3  15 1.73584 2.39402   3
 -14  -3  15 6.00904 6.38848   2
  13  -3 -15 0.80501 4.94962   1
 -13  -3  15 1.92480 2.12885   3
 -13  -3  15 5.87463 5.64478   1
 -13  -3  15 2.58458 2.34228   3
 -13  -3  15 -9.0143 4.65688   2
  12  -3 -15 53.0932 7.81355   1
 -12  -3  15 46.8417 4.33694   3
 -12  -3  15 37.9781 7.46870   1
 -12  -3  15 40.6086 4.08750   3
 -12  -3  15 45.7478 9.60555   2
 -11  -3  15 114.504 5.73266   3
 -11  -3  15 129.440 6.03049   3
 -11  -3  15 117.457 13.4249   2
  11  -3 -15 143.412 10.9855   1
 -11  -3  15 113.479 11.0237   1
  10  -3 -15 30.9443 6.11648   1
 -10  -3  15 42.1275 3.71235   3
 -10  -3  15 41.7134 9.13119   2
 -10  -3  15 44.8801 7.70492   1
 -10  -3  15 39.2094 3.74503   3
  -9  -3  15 57.9646 9.95891   2
  -9  -3  15 41.3950 7.03850   1
   9  -3 -15 62.8845 7.81515   1
  -9  -3  15 56.0648 4.06613   3
  -9  -3  15 52.8440 3.77364   3
  -8  -3  15 143.702 5.16945   3
  -8  -3  15 152.776 11.3871   1
   8  -3 -15 158.728 10.7848   1
  -8  -3  15 156.334 13.3823   2
  -8  -3  15 155.784 5.46233   3
  -7  -3  15 6.12353 4.36468   1
  -7  -3  15 7.97112 1.76282   3
  -7  -3  15 5.86910 1.58135   3
  -7  -3  15 5.68464 5.77686   2
   7  -3 -15 6.05083 4.25575   1
   6  -3 -15 17.9156 5.11899   1
  -6  -3  15 23.8413 6.94951   2
  -6  -3  15 26.3604 5.74515   1
   5  -3 -15 -1.6351 3.52146   1
  -5  -3  15 0.61784 3.90016   1
  -5  -3  15 -6.1096 4.37524   2
  -4  -3  15 41.6849 8.24002   2
   4  -3 -15 46.7998 6.61524   1
  -4  -3  15 32.7555 6.28012   1
  -3  -3  15 21.1931 5.54681   1
  -3  -3  15 11.1129 6.12074   2
   3  -3 -15 17.4095 4.98717   1
  -2  -3  15 476.772 20.8863   2
  -2  -3  15 496.098 17.6070   1
   2  -3 -15 430.207 16.6982   1
  -1  -3  15 27.2298 5.76882   1
   1  -3 -15 33.8288 6.25638   1
  -1  -3  15 29.9336 7.73410   2
   0  -3  15 17.9358 6.77465   2
   0  -3 -15 21.0305 5.52136   1
   0  -3  15 11.4799 4.98193   1
  -1  -3 -15 -0.8398 3.98960   1
   1  -3  15 6.16329 4.69770   1
   2  -3  15 82.1959 8.92325   1
  -2  -3 -15 90.2039 9.21383   1
   4  -3  15 10.2491 5.55760   1
   6  -3  15 62.0977 8.78020   1
  -6  -3 -15 69.6980 9.60182   1
   7  -3  15 -0.0198 5.30359   1
  -7  -3 -15 11.2750 5.83941   1
  -8  -3 -15 3.36460 5.50449   1
   8  -3  15 -4.7214 5.25114   1
   9  -3  15 6.38104 6.04584   1
  -9  -3 -15 2.18454 5.41784   1
 -10  -3 -15 2.01736 5.91741   1
 -10  -3 -15 -4.6659 5.19848   1
  10  -3  15 7.37244 6.16184   1
 -11  -3 -15 7.32647 6.78721   1
 -11  -3 -15 22.9489 7.53866   1
  11  -3  15 13.3518 7.72730   1
 -15  -4  15 107.587 15.4848   2
 -15  -4  15 108.244 12.1798   1
  15  -4 -15 100.841 11.4529   1
 -14  -4  15 324.351 21.8354   2
 -14  -4  15 322.335 18.1740   1
  14  -4 -15 342.728 17.3888   1
 -13  -4  15 9.36779 5.77630   1
 -13  -4  15 9.61383 7.95057   2
  13  -4 -15 2.84590 4.94274   1
 -12  -4  15 41.3810 7.93400   1
  12  -4 -15 42.2235 7.65140   1
 -12  -4  15 46.8647 10.0888   2
  11  -4 -15 198.250 12.7206   1
 -11  -4  15 202.904 17.5181   2
 -11  -4  15 190.566 13.3729   1
 -10  -4  15 -8.4144 5.47233   2
  10  -4 -15 -1.0885 4.23747   1
 -10  -4  15 -2.1854 4.62213   1
  -9  -4  15 22.0563 6.19677   1
  -9  -4  15 11.9439 7.26263   2
   9  -4 -15 30.2078 6.21386   1
  -8  -4  15 191.250 12.8898   1
   8  -4 -15 217.709 12.5589   1
  -8  -4  15 192.920 16.3532   2
  -7  -4  15 -6.4477 5.62429   2
   7  -4 -15 -5.0674 3.92049   1
  -7  -4  15 -1.8388 4.10624   1
   6  -4 -15 110.024 9.84854   1
  -6  -4  15 129.870 11.2036   1
  -6  -4  15 125.476 14.9077   2
  -5  -4  15 373.795 21.0031   2
   5  -4 -15 388.005 15.6777   1
  -5  -4  15 374.174 16.0821   1
  -4  -4  15 4.37908 7.04597   2
  -4  -4  15 14.0443 5.16431   1
   4  -4 -15 9.28923 4.74808   1
  -3  -4  15 69.2440 8.20269   1
   3  -4 -15 77.1451 8.29049   1
  -3  -4  15 57.2200 10.8190   2
  -2  -4  15 253.837 13.2313   1
  -2  -4  15 192.693 16.2751   2
   2  -4 -15 228.343 12.4815   1
  -1  -4  15 67.6818 10.9835   2
  -1  -4  15 64.1929 7.99108   1
   1  -4 -15 69.7922 8.45844   1
   0  -4  15 19.8650 5.69600   1
   0  -4 -15 21.9878 5.57928   1
   0  -4  15 20.8047 8.32004   2
   1  -4  15 0.03118 6.60745   2
  -1  -4 -15 -0.8829 4.18764   1
   1  -4  15 4.81936 4.72722   1
   2  -4  15 251.812 13.8373   1
  -2  -4 -15 250.677 14.0118   1
   3  -4  15 129.810 11.3936   1
  -3  -4 -15 115.598 10.7912   1
  -4  -4 -15 3.86238 5.06150   1
   4  -4  15 -6.4835 4.51761   1
   5  -4  15 87.7452 9.99706   1
  -5  -4 -15 105.825 11.2425   1
   6  -4  15 3.35159 5.49846   1
  -6  -4 -15 6.98179 5.39573   1
   7  -4  15 2.32218 5.73715   1
  -7  -4 -15 3.98726 5.64519   1
   8  -4  15 77.8120 10.3640   1
  -8  -4 -15 36.2307 8.27190   1
 -12  -5  15 9.94339 9.16377   2
 -12  -5  15 7.09191 5.97043   1
  12  -5 -15 -1.5509 4.74495   1
 -11  -5  15 8.44130 8.76642   2
  11  -5 -15 12.6075 5.50579   1
 -11  -5  15 16.6191 6.72025   1
 -10  -5  15 67.1299 9.48586   1
  10  -5 -15 57.9589 8.23192   1
 -10  -5  15 50.9865 11.1726   2
  -9  -5  15 27.4931 10.2256   2
   9  -5 -15 19.9028 6.17147   1
  -9  -5  15 22.6516 6.76066   1
  -8  -5  15 33.7859 7.22123   1
  -8  -5  15 30.1559 10.2672   2
   8  -5 -15 35.2360 6.73799   1
  -7  -5  15 12.1839 5.74338   1
   7  -5 -15 23.6933 5.65705   1
  -7  -5  15 26.1170 9.53066   2
  -6  -5  15 8.77379 7.76190   2
  -6  -5  15 7.19211 5.20868   1
   6  -5 -15 -5.2462 3.62843   1
  -5  -5  15 8.07463 8.05652   2
  -5  -5  15 0.09314 4.57608   1
   5  -5 -15 -7.2733 3.66319   1
  -4  -5  15 5.14376 5.17459   1
  -4  -5  15 6.00365 7.43233   2
   4  -5 -15 -5.0960 3.99042   1
  -3  -5  15 93.8260 9.83106   1
   3  -5 -15 103.145 9.82253   1
  -3  -5  15 102.874 14.2051   2
  -2  -5  15 67.3366 8.65979   1
  -2  -5  15 55.5677 11.7257   2
   2  -5 -15 59.8398 8.31801   1
  -1  -5  15 74.8041 12.8693   2
  -1  -5  15 69.4267 8.85916   1
   1  -5 -15 78.1349 8.90131   1
   0  -5  15 343.967 16.3024   1
   0  -5  15 320.223 22.5658   2
   0  -5 -15 294.125 15.3862   1
   1  -5  15 39.5816 10.5939   2
   1  -5  15 44.8679 7.87879   1
  -1  -5 -15 60.4199 8.39614   1
   2  -5  15 179.110 17.5021   2
   2  -5  15 139.941 12.1562   1
  -2  -5 -15 176.805 12.4889   1
  -3  -5 -15 164.112 12.4504   1
   3  -5  15 150.059 12.2800   1
   4  -5  15 90.5480 10.6016   1
  -4  -5 -15 83.2411 10.3493   1
   5  -5  15 10.5580 6.14295   1
  -5  -5 -15 7.51710 5.83260   1
  -6  -5 -15 4.56184 5.73534   1
   6  -5  15 23.8741 7.13467   1
  19   0 -16 54.0560 9.97967   1
  18   0 -16 186.777 16.1415   1
  17   0 -16 -2.1705 4.96661   1
 -16   0  16 0.86413 4.71358   1
 -16   0  16 5.81981 5.32348   2
  16   0 -16 4.90086 5.91631   1
 -15   0  16 245.389 13.8850   1
  15   0 -16 274.290 15.7928   1
 -15   0  16 249.807 14.2131   2
 -14   0  16 113.957 9.78838   2
 -14   0  16 108.662 10.4504   1
  14   0 -16 130.991 12.1853   1
 -13   0  16 41.2327 6.89439   1
  13   0 -16 46.4950 7.99949   1
 -13   0  16 51.3495 7.10462   2
 -12   0  16 716.867 20.6256   2
 -12   0  16 719.712 22.4659   1
  12   0 -16 718.054 23.2511   1
 -11   0  16 2173.49 43.9393   1
 -11   0  16 2101.19 40.3468   2
  11   0 -16 2113.61 44.6321   1
 -11   0  16 2109.89 40.3832   3
 -10   0  16 193.962 11.5159   1
  10   0 -16 192.533 12.1513   1
 -10   0  16 193.776 9.57610   2
 -10   0  16 189.704 9.87969   3
  -9   0  16 288.218 10.9148   2
  -9   0  16 301.401 11.7945   3
  -9   0  16 300.173 13.7225   1
   9   0 -16 307.742 14.3685   1
  -8   0  16 97.8286 8.93383   1
   8   0 -16 62.9322 7.50458   1
  -8   0  16 69.4833 5.92193   2
  -8   0  16 82.0504 7.29038   3
  -7   0  16 51.5541 5.00938   2
  -7   0  16 46.1699 6.63189   1
   7   0 -16 48.5956 6.80693   1
  -6   0  16 8.74465 3.03407   2
  -6   0  16 6.20135 4.34389   1
   6   0 -16 4.16529 4.15237   1
   5   0 -16 187.695 11.2051   1
  -5   0  16 174.597 10.7048   1
  -4   0  16 788.490 21.9859   1
   4   0 -16 771.242 22.4105   1
   3   0 -16 34.0716 6.04107   1
  -3   0  16 43.6622 6.48600   1
  -2   0  16 485.231 17.0718   1
   2   0 -16 501.565 17.4870   1
   1   0 -16 676.913 20.8536   1
  -1   0  16 706.823 20.8380   1
   0   0  16 137.014 10.2695   1
   0   0 -16 151.200 10.7027   1
  -1   0 -16 1235.38 30.3433   1
   1   0  16 1262.50 30.3738   1
  -2   0 -16 939.390 25.9138   1
   2   0  16 967.034 26.0854   1
   3   0  16 523.575 18.8798   1
  -3   0 -16 530.503 19.0297   1
  -3   0 -16 551.596 16.3946   3
   4   0  16 152.979 11.0332   1
  -4   0 -16 143.841 10.8364   1
  -4   0 -16 144.503 8.86007   3
   5   0  16 79.6336 8.99939   1
  -5   0 -16 87.3089 7.58101   3
  -5   0 -16 89.8120 9.38831   1
  -6   0 -16 19.3244 5.76010   1
  -6   0 -16 25.2076 4.75573   3
   6   0  16 16.1475 5.79956   1
   7   0  16 6.74217 5.43982   1
  -7   0 -16 -5.4875 2.98569   3
  -7   0 -16 7.79127 5.17599   1
   8   0  16 118.577 11.3950   1
  -8   0 -16 116.452 11.2924   1
  -8   0 -16 127.210 9.19667   3
   9   0  16 -6.4598 5.06773   1
  -9   0 -16 9.74404 5.68985   1
  -9   0 -16 -0.6457 4.89371   1
  10   0  16 31.1323 7.98828   1
 -10   0 -16 17.5255 6.56560   1
 -10   0 -16 20.4147 6.86459   1
  11   0  16 244.780 16.6580   1
 -11   0 -16 311.773 17.1086   1
  12   0  16 0.92507 6.29760   1
 -12   0 -16 6.65026 7.34993   1
  13   0  16 -1.2843 6.43894   1
 -19  -1  16 175.967 14.4351   2
  19  -1 -16 124.235 14.0571   1
 -19  -1  16 105.218 12.0117   1
  19   1 -16 108.836 13.1521   1
 -18  -1  16 44.6654 8.72761   1
  18  -1 -16 25.1334 8.57891   1
 -18  -1  16 57.1265 8.83318   2
  18   1 -16 17.9339 7.44943   1
 -17  -1  16 0.85266 5.56980   1
  17  -1 -16 -6.1831 5.48149   1
 -17  -1  16 -0.7333 3.41135   3
 -17  -1  16 8.23605 5.71204   2
  17   1 -16 -4.8358 5.44724   1
 -16  -1  16 23.5159 5.34696   3
 -16  -1  16 23.6706 6.92219   1
 -16  -1  16 28.8978 7.19842   2
  16  -1 -16 32.4587 8.25223   1
  16   1 -16 18.3436 7.02953   1
 -15  -1  16 5.87428 5.46164   2
 -15  -1  16 -2.7559 4.66652   1
 -15  -1  16 7.49322 3.76460   3
  15  -1 -16 -5.5347 5.04143   1
  15   1 -16 -2.6465 4.93556   1
 -14  -1  16 16.2159 5.89968   2
 -14  -1  16 15.8877 5.65136   1
  14  -1 -16 11.1739 6.13341   1
 -14  -1  16 9.48487 3.86328   3
  14   1 -16 14.0379 6.04971   1
  13  -1 -16 2.02116 5.15500   1
 -13  -1  16 -5.2479 4.14309   2
 -13  -1  16 -0.9901 2.70846   3
 -13  -1  16 4.15911 5.00805   1
  13   1 -16 5.50512 4.95395   1
 -12  -1  16 141.394 11.0770   1
 -12  -1  16 142.725 8.82514   3
 -12  -1  16 129.573 10.6858   2
  12  -1 -16 141.625 11.4230   1
  12   1 -16 145.076 11.7265   1
 -12   1  16 134.597 14.3532   1
 -11  -1  16 117.863 10.1769   2
  11  -1 -16 135.004 11.5866   1
 -11  -1  16 122.955 8.19821   3
 -11  -1  16 141.239 10.8021   1
  11   1 -16 121.167 10.6813   1
 -11   1  16 139.564 10.2619   1
 -10  -1  16 937.381 25.4699   2
  10  -1 -16 921.692 26.2124   1
 -10  -1  16 984.077 22.7236   3
 -10  -1  16 985.963 26.5368   1
 -10   1  16 960.719 25.0654   1
  10   1 -16 967.534 26.6235   1
  -9  -1  16 555.924 15.8264   3
  -9  -1  16 527.463 18.7530   1
   9  -1 -16 530.428 19.0934   1
  -9  -1  16 508.820 17.7892   2
  -9   1  16 530.209 17.5212   1
   9   1 -16 560.357 19.2754   1
  -8  -1  16 22.3364 3.92866   3
  -8  -1  16 22.4145 5.52850   1
  -8  -1  16 27.7966 5.51514   2
   8  -1 -16 18.0539 5.62758   1
  -8   1  16 26.2956 5.63692   1
   8   1 -16 31.6898 6.03282   1
  -7  -1  16 413.776 16.2788   1
   7  -1 -16 419.197 16.4137   1
  -7  -1  16 422.778 15.3894   2
  -7  -1  16 434.808 13.6548   3
  -7  -1  16 456.387 16.0404   3
   7   1 -16 438.974 16.5703   1
  -7   1  16 444.997 15.7514   1
  -6  -1  16 18.3122 3.79458   3
   6  -1 -16 20.9161 5.36536   1
  -6  -1  16 12.6812 5.23747   1
  -6  -1  16 18.5919 4.70649   2
  -6  -1  16 16.5152 3.58368   3
  -6   1  16 18.9719 4.79658   1
   6   1 -16 22.0094 5.40157   1
   5  -1 -16 10.3496 4.84890   1
  -5  -1  16 17.3591 3.60436   3
  -5  -1  16 14.7406 3.65874   3
  -5  -1  16 9.66573 4.97047   1
  -5  -1  16 19.7462 4.92301   2
  -5   1  16 11.5683 4.58710   1
   5   1 -16 5.13736 4.22008   1
  -4  -1  16 318.580 13.3579   2
   4  -1 -16 320.909 14.2881   1
  -4  -1  16 317.619 11.1766   3
  -4  -1  16 338.085 11.6973   3
  -4  -1  16 325.592 14.3018   1
  -4   1  16 330.233 13.6875   1
   4   1 -16 320.522 13.8591   1
  -3  -1  16 222.403 9.62112   3
  -3  -1  16 226.849 11.4202   2
   3  -1 -16 243.472 12.6291   1
  -3  -1  16 225.354 12.2610   1
   3   1 -16 215.697 11.5073   1
  -3   1  16 226.137 11.4482   1
  -2  -1  16 12.8159 3.45665   3
  -2  -1  16 9.75245 5.03746   1
   2  -1 -16 4.44664 4.41301   1
  -2   1  16 11.4696 4.65379   1
   2   1 -16 8.01975 4.36481   1
  -1  -1  16 533.999 15.0766   3
  -1  -1  16 536.858 18.5178   1
   1  -1 -16 506.707 18.1373   1
   1   1 -16 518.761 17.8410   1
  -1   1  16 528.717 17.3908   1
   0  -1  16 270.201 10.6173   3
   0  -1  16 313.020 14.2846   1
   0  -1 -16 281.730 13.7261   1
   0   1  16 292.105 13.0091   1
   0   1 -16 284.964 13.2573   1
   0   1 -16 276.210 11.3988   3
   1  -1  16 95.8267 7.01837   3
   1  -1  16 105.154 9.77652   1
  -1  -1 -16 102.192 9.74623   1
  -1   1 -16 127.937 9.62240   1
  -1   1 -16 99.4605 7.70409   3
   1   1  16 114.155 9.31993   1
  -2  -1 -16 198.078 12.2237   1
   2  -1  16 232.144 12.7985   1
   2  -1  16 208.496 9.57417   3
  -2   1 -16 209.790 10.9616   3
  -2   1 -16 202.391 11.7880   1
   2   1  16 194.155 11.4756   1
   3  -1  16 357.860 12.4677   3
   3  -1  16 371.799 16.1157   1
  -3  -1 -16 381.133 16.3800   1
  -3   1 -16 391.584 15.8774   1
   3   1  16 380.515 15.6550   1
   4  -1  16 2.59213 4.70826   1
  -4  -1 -16 3.34767 4.68704   1
   4  -1  16 3.20835 2.97361   3
  -4   1 -16 0.56195 3.88647   1
   4   1  16 1.14945 4.27121   1
  -5  -1 -16 14.2662 5.68887   1
   5  -1  16 18.5569 4.54413   3
   5  -1  16 13.3871 5.77716   1
  -5   1 -16 17.6723 5.56103   1
   5   1  16 21.3000 6.13199   1
   6  -1  16 57.0991 8.68829   1
  -6  -1 -16 59.9032 6.38683   3
  -6  -1 -16 59.8787 8.66759   1
  -6   1 -16 56.1013 7.87171   1
   6   1  16 52.0330 7.93186   1
  -7  -1 -16 137.007 8.96805   3
  -7  -1 -16 125.544 11.9717   1
   7  -1  16 122.518 11.4883   1
   7   1  16 112.518 10.7379   1
  -7   1 -16 136.228 10.8842   1
  -7   1 -16 137.586 11.5372   1
   8  -1  16 17.0745 6.54714   1
  -8  -1 -16 18.7156 4.60557   3
  -8  -1 -16 23.2893 6.96483   1
  -8   1 -16 41.6222 11.1791   1
   8   1  16 9.73690 5.72563   1
  -8   1 -16 6.18238 7.48289   1
  -9  -1 -16 39.6797 5.78399   3
  -9  -1 -16 35.9879 7.73462   1
  -9  -1 -16 52.9522 8.77412   1
   9  -1  16 43.9216 8.83500   1
   9   1  16 29.1815 7.22348   1
 -10  -1 -16 170.588 13.6351   1
 -10  -1 -16 167.237 14.5865   1
 -10  -1 -16 148.672 9.84947   3
  10  -1  16 159.302 14.0580   1
  10   1  16 144.959 13.2711   1
 -11  -1 -16 34.4066 5.77937   3
  11  -1  16 45.7513 9.52430   1
 -11  -1 -16 36.7850 8.34015   1
 -11  -1 -16 39.4287 8.28645   1
 -12  -1 -16 16.5259 4.93882   3
 -12  -1 -16 28.7795 8.07538   1
  12  -1  16 21.5403 8.24986   1
  13  -1  16 -1.2277 6.82197   1
 -13  -1 -16 -0.1450 6.24136   1
 -13  -1 -16 -0.6181 3.54186   3
 -18  -2  16 3.18501 6.14414   1
 -18  -2  16 -0.0696 3.40065   3
 -18  -2  16 3.25958 6.20121   2
  18  -2 -16 -6.8930 5.82415   1
  17  -2 -16 21.3805 7.47506   1
 -17  -2  16 18.9474 4.71402   3
 -17  -2  16 5.87026 5.73673   1
 -17  -2  16 23.3300 7.80448   2
 -16  -2  16 35.2862 5.58610   3
 -16  -2  16 35.7088 8.49270   2
  16  -2 -16 42.6832 8.87936   1
 -16  -2  16 31.9761 8.00711   1
 -15  -2  16 15.2092 6.64507   1
 -15  -2  16 13.4841 7.17609   2
  15  -2 -16 9.30485 5.92805   1
 -15  -2  16 17.6514 4.34813   3
  14  -2 -16 27.6197 7.14723   1
 -14  -2  16 28.8795 6.97859   1
 -14  -2  16 34.2179 8.21956   2
 -14  -2  16 21.5446 4.43717   3
 -13  -2  16 45.6827 5.51699   3
 -13  -2  16 42.3040 8.62830   2
  13  -2 -16 47.0986 8.27185   1
 -13  -2  16 52.9046 8.13561   1
 -12  -2  16 440.939 20.4450   2
 -12  -2  16 433.498 14.1725   3
  12  -2 -16 486.727 19.2109   1
 -12  -2  16 471.976 15.1008   3
 -12  -2  16 469.679 19.1413   1
  12   2 -16 457.014 19.3272   1
 -11  -2  16 12.0759 5.67645   1
 -11  -2  16 20.3109 4.30820   3
 -11  -2  16 11.6952 6.24930   2
 -11  -2  16 21.8388 4.08637   3
  11  -2 -16 9.03718 5.22881   1
  11   2 -16 18.0298 5.58006   1
 -10  -2  16 343.448 15.6973   1
  10  -2 -16 311.207 14.9654   1
 -10  -2  16 324.694 11.4119   3
 -10  -2  16 321.148 11.6287   3
 -10  -2  16 303.756 16.1067   2
  10   2 -16 314.871 14.4148   1
  -9  -2  16 14.5496 3.66532   3
  -9  -2  16 19.0636 5.52513   1
  -9  -2  16 15.5661 3.44960   3
   9  -2 -16 13.5005 5.10374   1
  -9  -2  16 18.6906 6.12886   2
   9   2 -16 17.1976 5.17337   1
  -8  -2  16 314.295 11.1670   3
  -8  -2  16 295.552 15.3941   2
   8  -2 -16 333.643 14.8901   1
  -8  -2  16 317.850 10.9892   3
  -8  -2  16 322.645 14.9098   1
   8   2 -16 313.130 14.1780   1
  -7  -2  16 23.0718 3.98451   3
  -7  -2  16 24.6183 5.69036   1
  -7  -2  16 24.1831 6.29323   2
  -7  -2  16 26.9401 4.05515   3
   7  -2 -16 22.2028 5.83894   1
   7   2 -16 24.9184 5.48875   1
   6  -2 -16 30.5987 5.96307   1
  -6  -2  16 29.5575 4.07469   3
  -6  -2  16 38.2181 6.92537   2
  -6  -2  16 31.9068 6.52974   1
  -6  -2  16 38.4235 4.70893   3
   6   2 -16 45.7130 6.60379   1
  -5  -2  16 53.3737 7.84900   2
  -5  -2  16 55.9213 5.17638   3
   5  -2 -16 50.7311 7.33198   1
  -5  -2  16 50.9500 4.88086   3
  -5  -2  16 36.7894 6.51862   1
   5   2 -16 40.3001 6.37236   1
  -4  -2  16 -0.4573 4.15376   2
  -4  -2  16 -7.6421 3.89981   1
  -4  -2  16 0.72630 2.36781   3
   4  -2 -16 -1.0818 3.97563   1
  -4  -2  16 2.12076 2.56216   3
   4   2 -16 0.78554 3.79513   1
  -3  -2  16 395.242 17.3061   2
  -3  -2  16 368.795 11.2166   3
   3  -2 -16 392.576 16.0182   1
  -3  -2  16 361.198 15.4577   1
  -3  -2  16 394.113 11.5596   3
   3   2 -16 380.984 14.7153   1
  -2  -2  16 500.057 19.8591   2
   2  -2 -16 536.956 18.5449   1
  -2  -2  16 473.106 13.0854   3
  -2  -2  16 502.212 13.1353   3
  -2  -2  16 517.113 18.4958   1
   2   2 -16 496.873 16.9114   1
  -1  -2  16 4.94786 2.33505   3
  -1  -2  16 6.51945 2.74115   3
  -1  -2  16 4.75432 4.46126   1
   1  -2 -16 8.95236 4.94193   1
  -1  -2  16 11.2089 5.45979   2
   1   2 -16 4.71424 4.12250   1
   0  -2  16 21.1224 5.74981   1
   0  -2  16 19.6198 3.21716   3
   0  -2 -16 8.07440 4.79179   1
   0  -2  16 21.2820 3.55120   3
   0   2 -16 22.9296 5.44998   1
   1  -2  16 10.7111 2.64895   3
   1  -2  16 6.89595 5.25563   1
   1  -2  16 8.69940 2.78126   3
  -1  -2 -16 7.26328 4.88063   1
  -1   2 -16 7.96265 4.81145   1
   2  -2  16 73.1602 8.95252   1
  -2  -2 -16 96.1380 9.83789   1
   2  -2  16 92.0034 5.88952   3
   3  -2  16 0.02049 2.20176   3
  -3  -2 -16 -0.2010 4.53093   1
   3  -2  16 3.14680 4.73565   1
  -4  -2 -16 41.9648 7.41678   1
   4  -2  16 55.8505 8.15730   1
   4  -2  16 51.9979 4.98405   3
  -4  -2 -16 32.4841 8.93348   2
   5  -2  16 -0.5229 2.36160   3
   5  -2  16 -1.5068 4.91707   1
  -5  -2 -16 3.50283 5.00058   1
   6  -2  16 -1.5893 2.39946   3
  -6  -2 -16 -1.5724 4.74234   1
   6  -2  16 -4.8263 4.90227   1
   7  -2  16 10.2464 3.03470   3
  -7  -2 -16 1.26760 5.34365   1
   7  -2  16 1.82870 5.34053   1
   8  -2  16 -4.2109 5.13129   1
   8  -2  16 2.99793 2.42401   3
  -8  -2 -16 2.40090 5.32141   1
   9  -2  16 2.59845 2.58415   3
   9  -2  16 5.75516 6.08164   1
  -9  -2 -16 1.38864 5.12426   1
  10  -2  16 18.2637 7.49019   1
 -10  -2 -16 14.4061 6.84265   1
 -10  -2 -16 10.5525 6.71868   1
  10  -2  16 10.7232 3.07738   3
  11  -2  16 38.4434 4.50144   3
  11  -2  16 55.9557 10.6904   1
 -11  -2 -16 47.0022 9.12309   1
 -11  -2 -16 46.9847 9.01513   1
  12  -2  16 8.02103 7.36701   1
  12  -2  16 5.65233 2.84127   3
 -12  -2 -16 2.89115 6.19391   1
 -17  -3  16 47.2143 9.51284   1
 -17  -3  16 53.0420 5.83096   3
  17  -3 -16 48.5732 9.84266   1
 -17  -3  16 45.9977 5.36542   3
 -17  -3  16 53.3530 11.2910   2
 -16  -3  16 11.9411 3.36135   3
 -16  -3  16 7.22831 6.39211   1
  16  -3 -16 10.8832 7.19193   1
 -16  -3  16 3.19655 3.16995   3
 -16  -3  16 10.1631 7.17814   2
 -15  -3  16 89.5893 6.32932   3
 -15  -3  16 82.7275 6.46095   3
 -15  -3  16 79.1788 12.1225   2
  15  -3 -16 81.7384 10.6866   1
 -15  -3  16 98.5425 12.0270   1
  14  -3 -16 25.9972 7.21953   1
 -14  -3  16 41.3773 4.60270   3
 -14  -3  16 34.6089 8.14633   1
 -14  -3  16 30.1712 3.99408   3
 -14  -3  16 35.9279 9.05805   2
  13  -3 -16 15.6173 6.35406   1
 -13  -3  16 18.0557 3.53695   3
 -13  -3  16 14.8262 7.50191   2
 -13  -3  16 19.1380 3.29310   3
 -13  -3  16 13.6531 6.50635   1
 -12  -3  16 109.300 13.4042   2
 -12  -3  16 100.541 5.89428   3
 -12  -3  16 115.644 6.37148   3
  12  -3 -16 88.1515 9.86986   1
 -12  -3  16 125.613 11.9312   1
 -11  -3  16 85.4384 5.21271   3
 -11  -3  16 82.2030 5.30366   3
 -11  -3  16 76.6816 9.22410   1
  11  -3 -16 75.3879 9.18201   1
 -11  -3  16 90.4518 11.9698   2
 -10  -3  16 20.4369 2.95580   3
 -10  -3  16 22.3050 7.81974   2
 -10  -3  16 26.8564 6.43797   1
 -10  -3  16 24.4448 3.18279   3
  10  -3 -16 24.2851 6.12003   1
  -9  -3  16 53.6518 3.97869   3
  -9  -3  16 45.7105 7.56455   1
  -9  -3  16 59.3797 4.29942   3
   9  -3 -16 52.5287 7.71494   1
  -9  -3  16 46.3901 8.78977   2
   8  -3 -16 28.4002 6.23142   1
  -8  -3  16 29.8941 3.03871   3
  -8  -3  16 27.3037 3.00954   3
  -8  -3  16 26.0569 6.20736   1
  -8  -3  16 30.3930 8.01508   2
  -7  -3  16 85.1636 4.24873   3
  -7  -3  16 85.2387 9.41224   1
   7  -3 -16 87.6037 9.18118   1
  -7  -3  16 85.3683 11.0812   2
  -7  -3  16 84.9200 4.14776   3
  -6  -3  16 70.8084 10.1898   2
  -6  -3  16 71.1156 8.69669   1
   6  -3 -16 65.4423 7.79353   1
  -5  -3  16 110.487 10.1518   1
  -5  -3  16 120.413 12.6160   2
   5  -3 -16 117.466 10.2901   1
  -4  -3  16 16.9070 7.07160   2
   4  -3 -16 19.8306 5.45376   1
  -4  -3  16 9.57924 5.00401   1
   3  -3 -16 8.57833 4.66410   1
  -3  -3  16 6.13118 6.00173   2
  -3  -3  16 7.95733 4.69917   1
   2  -3 -16 6.45425 4.55507   1
  -2  -3  16 7.66772 5.83742   2
  -2  -3  16 2.58496 4.27138   1
   1  -3 -16 5.61983 4.51822   1
  -1  -3  16 0.28266 5.21475   2
  -1  -3  16 4.67912 4.67768   1
   0  -3  16 1.25516 4.40629   1
   0  -3  16 3.88111 5.69319   2
   0  -3 -16 -2.3582 3.87083   1
   1  -3  16 17.8256 5.91964   1
  -1  -3 -16 7.39511 4.85107   1
  -2  -3 -16 0.14351 4.38290   1
   2  -3  16 -4.0072 4.16077   1
  -3  -3 -16 275.318 14.8155   1
   3  -3  16 281.292 15.2518   1
   4  -3  16 101.617 10.7222   1
  -4  -3 -16 69.3258 8.94834   1
  -5  -3 -16 -0.3277 5.02658   1
   5  -3  16 -7.2222 4.62289   1
  -6  -3 -16 57.6349 8.90355   1
   6  -3  16 86.6504 10.4263   1
   7  -3  16 102.742 11.0711   1
  -7  -3 -16 113.098 11.9273   1
  10  -3  16 206.632 15.8223   1
 -10  -3 -16 196.656 15.9624   1
 -10  -3 -16 220.018 16.4108   1
 -11  -3 -16 39.6359 9.44861   1
 -15  -4  16 7.82233 6.48398   1
  15  -4 -16 -1.8742 5.36788   1
 -15  -4  16 3.77627 7.88160   2
  14  -4 -16 11.4176 6.28150   1
 -14  -4  16 32.3128 9.86511   2
 -14  -4  16 25.5124 7.53541   1
 -13  -4  16 16.0915 6.94621   1
 -13  -4  16 19.5035 8.68370   2
  13  -4 -16 16.2555 6.16992   1
 -12  -4  16 44.9310 8.35565   1
 -12  -4  16 39.8051 10.4899   2
  12  -4 -16 42.2113 7.67045   1
  11  -4 -16 9.15426 5.35601   1
 -11  -4  16 16.7754 6.30689   1
 -11  -4  16 11.3823 7.91798   2
 -10  -4  16 38.9053 10.2752   2
 -10  -4  16 36.2148 7.52149   1
  10  -4 -16 56.9273 8.05683   1
  -9  -4  16 -2.9836 4.73560   1
   9  -4 -16 -0.9171 4.53626   1
  -9  -4  16 3.02088 6.61843   2
  -8  -4  16 115.365 14.4496   2
   8  -4 -16 136.552 10.7684   1
  -8  -4  16 109.918 10.9021   1
  -7  -4  16 31.1042 6.68943   1
   7  -4 -16 35.6262 6.49727   1
  -7  -4  16 33.0063 9.37689   2
  -6  -4  16 16.6227 8.41288   2
   6  -4 -16 27.3160 5.87173   1
  -6  -4  16 11.2091 5.37821   1
  -5  -4  16 29.2384 9.12334   2
   5  -4 -16 35.7181 6.43130   1
  -5  -4  16 28.0927 6.17097   1
  -4  -4  16 53.3426 10.4900   2
   4  -4 -16 67.6746 8.28823   1
  -4  -4  16 62.2457 8.28763   1
   3  -4 -16 10.8879 5.05645   1
  -3  -4  16 12.2313 5.27608   1
  -3  -4  16 6.75461 7.26055   2
  -2  -4  16 65.5782 11.6546   2
  -2  -4  16 73.1978 8.64767   1
   2  -4 -16 47.9034 7.46257   1
  -1  -4  16 3.58757 4.87642   1
  -1  -4  16 4.49239 6.43606   2
   1  -4 -16 -5.9212 3.93826   1
   0  -4 -16 1.69206 4.31700   1
   0  -4  16 -2.5441 6.44477   2
   0  -4  16 -3.2728 4.18579   1
   1  -4  16 7.53826 5.25426   1
  -1  -4 -16 2.88211 4.77820   1
   1  -4  16 7.04019 6.97067   2
  -2  -4 -16 4.01600 4.97653   1
   2  -4  16 11.8381 5.53925   1
   3  -4  16 2.21050 5.02636   1
  -3  -4 -16 1.27281 4.78492   1
   4  -4  16 111.110 11.2248   1
  -4  -4 -16 99.0168 10.5922   1
  -5  -4 -16 6.85314 5.61312   1
   5  -4  16 12.8579 6.29497   1
   6  -4  16 24.7987 7.27325   1
  -6  -4 -16 20.9843 7.21095   1
   7  -4  16 17.6323 7.20498   1
  -7  -4 -16 14.4784 6.51228   1
   8  -4  16 28.2296 7.96226   1
  -8  -4 -16 20.4093 7.45979   1
 -11  -5  16 28.8657 7.57190   1
 -11  -5  16 33.9137 10.8630   2
  11  -5 -16 27.7883 7.12499   1
  10  -5 -16 10.5313 6.08992   1
 -10  -5  16 9.80280 6.04764   1
 -10  -5  16 16.4840 9.45829   2
  -9  -5  16 25.9132 10.2917   2
   9  -5 -16 41.8044 7.69562   1
  -9  -5  16 44.0062 8.52415   1
   8  -5 -16 0.66455 4.53842   1
  -8  -5  16 -2.4402 5.15810   1
  -8  -5  16 -2.9417 7.06200   2
  -7  -5  16 4.15089 5.39264   1
  -7  -5  16 -3.0870 7.22912   2
   7  -5 -16 -4.1230 4.16564   1
   6  -5 -16 -1.5689 4.30292   1
  -6  -5  16 -6.6725 4.59915   1
  -6  -5  16 1.89970 7.05958   2
   5  -5 -16 20.1394 6.00051   1
  -5  -5  16 18.6808 6.18522   1
  -5  -5  16 19.3299 9.83245   2
   4  -5 -16 79.1523 9.13814   1
  -4  -5  16 85.8992 9.72250   1
  -4  -5  16 74.4445 12.7719   2
   3  -5 -16 5.06637 5.04094   1
  -3  -5  16 1.46173 5.03600   1
  -3  -5  16 3.41845 7.77521   2
  -2  -5  16 -1.3376 7.69625   2
  -2  -5  16 3.62580 5.13332   1
   2  -5 -16 -2.2145 4.58178   1
  -1  -5  16 1.21035 5.39538   1
  -1  -5  16 -0.3125 8.01596   2
   1  -5 -16 -3.0110 4.37107   1
   0  -5  16 1.71402 5.25272   1
   0  -5 -16 -0.7806 4.59018   1
   0  -5  16 1.76833 8.29063   2
   1  -5  16 13.9847 9.35682   2
  -1  -5 -16 8.32138 5.74559   1
   1  -5  16 11.8666 5.96849   1
   2  -5  16 7.31285 5.63523   1
  -2  -5 -16 1.78787 4.76516   1
  -3  -5 -16 24.1506 6.75316   1
   3  -5  16 39.1930 7.77375   1
   4  -5  16 6.39672 5.91652   1
  -4  -5 -16 7.04648 5.52187   1
  19   0 -17 -1.3619 6.71110   1
  18   0 -17 -3.0328 6.29362   1
  17   0 -17 -2.5036 5.78339   1
  16   0 -17 -0.2768 5.41877   1
 -16   0  17 2.64717 6.16530   1
  15   0 -17 1.48620 5.33702   1
 -15   0  17 3.62784 4.94458   1
  14   0 -17 -8.0392 4.44750   1
 -14   0  17 0.73091 4.53593   1
 -13   0  17 -0.6402 4.36583   1
  13   0 -17 7.25567 5.45153   1
 -12   0  17 3.50208 4.49175   1
  12   0 -17 -2.5906 4.41744   1
  11   0 -17 1.15343 4.37702   1
 -11   0  17 7.67625 5.02509   1
 -10   0  17 2.97922 3.37055   3
  10   0 -17 7.56253 4.88921   1
 -10   0  17 2.64137 4.36205   1
  -9   0  17 0.28972 3.94147   1
  -9   0  17 -3.5161 2.49961   3
   9   0 -17 -3.5018 3.86972   1
   8   0 -17 2.79109 4.12077   1
  -8   0  17 -2.4609 2.34719   3
  -8   0  17 -2.5578 3.93870   1
   7   0 -17 -6.6159 3.63182   1
  -7   0  17 -2.3963 2.53187   2
  -7   0  17 -4.9438 3.17364   1
  -6   0  17 -0.6159 2.26893   2
  -6   0  17 0.66398 4.08638   1
   6   0 -17 -3.9785 3.41638   1
  -5   0  17 0.56255 4.11759   1
   5   0 -17 -6.9133 3.59460   1
  -4   0  17 -5.7963 3.52048   1
   4   0 -17 -1.5180 4.16146   1
  -3   0  17 -3.5657 3.86821   1
   3   0 -17 -3.2561 3.50304   1
   2   0 -17 1.37949 4.35373   1
  -2   0  17 -2.6313 3.84013   1
  -1   0  17 1.87536 4.50980   1
   1   0 -17 -0.2153 4.24335   1
   0   0  17 -1.3465 4.25266   1
   0   0 -17 -3.3457 4.33056   1
   1   0  17 2.92220 4.60823   1
  -1   0 -17 5.29116 4.52192   1
  -2   0 -17 3.93430 4.43869   1
   2   0  17 1.16359 4.04526   1
  -3   0 -17 -6.1987 3.95757   1
  -3   0 -17 -1.5760 2.85365   3
   3   0  17 0.41829 4.30938   1
  -4   0 -17 -0.9409 4.28502   1
  -4   0 -17 -0.3652 2.89960   3
   4   0  17 2.69444 4.54019   1
  -5   0 -17 -2.2047 4.07994   1
  -5   0 -17 0.71720 3.27721   3
   5   0  17 -0.7874 4.65704   1
  -6   0 -17 -3.0405 2.76897   3
   6   0  17 -5.0182 4.34919   1
  -6   0 -17 -0.4489 4.43439   1
  -7   0 -17 2.08722 3.11082   3
  -7   0 -17 -5.3281 4.52534   1
   7   0  17 -2.2681 4.92484   1
  -8   0 -17 -2.9394 4.79469   1
   8   0  17 -4.8770 4.74205   1
  -9   0 -17 -0.8129 4.95875   1
   9   0  17 -0.1913 5.31174   1
  -9   0 -17 0.06040 5.20069   1
  10   0  17 -7.4336 5.41679   1
 -10   0 -17 7.54670 6.22817   1
 -10   0 -17 3.08093 6.23240   1
 -11   0 -17 0.12209 5.91912   1
  11   0  17 5.80772 6.57331   1
  12   0  17 -3.0666 6.20486   1
 -19  -1  17 -1.9943 5.66879   1
  19  -1 -17 -3.2419 6.69297   1
  19   1 -17 -3.5611 6.65220   1
 -18  -1  17 3.14684 6.02058   1
  18  -1 -17 5.85464 6.55357   1
  18   1 -17 4.37804 6.08206   1
 -17  -1  17 59.6620 8.04966   3
 -17  -1  17 53.0462 9.15741   1
  17  -1 -17 53.0733 9.51161   1
 -17  -1  17 75.0593 10.2240   2
  17   1 -17 48.8876 9.56755   1
 -16  -1  17 125.667 9.76749   3
 -16  -1  17 125.050 12.1102   1
 -16  -1  17 119.031 11.6220   2
  16  -1 -17 98.1408 11.8988   1
  16   1 -17 122.661 12.6226   1
  15  -1 -17 -0.2675 5.63924   1
 -15  -1  17 -6.6662 4.66322   1
 -15  -1  17 -0.1396 3.11292   3
 -15  -1  17 4.57535 5.01422   2
  15   1 -17 -3.2354 5.03826   1
  14  -1 -17 2.55350 5.29651   1
 -14  -1  17 12.4646 5.97986   1
 -14  -1  17 13.2274 4.06533   3
 -14  -1  17 6.66164 5.27385   2
  14   1 -17 6.07818 5.51397   1
  13  -1 -17 49.7424 8.33192   1
 -13  -1  17 59.9427 6.63059   3
 -13  -1  17 35.3601 7.36336   1
 -13  -1  17 58.1856 8.57283   2
  13   1 -17 43.9980 7.83460   1
  12  -1 -17 25.8625 6.38173   1
 -12  -1  17 23.3321 5.92496   1
 -12  -1  17 31.2774 5.10049   3
 -12  -1  17 30.5506 6.70025   2
  12   1 -17 35.1827 6.90968   1
 -11  -1  17 17.1192 5.50159   2
 -11  -1  17 11.9025 3.51330   3
 -11  -1  17 16.2578 5.37126   1
  11  -1 -17 12.0977 5.36939   1
  11   1 -17 5.01311 4.88495   1
 -11   1  17 11.3264 7.27135   1
 -10  -1  17 2.27534 2.90485   3
  10  -1 -17 -10.673 3.83520   1
 -10  -1  17 -0.5021 3.95511   2
 -10  -1  17 -4.0863 3.98730   1
 -10   1  17 2.08381 3.97667   1
  10   1 -17 2.23553 4.67889   1
  -9  -1  17 266.111 13.7977   1
  -9  -1  17 249.964 12.7777   2
   9  -1 -17 243.849 13.7562   1
  -9  -1  17 271.225 11.2732   3
   9   1 -17 283.715 14.0956   1
  -9   1  17 284.088 13.2417   1
   8  -1 -17 11.9431 5.37071   1
  -8  -1  17 11.0288 5.13690   1
  -8  -1  17 2.83932 4.16617   2
  -8  -1  17 7.80030 3.42888   3
  -8   1  17 4.60173 4.29112   1
   8   1 -17 9.52571 5.02886   1
   7  -1 -17 186.337 11.9624   1
  -7  -1  17 180.772 9.21003   3
  -7  -1  17 162.853 10.2608   2
  -7  -1  17 169.319 11.4320   1
  -7   1  17 151.507 10.1409   1
   7   1 -17 148.271 11.0798   1
  -6  -1  17 201.743 11.0721   2
  -6  -1  17 212.685 9.64606   3
  -6  -1  17 190.858 11.9892   1
   6  -1 -17 190.793 11.9949   1
  -6   1  17 179.650 10.9242   1
   6   1 -17 204.170 11.9938   1
  -5  -1  17 -4.2330 4.04142   1
  -5  -1  17 -3.1800 3.12918   2
   5  -1 -17 -5.6213 4.11072   1
  -5  -1  17 -0.8025 2.35435   3
   5   1 -17 2.78498 4.42201   1
  -5   1  17 -7.4073 3.60628   1
  -4  -1  17 416.409 15.4693   2
   4  -1 -17 395.269 16.5432   1
  -4  -1  17 400.582 16.4981   1
  -4  -1  17 402.316 15.0348   3
  -4   1  17 434.125 15.8706   1
   4   1 -17 393.700 15.9639   1
  -3  -1  17 605.133 20.0500   1
  -3  -1  17 578.394 16.5570   3
   3  -1 -17 550.629 19.5767   1
  -3   1  17 612.075 19.0736   1
   3   1 -17 580.403 19.4711   1
  -2  -1  17 392.170 16.2527   1
   2  -1 -17 370.342 15.9907   1
  -2  -1  17 318.537 12.0330   3
   2   1 -17 383.938 15.4967   1
  -2   1  17 349.272 14.6331   1
   1  -1 -17 82.0368 9.03444   1
  -1  -1  17 73.5525 6.67167   3
  -1  -1  17 65.2839 8.37734   1
  -1   1  17 82.7466 8.59901   1
   1   1 -17 87.2303 9.10636   1
   0  -1  17 1062.06 28.0372   1
   0  -1  17 988.169 23.2644   3
   0  -1 -17 1056.50 28.1369   1
   0   1 -17 1083.60 27.5458   1
   0   1  17 1054.36 26.8791   1
  -1  -1 -17 828.434 24.7093   1
   1  -1  17 813.608 24.6475   1
   1  -1  17 869.284 21.9441   3
   1   1  17 807.304 23.5003   1
  -1   1 -17 850.309 24.1921   1
  -2  -1 -17 7.83518 5.41673   1
   2  -1  17 16.5801 5.75025   1
   2  -1  17 3.34113 4.72185   3
   2   1  17 13.7821 5.10727   1
  -2   1 -17 17.0231 5.62668   1
   3  -1  17 192.886 12.6972   1
  -3  -1 -17 219.867 13.3229   1
   3   1  17 219.320 12.6002   1
  -3   1 -17 216.558 12.4219   1
   4  -1  17 59.7446 8.69811   1
  -4  -1 -17 56.0560 8.62403   1
   4   1  17 51.7034 7.75842   1
  -4   1 -17 62.8443 8.37552   1
  -5  -1 -17 13.4877 6.20707   1
   5  -1  17 12.4208 5.87595   1
  -5   1 -17 21.5025 6.14016   1
   5   1  17 9.08055 5.46924   1
  -6  -1 -17 90.8512 10.3071   1
   6  -1  17 104.992 11.3117   1
  -6   1 -17 92.6551 10.1176   1
   6   1  17 88.2723 9.88792   1
   7  -1  17 27.1832 7.55173   1
  -7  -1 -17 15.0986 6.40602   1
  -7  -1 -17 11.1762 4.15208   3
   7   1  17 23.7507 6.49470   1
  -7   1 -17 22.2636 9.98157   1
  -7   1 -17 30.6944 10.7083   1
  -8  -1 -17 26.1124 5.21748   3
  -8  -1 -17 24.0730 7.31985   1
   8  -1  17 13.5392 6.59208   1
   8   1  17 13.8369 6.07765   1
  -9  -1 -17 8.09447 5.82489   1
  -9  -1 -17 2.61831 6.11056   1
   9  -1  17 -0.8152 5.74549   1
  -9  -1 -17 1.61140 3.48583   3
   9   1  17 2.64488 5.83562   1
 -10  -1 -17 16.6808 6.97428   1
 -10  -1 -17 25.9073 7.58354   1
  10  -1  17 10.0580 6.68151   1
 -10  -1 -17 13.5391 4.51840   3
 -11  -1 -17 73.5932 10.7922   1
 -11  -1 -17 55.7359 7.13331   3
 -11  -1 -17 78.7926 11.2322   1
  11  -1  17 47.9439 10.0047   1
 -12  -1 -17 -2.4682 5.70023   1
  12  -1  17 7.33436 7.40687   1
 -12  -1 -17 -0.2592 3.58015   3
  18  -2 -17 2.46408 7.03028   1
 -18  -2  17 39.1865 7.34636   2
 -18  -2  17 7.91708 4.13881   3
 -18  -2  17 4.97993 6.54024   1
  17  -2 -17 23.7131 8.13313   1
 -17  -2  17 26.7184 8.03969   1
 -17  -2  17 40.6101 9.03177   2
 -17  -2  17 37.4303 5.91784   3
  16  -2 -17 3.15827 6.12281   1
 -16  -2  17 9.64896 6.61500   1
 -16  -2  17 4.18030 3.64366   3
 -16  -2  17 13.1278 6.46324   2
  15  -2 -17 15.6044 6.87331   1
 -15  -2  17 23.9818 7.14265   1
 -15  -2  17 41.4271 7.59159   2
 -15  -2  17 23.2086 4.97483   3
  14  -2 -17 275.634 16.4951   1
 -14  -2  17 292.457 12.0487   3
 -14  -2  17 284.809 17.0169   2
 -14  -2  17 273.678 15.9874   1
 -13  -2  17 2.07147 5.04240   1
 -13  -2  17 0.79468 5.36364   2
  13  -2 -17 7.76920 5.75993   1
 -13  -2  17 1.89936 2.96022   3
 -12  -2  17 224.395 14.8045   2
 -12  -2  17 236.400 10.5928   3
 -12  -2  17 248.245 14.8001   1
  12  -2 -17 263.221 15.3462   1
  11  -2 -17 45.5212 7.82947   1
 -11  -2  17 53.4578 5.86337   3
 -11  -2  17 49.3500 8.80475   2
 -11  -2  17 56.0655 6.13157   3
 -11  -2  17 46.9754 7.98884   1
  11   2 -17 66.7155 13.1135   1
 -10  -2  17 2.74690 4.92448   1
 -10  -2  17 1.80422 3.01552   3
 -10  -2  17 -2.0682 2.48731   3
 -10  -2  17 -1.7853 4.67756   2
  10  -2 -17 0.71990 4.62382   1
  10   2 -17 3.04362 4.62422   1
  -9  -2  17 288.932 15.4867   2
  -9  -2  17 268.332 14.3889   1
   9  -2 -17 262.809 14.1999   1
  -9  -2  17 259.620 10.5767   3
  -9  -2  17 264.553 10.4732   3
   9   2 -17 296.446 14.4368   1
  -8  -2  17 232.997 9.82554   3
  -8  -2  17 231.828 13.4086   1
   8  -2 -17 232.997 13.2843   1
  -8  -2  17 232.078 14.1502   2
  -8  -2  17 216.127 9.24733   3
   8   2 -17 239.328 12.7406   1
  -7  -2  17 0.62060 4.40440   1
  -7  -2  17 -0.4918 2.54101   3
   7  -2 -17 3.89732 4.70721   1
  -7  -2  17 1.50251 4.84874   2
  -7  -2  17 1.62886 2.66992   3
   7   2 -17 0.61142 4.08351   1
  -6  -2  17 139.847 11.5084   2
   6  -2 -17 146.663 10.6984   1
  -6  -2  17 145.758 7.77555   3
  -6  -2  17 120.290 10.8394   1
  -6  -2  17 133.250 7.39442   3
   6   2 -17 155.180 10.3918   1
  -5  -2  17 20.4051 3.84939   3
   5  -2 -17 22.4263 6.16608   1
  -5  -2  17 15.0758 3.49729   3
  -5  -2  17 11.7300 5.68908   1
  -5  -2  17 18.2466 6.04197   2
   5   2 -17 27.2080 5.81000   1
  -4  -2  17 -2.6535 4.09668   2
  -4  -2  17 -2.9017 2.21084   3
   4  -2 -17 3.06337 4.49774   1
  -4  -2  17 -1.7690 2.35329   3
  -4  -2  17 0.60211 4.44641   1
   4   2 -17 -4.2537 3.67496   1
  -3  -2  17 2.51592 2.56217   3
  -3  -2  17 1.46904 4.49352   1
  -3  -2  17 0.29407 4.72467   2
  -3  -2  17 3.97223 2.70329   3
   3  -2 -17 5.09821 4.70130   1
   3   2 -17 4.17783 4.57483   1
  -2  -2  17 403.163 17.8544   2
  -2  -2  17 379.740 16.6144   1
   2  -2 -17 424.618 17.0361   1
  -2  -2  17 393.301 11.8679   3
  -2  -2  17 403.475 12.1453   3
   2   2 -17 384.137 15.7345   1
  -1  -2  17 569.901 14.8511   3
  -1  -2  17 598.416 14.8629   3
  -1  -2  17 576.150 20.6255   1
   1  -2 -17 574.803 20.3513   1
   1   2 -17 602.307 23.7278   1
   0  -2  17 107.096 10.2883   1
   0  -2  17 108.442 6.51327   3
   0  -2  17 113.166 6.40008   3
   0  -2 -17 110.267 10.4419   1
  -1  -2 -17 12.4132 5.48075   1
   1  -2  17 5.37537 5.13967   1
   1  -2  17 6.54746 2.83327   3
   1  -2  17 7.31527 2.62926   3
   2  -2  17 109.129 6.59000   3
   2  -2  17 114.326 6.45887   3
   2  -2  17 128.623 11.7719   1
  -2  -2 -17 120.017 11.0697   1
   3  -2  17 2.18802 5.16056   1
   3  -2  17 14.5789 3.32870   3
  -3  -2 -17 5.74523 4.84683   1
   4  -2  17 11.1273 3.15023   3
   4  -2  17 15.5355 6.14682   1
  -4  -2 -17 8.08824 5.71220   1
  -4  -2 -17 17.9439 5.75279   2
   5  -2  17 -1.6277 5.34351   1
  -5  -2 -17 7.64742 5.54857   1
   5  -2  17 2.90812 2.52517   3
   6  -2  17 3.06219 2.59709   3
  -6  -2 -17 2.77394 5.35107   1
   6  -2  17 5.70608 5.33370   1
   7  -2  17 -7.1074 5.05260   1
  -7  -2 -17 0.61215 5.58079   1
   7  -2  17 6.55483 2.83440   3
   8  -2  17 13.5749 6.90040   1
   8  -2  17 15.1135 3.51772   3
  -8  -2 -17 13.4860 6.38873   1
  -9  -2 -17 88.9437 11.7513   1
   9  -2  17 87.0682 6.33076   3
   9  -2  17 101.784 12.1946   1
 -10  -2 -17 2.69608 6.19707   1
  10  -2  17 10.9028 7.63710   1
  10  -2  17 5.35016 2.89506   3
 -10  -2 -17 13.9344 6.75963   1
  11  -2  17 47.6334 4.94162   3
 -11  -2 -17 43.0183 9.60855   1
 -11  -2 -17 51.3041 9.97478   1
  11  -2  17 51.5773 10.6228   1
  16  -3 -17 5.16535 6.44208   1
 -16  -3  17 -8.7294 5.51279   1
 -16  -3  17 1.64905 6.48583   2
 -16  -3  17 0.28791 2.85331   3
 -16  -3  17 -3.4388 2.46186   3
 -15  -3  17 7.15031 2.98756   3
 -15  -3  17 8.57990 3.40458   3
  15  -3 -17 9.02427 6.56240   1
 -15  -3  17 7.69140 6.68159   1
 -15  -3  17 8.88223 7.41599   2
 -14  -3  17 -0.5085 6.33107   2
 -14  -3  17 3.75251 2.65917   3
 -14  -3  17 2.53997 5.82578   1
 -14  -3  17 -0.6216 2.59847   3
  14  -3 -17 2.16550 5.53173   1
 -13  -3  17 86.9706 12.3375   2
 -13  -3  17 85.7192 6.14193   3
  13  -3 -17 73.9390 9.91494   1
 -13  -3  17 75.2121 10.2749   1
 -13  -3  17 79.7725 5.77946   3
 -12  -3  17 41.5521 4.49089   3
 -12  -3  17 50.5063 8.44079   1
 -12  -3  17 41.2557 9.33498   2
 -12  -3  17 39.5021 4.21728   3
  12  -3 -17 61.4630 9.31615   1
 -11  -3  17 44.1613 9.40234   2
 -11  -3  17 49.1417 4.71527   3
 -11  -3  17 40.6021 4.15207   3
  11  -3 -17 44.0390 7.70506   1
 -11  -3  17 44.1367 8.26577   1
 -10  -3  17 34.5053 7.33429   1
 -10  -3  17 21.4205 3.24553   3
  10  -3 -17 27.8143 6.46927   1
 -10  -3  17 18.3635 7.28535   2
 -10  -3  17 23.7889 3.23695   3
  -9  -3  17 10.1334 2.42584   3
  -9  -3  17 8.28173 5.21473   1
  -9  -3  17 3.94188 6.27297   2
   9  -3 -17 8.40768 5.38861   1
  -9  -3  17 13.4522 2.66000   3
  -8  -3  17 5.55940 4.77660   1
  -8  -3  17 -3.3826 1.63825   3
   8  -3 -17 -2.5289 4.06856   1
  -8  -3  17 3.81466 5.63219   2
  -8  -3  17 2.65716 1.82407   3
   7  -3 -17 -1.6876 3.90009   1
  -7  -3  17 -2.6240 1.36564   3
  -7  -3  17 -4.1995 4.73100   2
  -7  -3  17 -4.1935 3.96182   1
  -7  -3  17 -2.7200 1.63906   3
  -6  -3  17 -0.0642 1.56948   3
  -6  -3  17 -0.7842 5.32832   2
   6  -3 -17 -2.6373 4.02073   1
  -6  -3  17 0.20216 4.61530   1
  -6  -3  17 0.37656 1.42245   3
  -5  -3  17 -3.2983 4.55128   2
  -5  -3  17 1.43769 4.59181   1
   5  -3 -17 4.76317 4.74038   1
  -4  -3  17 108.892 12.2786   2
  -4  -3  17 113.721 10.5796   1
   4  -3 -17 114.894 10.3287   1
  -3  -3  17 5.80155 5.96564   2
   3  -3 -17 0.38491 4.25297   1
  -3  -3  17 -0.2883 4.46878   1
  -2  -3  17 25.2786 7.80811   2
  -2  -3  17 38.8325 7.18586   1
   2  -3 -17 15.4573 5.58065   1
  -1  -3  17 -5.0906 4.28750   1
   1  -3 -17 4.08154 4.56205   1
  -1  -3  17 -0.3352 5.50170   2
   0  -3  17 33.1586 7.09573   1
   0  -3 -17 32.9404 6.90342   1
  -1  -3 -17 0.16049 4.59412   1
   1  -3  17 -0.6993 5.22421   1
  -2  -3 -17 17.9958 6.29062   1
   2  -3  17 20.8003 6.47143   1
   3  -3  17 50.6770 8.75395   1
  -3  -3 -17 36.5981 7.47673   1
  -4  -3 -17 0.15652 5.09543   1
   4  -3  17 1.15396 5.21167   1
  -5  -3 -17 3.70410 5.34254   1
   5  -3  17 8.55626 6.20989   1
  -6  -3 -17 5.71690 5.93343   1
   6  -3  17 0.82960 5.66224   1
  -7  -3 -17 8.11786 6.42447   1
   7  -3  17 6.79857 6.28441   1
  -8  -3 -17 67.3953 10.2002   1
   8  -3  17 50.9679 9.95844   1
  -9  -3 -17 4.30797 6.62130   1
   9  -3  17 9.35150 7.14830   1
 -14  -4  17 10.1880 6.63318   1
 -14  -4  17 11.8974 8.82539   2
  14  -4 -17 15.7222 6.88936   1
 -13  -4  17 -0.7835 6.62401   2
  13  -4 -17 9.15174 5.92602   1
 -13  -4  17 4.14116 6.04928   1
 -12  -4  17 1.88102 5.68578   1
 -12  -4  17 -5.4084 6.31643   2
  12  -4 -17 3.49019 5.35137   1
 -11  -4  17 130.973 12.8049   1
 -11  -4  17 147.172 16.3854   2
  11  -4 -17 161.098 12.5246   1
  10  -4 -17 65.8453 9.03730   1
 -10  -4  17 78.3047 12.7239   2
 -10  -4  17 81.6937 10.4642   1
   9  -4 -17 67.6183 8.87108   1
  -9  -4  17 71.2077 12.1632   2
  -9  -4  17 68.8522 9.46401   1
  -8  -4  17 288.782 19.5880   2
   8  -4 -17 290.897 15.1807   1
  -8  -4  17 304.485 16.4257   1
   7  -4 -17 22.7040 6.15307   1
  -7  -4  17 21.6188 6.41340   1
  -7  -4  17 27.7765 9.22681   2
  -6  -4  17 28.9871 6.59227   1
   6  -4 -17 31.8845 6.70956   1
  -6  -4  17 28.1555 9.18777   2
  -5  -4  17 97.9062 10.4923   1
  -5  -4  17 74.1122 11.9444   2
   5  -4 -17 81.5029 9.40932   1
  -4  -4  17 0.22656 4.75769   1
   4  -4 -17 2.55187 4.62201   1
  -4  -4  17 1.98017 6.48009   2
  -3  -4  17 22.2360 6.35449   1
  -3  -4  17 28.4714 8.92963   2
   3  -4 -17 25.1931 6.14004   1
   2  -4 -17 29.0233 6.56144   1
  -2  -4  17 22.6311 8.88953   2
  -2  -4  17 20.8225 6.42941   1
  -1  -4  17 55.1548 8.53883   1
   1  -4 -17 54.2438 8.36821   1
  -1  -4  17 44.3282 10.4144   2
   0  -4  17 92.7750 13.8364   2
   0  -4  17 73.6397 9.31780   1
   0  -4 -17 81.0771 9.73889   1
   1  -4  17 55.1730 8.48774   1
  -1  -4 -17 53.3175 8.51082   1
  -2  -4 -17 13.7213 5.97093   1
   2  -4  17 13.0616 6.24511   1
   3  -4  17 15.2581 6.42455   1
  -3  -4 -17 14.5797 6.09441   1
   4  -4  17 34.4054 8.08400   1
  -4  -4 -17 36.4709 7.84408   1
  -5  -4 -17 4.36385 5.68382   1
   5  -4  17 -8.8936 5.23491   1
  -6  -4 -17 31.5746 7.98091   1
   6  -4  17 23.6219 7.58712   1
  -7  -4 -17 11.3749 6.86051   1
   7  -4  17 5.17663 6.66801   1
   9  -5 -17 166.202 13.1219   1
  -9  -5  17 201.863 19.0207   2
  -9  -5  17 152.014 13.6741   1
  -8  -5  17 -3.5915 5.01553   1
  -8  -5  17 -0.4872 7.05104   2
   8  -5 -17 -3.5340 4.92287   1
   7  -5 -17 139.790 12.1233   1
  -7  -5  17 146.104 13.0379   1
  -7  -5  17 134.908 16.7619   2
  -6  -5  17 174.319 13.5061   1
  -6  -5  17 163.225 18.6180   2
   6  -5 -17 151.240 12.1401   1
  -5  -5  17 12.2859 6.10143   1
  -5  -5  17 18.6203 9.95529   2
   5  -5 -17 16.0176 5.91805   1
  -4  -5  17 166.406 12.9369   1
   4  -5 -17 160.338 12.6797   1
  -4  -5  17 146.211 17.3859   2
  -3  -5  17 77.7056 13.8877   2
  -3  -5  17 65.9841 9.39648   1
   3  -5 -17 45.9121 8.20649   1
  -2  -5  17 4.31474 5.48787   1
  -2  -5  17 6.03817 8.95644   2
   2  -5 -17 3.10803 5.35189   1
  -1  -5  17 8.88477 5.87652   1
   1  -5 -17 8.43771 5.63668   1
  -1  -5  17 6.58433 8.78529   2
   0  -5  17 182.657 19.7919   2
   0  -5  17 194.848 14.1764   1
   0  -5 -17 204.278 13.9061   1
  -1  -5 -17 99.0874 10.9465   1
   1  -5  17 97.6162 11.1297   1
   2  -5  17 -2.8113 5.09261   1
  -2  -5 -17 -0.9822 4.79962   1
  18   0 -18 400.454 21.5205   1
  17   0 -18 0.67150 6.07148   1
  16   0 -18 62.4594 9.70818   1
  15   0 -18 90.9491 10.7611   1
 -15   0  18 87.3422 10.1473   1
  14   0 -18 199.053 14.0089   1
 -14   0  18 198.271 13.2892   1
  13   0 -18 162.764 12.7877   1
 -13   0  18 158.608 11.8926   1
  12   0 -18 150.303 12.1610   1
 -12   0  18 135.212 12.0102   1
 -11   0  18 456.821 18.1204   1
  11   0 -18 440.031 18.6049   1
  10   0 -18 177.273 12.4250   1
 -10   0  18 174.025 11.8493   1
   9   0 -18 17.0593 5.84813   1
  -9   0  18 10.6338 4.03615   3
  -9   0  18 12.0110 5.40096   1
   8   0 -18 71.6742 8.63374   1
  -8   0  18 66.3774 8.02731   1
  -8   0  18 59.2256 6.85434   3
   7   0 -18 33.9785 6.53406   1
  -7   0  18 38.7540 6.79839   1
   6   0 -18 1.91310 4.29694   1
  -6   0  18 -4.9948 3.72209   1
  -5   0  18 96.6520 9.62155   1
   5   0 -18 79.5106 8.92024   1
   4   0 -18 90.1469 9.35774   1
  -4   0  18 102.861 10.0076   1
  -3   0  18 219.480 12.7193   1
   3   0 -18 201.220 12.4628   1
  -2   0  18 99.9711 9.68582   1
   2   0 -18 97.7119 10.0571   1
  -1   0  18 250.995 13.5189   1
   1   0 -18 242.815 13.4204   1
   0   0  18 45.6530 7.48617   1
   0   0 -18 50.3092 7.62157   1
  -1   0 -18 39.0359 6.94532   1
   1   0  18 39.6900 7.01059   1
   2   0  18 105.235 10.0403   1
  -2   0 -18 100.287 10.1641   1
  -3   0 -18 27.9981 6.71739   1
   3   0  18 31.5308 6.91635   1
  -4   0 -18 29.4009 5.19240   3
  -4   0 -18 37.3263 7.33938   1
   4   0  18 39.0603 7.47322   1
  -5   0 -18 174.773 10.4232   3
  -5   0 -18 170.057 12.5874   1
   5   0  18 204.786 13.5409   1
  -6   0 -18 5.39417 3.61376   3
  -6   0 -18 -1.5959 4.61384   1
   6   0  18 10.3840 5.63509   1
  -7   0 -18 6.60729 5.86816   1
   7   0  18 7.88186 5.83822   1
   8   0  18 67.4344 10.2180   1
  -8   0 -18 70.6993 9.94673   1
  -9   0 -18 174.450 14.9922   1
   9   0  18 198.372 15.1398   1
  -9   0 -18 199.687 14.6738   1
 -10   0 -18 4.99981 6.16909   1
 -10   0 -18 -4.3390 5.29315   1
  10   0  18 -0.1848 6.13056   1
  11   0  18 112.358 13.0655   1
  18  -1 -18 1.92581 7.01293   1
 -18  -1  18 9.19857 6.49347   1
  18   1 -18 4.98716 6.56571   1
 -17  -1  18 -6.7372 4.73926   1
  17  -1 -18 5.33677 6.55417   1
  17   1 -18 -1.3287 6.01553   1
  16  -1 -18 62.5760 10.2346   1
 -16  -1  18 53.0536 8.89095   1
 -16  -1  18 44.6678 6.52172   3
  16   1 -18 49.2124 9.25818   1
 -15  -1  18 11.8531 4.48999   3
  15  -1 -18 8.15796 6.61046   1
 -15  -1  18 38.7267 7.77483   2
 -15  -1  18 5.86952 5.78418   1
  15   1 -18 19.8709 6.87438   1
  14  -1 -18 2.66851 5.51541   1
 -14  -1  18 -1.0361 2.89829   3
 -14  -1  18 8.56805 5.52026   1
 -14  -1  18 -4.4231 4.50029   2
  14   1 -18 -4.7104 4.85059   1
 -13  -1  18 183.683 12.5920   2
 -13  -1  18 222.043 11.2019   3
  13  -1 -18 207.804 13.9904   1
 -13  -1  18 206.814 13.8124   1
  13   1 -18 199.217 13.5765   1
 -12  -1  18 195.684 12.4472   2
 -12  -1  18 211.882 10.8790   3
  12  -1 -18 185.105 13.4539   1
 -12  -1  18 191.585 12.9568   1
  12   1 -18 183.720 13.0642   1
 -11  -1  18 7.39291 5.18615   1
  11  -1 -18 1.02865 4.85275   1
 -11  -1  18 8.81260 3.19873   3
 -11  -1  18 4.54638 4.54879   2
  11   1 -18 4.35777 4.80114   1
  10  -1 -18 192.056 13.0074   1
 -10  -1  18 206.868 11.9452   2
 -10  -1  18 195.941 12.8022   1
 -10  -1  18 216.888 10.4509   3
  10   1 -18 200.699 12.7732   1
   9  -1 -18 99.3944 10.2504   1
  -9  -1  18 103.576 9.04837   2
  -9  -1  18 110.238 7.97404   3
  -9  -1  18 97.1894 9.86515   1
  -9   1  18 109.907 9.88598   1
   9   1 -18 107.892 10.5827   1
  -8  -1  18 26.0147 4.51731   3
  -8  -1  18 27.0787 5.92010   2
   8  -1 -18 27.3295 6.93209   1
  -8  -1  18 29.1329 6.75282   1
  -8   1  18 20.4993 5.68525   1
   8   1 -18 30.7104 6.41609   1
  -7  -1  18 10.4450 5.49118   1
  -7  -1  18 14.9368 4.85446   2
   7  -1 -18 7.12055 4.93783   1
  -7  -1  18 12.3178 4.06601   3
   7   1 -18 7.21956 4.80785   1
  -7   1  18 10.6074 4.90747   1
  -6  -1  18 103.567 9.94785   1
   6  -1 -18 89.0733 9.42528   1
  -6  -1  18 99.4549 8.55228   2
  -6  -1  18 97.8913 7.73638   3
  -6   1  18 109.186 9.78519   1
   6   1 -18 104.188 9.91204   1
  -5  -1  18 136.785 11.0323   1
  -5  -1  18 126.242 8.11740   3
   5  -1 -18 124.723 11.2475   1
  -5  -1  18 123.058 9.40137   2
  -5   1  18 134.717 10.1394   1
   5   1 -18 120.183 10.4799   1
  -4  -1  18 215.923 13.0639   1
   4  -1 -18 218.898 13.0432   1
  -4  -1  18 201.568 9.77698   3
   4   1 -18 190.818 11.9889   1
  -4   1  18 196.276 11.7320   1
   3  -1 -18 51.9315 7.59984   1
  -3  -1  18 60.1408 8.45327   1
   3   1 -18 75.7593 8.73742   1
  -3   1  18 64.0090 8.06754   1
   2  -1 -18 -3.6671 4.37383   1
  -2  -1  18 3.62534 5.09828   1
  -2   1  18 3.79544 4.41183   1
   2   1 -18 0.91961 4.38788   1
   1  -1 -18 160.385 11.8105   1
  -1  -1  18 124.863 11.3282   1
  -1   1  18 156.042 11.2137   1
   1   1 -18 152.847 11.1819   1
   0  -1  18 198.418 12.8958   1
   0  -1 -18 177.116 12.4763   1
   0   1 -18 193.330 12.1367   1
   0   1  18 189.457 12.2550   1
  -1  -1 -18 35.6291 6.99320   1
   1  -1  18 26.6713 6.46720   1
  -1   1 -18 33.2362 6.64713   1
   1   1  18 30.7522 6.30500   1
   2  -1  18 17.8809 6.46113   1
  -2  -1 -18 22.3911 6.32769   1
   2   1  18 14.9447 5.38033   1
  -2   1 -18 12.1938 5.58737   1
   3  -1  18 16.9787 6.29782   1
  -3  -1 -18 12.8111 5.74743   1
   3   1  18 27.4285 6.57887   1
  -3   1 -18 18.2926 5.97781   1
   4  -1  18 441.067 18.9951   1
  -4  -1 -18 430.300 18.7553   1
  -4   1 -18 441.654 18.3819   1
   4   1  18 406.420 17.5873   1
  -5  -1 -18 51.1809 8.74339   1
   5  -1  18 58.5011 8.98194   1
   5   1  18 37.7343 7.56582   1
  -5   1 -18 52.5970 8.39411   1
   6  -1  18 12.3236 6.60747   1
  -6  -1 -18 9.79191 5.94295   1
   6   1  18 5.96869 5.62963   1
  -7  -1 -18 39.9994 8.27550   1
   7  -1  18 45.8136 8.72817   1
   7   1  18 43.8170 8.10939   1
  -8  -1 -18 55.0697 6.77704   3
  -8  -1 -18 50.5649 8.92078   1
   8  -1  18 49.8640 9.39140   1
  -9  -1 -18 0.35170 5.63842   1
  -9  -1 -18 1.54225 5.88421   1
   9  -1  18 2.48230 6.12873   1
  -9  -1 -18 1.53909 3.53813   3
 -10  -1 -18 37.8444 8.77841   1
 -10  -1 -18 46.8497 9.24164   1
 -10  -1 -18 48.7671 6.91198   3
  10  -1  18 45.7593 10.0980   1
 -11  -1 -18 -0.8074 3.69192   3
  11  -1  18 6.18254 7.24649   1
 -11  -1 -18 10.9008 6.86180   1
 -11  -1 -18 8.22262 6.48487   1
 -17  -2  18 27.1053 7.96601   2
 -17  -2  18 14.6689 7.19609   1
  17  -2 -18 3.60772 7.30502   1
 -17  -2  18 7.05805 4.03452   3
 -16  -2  18 19.3439 4.63200   3
 -16  -2  18 28.0748 8.09091   1
 -16  -2  18 26.9694 7.62788   2
  16  -2 -18 21.4522 7.89019   1
 -15  -2  18 26.8009 7.66841   2
  15  -2 -18 14.3098 7.28084   1
 -15  -2  18 23.5438 4.97005   3
 -15  -2  18 15.1221 6.88559   1
 -14  -2  18 19.8736 4.60144   3
  14  -2 -18 25.2638 7.57311   1
 -14  -2  18 19.2908 6.45540   1
 -14  -2  18 28.1840 7.93534   2
  13  -2 -18 -4.5117 4.71376   1
 -13  -2  18 -5.0165 4.33531   1
 -13  -2  18 -2.8925 5.25672   2
 -13  -2  18 3.52063 3.10622   3
  12  -2 -18 16.3208 6.60512   1
 -12  -2  18 26.8443 7.41409   1
 -12  -2  18 12.8545 6.45069   2
 -12  -2  18 16.4473 4.19459   3
 -11  -2  18 8.31522 5.72831   2
 -11  -2  18 4.21646 3.13230   3
  11  -2 -18 5.66585 5.40498   1
 -11  -2  18 1.60321 5.08353   1
 -10  -2  18 154.643 12.4868   2
  10  -2 -18 161.995 12.4589   1
 -10  -2  18 166.598 12.6007   1
 -10  -2  18 144.200 8.33699   3
 -10  -2  18 148.829 8.83472   3
  -9  -2  18 80.5816 9.55617   1
  -9  -2  18 83.4960 7.15382   3
   9  -2 -18 81.6533 9.80384   1
  -9  -2  18 90.6685 7.22450   3
  -9  -2  18 85.4018 10.2536   2
   8  -2 -18 0.52040 4.68189   1
  -8  -2  18 -3.5061 2.32566   3
  -8  -2  18 1.76182 4.98329   2
  -8  -2  18 1.75000 2.78512   3
  -8  -2  18 -2.3692 4.65841   1
  -7  -2  18 24.6878 6.70583   2
  -7  -2  18 27.7725 4.41111   3
   7  -2 -18 31.4069 6.56729   1
  -7  -2  18 18.7007 5.97384   1
  -7  -2  18 20.8891 4.18929   3
   7   2 -18 27.4674 9.04672   1
   6  -2 -18 19.3446 5.86308   1
  -6  -2  18 28.1221 4.19740   3
  -6  -2  18 11.7432 5.67703   1
  -6  -2  18 24.8945 6.65513   2
  -6  -2  18 26.7301 4.29156   3
   6   2 -18 25.2424 8.19078   1
  -5  -2  18 2.59012 4.76605   1
  -5  -2  18 -1.3455 2.45169   3
  -5  -2  18 -0.4385 2.49356   3
  -5  -2  18 -1.9962 4.42334   2
   5  -2 -18 -2.4307 4.19902   1
   5   2 -18 0.31856 6.60252   1
  -4  -2  18 132.920 11.7551   1
  -4  -2  18 114.775 7.12854   3
   4  -2 -18 131.054 11.6777   1
  -4  -2  18 124.257 7.34744   3
  -4  -2  18 103.835 11.0088   2
  -3  -2  18 6.19476 5.42750   1
  -3  -2  18 -1.8897 2.36716   3
  -3  -2  18 0.68718 5.06847   2
  -3  -2  18 6.26749 2.91601   3
   3  -2 -18 -6.9977 3.77707   1
  -2  -2  18 4.12330 2.59737   3
  -2  -2  18 4.41880 5.32022   1
  -2  -2  18 10.5828 3.23420   3
   2  -2 -18 7.43197 4.95471   1
  -1  -2  18 227.650 13.6919   1
   1  -2 -18 189.575 12.8417   1
  -1  -2  18 232.422 9.09064   3
  -1  -2  18 203.231 8.90348   3
   0  -2 -18 29.1277 6.60443   1
   0  -2  18 19.9619 3.76251   3
   0  -2  18 22.1776 6.57837   1
   0  -2  18 21.2741 3.57626   3
  -1  -2 -18 62.4961 9.05910   1
   1  -2  18 67.6786 9.13598   1
   1  -2  18 60.1326 5.52036   3
   1  -2  18 55.6602 5.29478   3
   2  -2  18 113.310 6.66452   3
   2  -2  18 99.5517 6.57275   3
   2  -2  18 102.893 10.6204   1
  -2  -2 -18 105.908 10.9828   1
  -3  -2 -18 1.43566 5.15138   1
   3  -2  18 -5.3626 5.01963   1
   3  -2  18 0.74485 2.40872   3
   4  -2  18 38.2345 4.60536   3
  -4  -2 -18 30.3255 7.27396   1
   4  -2  18 31.4269 7.32575   1
  -5  -2 -18 -2.0403 5.06421   1
   5  -2  18 9.16799 3.10990   3
   5  -2  18 9.38710 5.91762   1
  -6  -2 -18 30.6188 7.52710   1
   6  -2  18 31.4275 4.29176   3
   6  -2  18 27.7569 7.47622   1
  -7  -2 -18 2.21706 5.72570   1
   7  -2  18 1.79108 5.71495   1
   7  -2  18 1.07949 2.65143   3
   8  -2  18 35.0040 8.53431   1
  -8  -2 -18 23.6068 7.87929   1
   8  -2  18 35.8012 4.61907   3
  -9  -2 -18 1.63232 6.24890   1
   9  -2  18 3.25982 2.71913   3
   9  -2  18 9.91658 7.15478   1
 -10  -2 -18 15.0470 7.56223   1
  10  -2  18 8.15314 3.13783   3
 -10  -2 -18 14.7391 7.05287   1
  10  -2  18 5.89768 7.55728   1
 -16  -3  18 50.1466 5.61590   3
 -15  -3  18 -3.1625 2.59297   3
 -15  -3  18 2.03648 6.70677   2
  15  -3 -18 -2.0481 6.01812   1
 -15  -3  18 2.96275 2.72332   3
 -15  -3  18 -4.0476 5.94360   1
  14  -3 -18 44.6321 9.12188   1
 -14  -3  18 42.2458 4.93439   3
 -14  -3  18 44.5484 9.04270   1
 -14  -3  18 37.8279 9.51471   2
 -14  -3  18 38.7165 4.61683   3
 -13  -3  18 116.014 7.08115   3
 -13  -3  18 117.996 14.1365   2
 -13  -3  18 112.361 6.63352   3
  13  -3 -18 107.297 11.6954   1
 -13  -3  18 132.722 13.3474   1
 -12  -3  18 103.528 6.33606   3
  12  -3 -18 91.7917 10.6171   1
 -12  -3  18 87.1545 12.4146   2
 -12  -3  18 100.273 6.10742   3
 -12  -3  18 67.5440 9.63728   1
 -11  -3  18 0.15723 2.08113   3
 -11  -3  18 -0.6175 2.26351   3
 -11  -3  18 5.53559 6.56271   2
  11  -3 -18 1.74021 5.29128   1
 -11  -3  18 -3.7716 4.92775   1
 -10  -3  18 114.148 11.4769   1
  10  -3 -18 120.980 11.8949   1
 -10  -3  18 100.994 5.81199   3
 -10  -3  18 101.378 5.96568   3
 -10  -3  18 109.261 12.6932   2
   9  -3 -18 59.9665 8.50509   1
  -9  -3  18 51.8017 8.43319   1
  -9  -3  18 50.1694 4.25044   3
  -9  -3  18 43.4377 9.10755   2
  -9  -3  18 55.3266 4.57505   3
  -8  -3  18 9.16360 2.51670   3
  -8  -3  18 2.92030 6.13669   2
   8  -3 -18 15.9322 5.82954   1
  -8  -3  18 5.72747 5.37915   1
  -8  -3  18 9.38252 2.38082   3
  -7  -3  18 112.747 11.3055   1
  -7  -3  18 106.588 5.26045   3
   7  -3 -18 112.906 10.8957   1
  -7  -3  18 109.648 5.17465   3
  -7  -3  18 111.031 12.9951   2
  -6  -3  18 35.8570 3.15071   3
  -6  -3  18 46.1572 9.01798   2
   6  -3 -18 44.3210 7.67853   1
  -6  -3  18 37.0856 3.36648   3
  -6  -3  18 35.3874 7.56149   1
  -5  -3  18 0.55911 1.45487   3
  -5  -3  18 4.12951 5.68847   2
   5  -3 -18 -4.2079 4.14315   1
  -5  -3  18 0.16460 4.98376   1
  -4  -3  18 171.274 14.1297   2
  -4  -3  18 180.883 13.1442   1
   4  -3 -18 159.387 11.9017   1
   3  -3 -18 114.423 11.1631   1
  -3  -3  18 118.167 13.1739   2
  -3  -3  18 113.317 10.9119   1
  -2  -3  18 -1.2156 4.92479   1
   2  -3 -18 2.73627 4.75334   1
  -2  -3  18 5.82834 6.21668   2
  -1  -3  18 3.90745 6.05751   2
  -1  -3  18 -5.9538 4.61315   1
   1  -3 -18 3.31971 5.10268   1
   0  -3  18 143.071 12.6898   1
   0  -3 -18 118.712 11.2899   1
   1  -3  18 127.135 12.0357   1
  -1  -3 -18 118.411 11.5886   1
   2  -3  18 84.4706 10.2183   1
  -2  -3 -18 78.2251 9.97422   1
  -3  -3 -18 382.926 18.5068   1
   3  -3  18 403.207 18.7383   1
   4  -3  18 109.624 11.9362   1
  -4  -3 -18 85.3039 10.7271   1
  -5  -3 -18 5.26622 5.84895   1
   5  -3  18 2.69003 6.23254   1
  -6  -3 -18 70.0757 10.2709   1
   6  -3  18 68.1677 10.7175   1
  -7  -3 -18 57.0880 9.79903   1
   7  -3  18 90.9277 12.1802   1
   8  -3  18 -3.1170 6.62778   1
  -8  -3 -18 0.77078 6.10812   1
  13  -4 -18 11.1306 6.44510   1
 -13  -4  18 18.9485 7.55685   1
 -13  -4  18 18.6510 9.18203   2
 -12  -4  18 77.8527 10.5339   1
  12  -4 -18 74.5839 10.1227   1
 -12  -4  18 87.9813 13.7135   2
 -11  -4  18 34.1310 8.17906   1
  11  -4 -18 33.3104 7.52876   1
 -11  -4  18 58.0279 11.8898   2
 -10  -4  18 15.4248 6.72369   1
  10  -4 -18 20.1117 6.74616   1
 -10  -4  18 9.48338 8.27639   2
  -9  -4  18 39.4939 8.01306   1
  -9  -4  18 54.1950 10.9380   2
   9  -4 -18 54.4538 8.64170   1
   8  -4 -18 24.1866 6.65017   1
  -8  -4  18 25.5074 9.43803   2
  -8  -4  18 21.6176 7.03330   1
  -7  -4  18 4.09433 7.43030   2
  -7  -4  18 2.88929 5.32655   1
   7  -4 -18 5.43374 4.95235   1
   6  -4 -18 37.8453 7.32955   1
  -6  -4  18 31.0141 9.42290   2
  -6  -4  18 26.1246 6.98583   1
   5  -4 -18 4.92658 5.00188   1
  -5  -4  18 3.96177 6.96020   2
  -5  -4  18 0.40073 5.03040   1
  -4  -4  18 34.4515 7.48382   1
   4  -4 -18 25.4532 6.54067   1
  -4  -4  18 27.8909 9.43030   2
   3  -4 -18 15.5371 5.90911   1
  -3  -4  18 4.63463 5.08188   1
  -3  -4  18 6.61320 7.46681   2
   2  -4 -18 44.4921 7.95846   1
  -2  -4  18 38.1126 7.40925   1
  -2  -4  18 56.4843 11.5381   2
   1  -4 -18 37.0589 7.52353   1
  -1  -4  18 32.1702 7.46951   1
  -1  -4  18 32.0058 9.78095   2
   0  -4 -18 -0.8283 5.20360   1
   0  -4  18 5.42486 5.99293   1
  -1  -4 -18 106.160 11.4319   1
   1  -4  18 106.284 11.7820   1
   2  -4  18 239.822 15.6601   1
  -2  -4 -18 204.105 14.8399   1
  -3  -4 -18 35.5917 8.14221   1
   3  -4  18 29.6712 7.90473   1
   4  -4  18 163.851 14.5430   1
  -4  -4 -18 209.883 15.2225   1
  -5  -4 -18 37.4778 8.71575   1
   5  -4  18 36.8223 8.90378   1
  -6  -4 -18 -3.8417 5.63373   1
  -7  -5  18 3.52455 5.96896   1
  -7  -5  18 3.16433 8.52941   2
   7  -5 -18 4.06930 5.45835   1
  -6  -5  18 11.3153 6.39959   1
  -6  -5  18 12.9247 9.12143   2
   6  -5 -18 22.1963 6.67196   1
  -5  -5  18 20.2189 7.10547   1
   5  -5 -18 14.9173 6.01931   1
  -5  -5  18 6.96744 8.73718   2
   4  -5 -18 8.14043 5.91408   1
  -4  -5  18 6.98475 8.74149   2
  -4  -5  18 7.05457 5.83029   1
  -3  -5  18 13.0028 9.34846   2
   3  -5 -18 3.32733 5.61187   1
  -3  -5  18 3.91576 5.36728   1
   2  -5 -18 11.1121 6.21144   1
  -2  -5  18 3.57314 9.04076   2
  -2  -5  18 8.44841 6.05468   1
  -1  -5  18 -4.4322 7.77210   2
  -1  -5  18 3.38005 5.68673   1
   1  -5 -18 0.02184 5.08605   1
   0  -5  18 -0.8900 8.56803   2
   0  -5 -18 3.53513 5.46681   1
  18   0 -19 -7.5299 6.55001   1
  17   0 -19 -9.2294 5.38559   1
  16   0 -19 1.46135 6.46367   1
  15   0 -19 7.89439 6.11163   1
 -14   0  19 4.77768 5.59924   1
  14   0 -19 0.68791 5.48615   1
  13   0 -19 -0.1533 5.04678   1
 -13   0  19 9.09517 5.41181   1
  12   0 -19 -5.1288 4.59405   1
 -12   0  19 -3.1387 4.46487   1
 -11   0  19 -1.9205 4.48637   1
  11   0 -19 -0.3715 4.74110   1
 -10   0  19 -4.3635 4.57754   1
  10   0 -19 -4.4653 4.63941   1
   9   0 -19 -0.1429 4.70335   1
  -9   0  19 -2.7970 4.14617   1
  -8   0  19 -1.6241 4.27444   1
  -8   0  19 -6.0685 2.85812   3
   8   0 -19 -0.2149 4.52875   1
   7   0 -19 -6.6681 3.84845   1
  -7   0  19 -1.4763 4.41536   1
   6   0 -19 -7.8603 4.12455   1
  -6   0  19 -5.3295 3.95670   1
  -5   0  19 -3.4437 4.02515   1
   5   0 -19 0.89127 4.69940   1
   4   0 -19 1.16499 4.77599   1
  -4   0  19 7.25516 5.04001   1
   3   0 -19 7.32945 5.04887   1
  -3   0  19 10.3289 5.24719   1
  -2   0  19 7.78578 5.05340   1
   2   0 -19 6.32789 4.76498   1
   1   0 -19 7.24686 4.98371   1
  -1   0  19 -0.9628 4.41943   1
   0   0 -19 0.51910 4.55761   1
   0   0  19 -2.4814 4.02315   1
   1   0  19 5.70796 4.80147   1
  -1   0 -19 1.14024 4.54442   1
  -2   0 -19 5.34749 5.34875   1
   2   0  19 4.64742 5.01166   1
   3   0  19 4.49864 5.21522   1
  -3   0 -19 0.03410 4.47755   1
  -4   0 -19 6.52054 5.63002   1
   4   0  19 8.91111 5.31414   1
  -5   0 -19 1.31252 3.15185   3
  -5   0 -19 -5.0007 4.64824   1
   5   0  19 6.75783 5.61144   1
   6   0  19 -8.4468 4.88196   1
  -6   0 -19 -3.6052 4.68659   1
  -7   0 -19 2.56214 5.74286   1
   7   0  19 7.15969 6.23786   1
  -8   0 -19 -1.8764 5.53184   1
   8   0  19 -1.9968 5.66809   1
  -9   0 -19 -3.2569 5.59689   1
   9   0  19 -6.7149 5.96587   1
  -9   0 -19 5.35587 6.14652   1
  10   0  19 -8.3888 5.73288   1
 -17  -1  19 52.2181 9.25117   1
  17  -1 -19 39.9851 9.57242   1
  17   1 -19 39.5647 9.16977   1
 -16  -1  19 180.142 13.7199   3
 -16  -1  19 201.817 14.8802   1
  16  -1 -19 206.967 16.0050   1
  16   1 -19 181.231 15.6016   1
 -15  -1  19 31.8791 5.93560   3
  15  -1 -19 40.8115 8.79247   1
 -15  -1  19 31.0743 7.46501   1
  15   1 -19 40.7035 8.81344   1
 -14  -1  19 160.216 10.5045   3
  14  -1 -19 146.454 13.5548   1
 -14  -1  19 172.480 13.3378   1
  14   1 -19 176.846 13.6263   1
  13  -1 -19 422.447 19.6620   1
 -13  -1  19 389.601 15.1148   3
 -13  -1  19 404.054 19.0937   1
  13   1 -19 419.263 19.1875   1
 -12  -1  19 0.95395 2.99137   3
 -12  -1  19 0.19183 5.48278   1
  12  -1 -19 8.56908 5.85950   1
  12   1 -19 3.95690 5.28359   1
  11  -1 -19 120.233 11.6418   1
 -11  -1  19 139.125 12.7346   1
 -11  -1  19 132.510 9.06228   3
  11   1 -19 133.959 12.3304   1
 -10  -1  19 239.615 14.8814   1
  10  -1 -19 269.912 15.3614   1
 -10  -1  19 258.279 11.7080   3
  10   1 -19 249.184 14.7396   1
  -9  -1  19 9.91211 5.39747   2
   9  -1 -19 3.72821 5.08055   1
  -9  -1  19 6.87762 3.75675   3
  -9  -1  19 8.38072 5.58161   1
   9   1 -19 8.79044 5.43654   1
  -8  -1  19 0.59697 3.05006   3
  -8  -1  19 0.51840 3.87907   2
  -8  -1  19 -4.9350 4.36076   1
   8  -1 -19 1.65098 4.96839   1
   8   1 -19 -5.3949 4.29087   1
  -8   1  19 -1.4622 5.45453   1
   7  -1 -19 29.4420 7.00599   1
  -7  -1  19 23.1900 6.49041   1
  -7  -1  19 31.8859 6.02115   2
  -7  -1  19 19.9143 4.51508   3
   7   1 -19 25.2922 6.66245   1
  -7   1  19 27.0117 6.11985   1
  -6  -1  19 149.296 9.01791   3
  -6  -1  19 164.813 10.5422   2
   6  -1 -19 153.459 12.1094   1
  -6  -1  19 172.774 12.5187   1
   6   1 -19 137.574 11.2119   1
  -6   1  19 147.521 11.3857   1
  -5  -1  19 72.2315 8.12337   2
   5  -1 -19 51.4904 8.18179   1
  -5  -1  19 69.8811 9.13417   1
  -5  -1  19 86.3043 7.50373   3
   5   1 -19 62.9325 8.49750   1
  -5   1  19 54.2297 7.61039   1
  -4  -1  19 80.7854 7.32201   3
   4  -1 -19 79.9578 9.89364   1
  -4  -1  19 61.5130 8.96973   1
  -4   1  19 56.2330 8.07047   1
   4   1 -19 74.8201 9.27415   1
  -3  -1  19 240.893 14.4633   1
   3  -1 -19 268.989 14.8689   1
   3   1 -19 230.112 13.8508   1
  -3   1  19 242.439 13.6135   1
  -2  -1  19 994.054 28.6543   1
   2  -1 -19 1037.03 29.2849   1
   2   1 -19 1037.31 28.3905   1
  -2   1  19 993.460 27.3048   1
  -1  -1  19 48.9831 8.01529   1
   1  -1 -19 40.4603 7.74335   1
   1   1 -19 58.2360 8.16389   1
  -1   1  19 37.4948 6.99020   1
   0  -1 -19 456.625 19.0045   1
   0  -1  19 430.083 18.4556   1
   0   1 -19 420.107 17.7215   1
   0   1  19 426.299 17.4764   1
   1  -1  19 393.321 17.8924   1
  -1  -1 -19 400.039 18.1462   1
  -1   1 -19 383.862 17.1437   1
   1   1  19 402.111 17.0197   1
   2  -1  19 6.15321 5.78490   1
  -2  -1 -19 2.08525 5.37164   1
   2   1  19 2.03559 4.90611   1
  -2   1 -19 -4.7545 4.43990   1
   3  -1  19 107.210 11.1918   1
  -3  -1 -19 96.7004 10.8170   1
  -3   1 -19 104.849 10.9648   1
   3   1  19 94.2563 10.1464   1
  -4  -1 -19 -4.4792 4.62422   1
   4  -1  19 -1.0801 5.52306   1
   4   1  19 3.69589 5.09100   1
  -4   1 -19 3.27529 4.99259   1
  -5  -1 -19 -5.5613 5.09900   1
   5  -1  19 0.53625 5.24877   1
   5   1  19 -5.1546 4.48633   1
   6  -1  19 64.2035 10.1250   1
  -6  -1 -19 57.6302 9.76425   1
   7  -1  19 37.1320 8.59297   1
  -7  -1 -19 37.4803 8.66772   1
   8  -1  19 0.03729 6.32212   1
  -8  -1 -19 3.76331 6.11900   1
  -9  -1 -19 28.7211 8.56996   1
   9  -1  19 44.3898 9.77772   1
  -9  -1 -19 60.4271 10.1667   1
 -10  -1 -19 5.08557 4.16309   3
 -10  -1 -19 -0.5603 6.32720   1
  10  -1  19 5.84318 7.47249   1
 -10  -1 -19 7.03084 6.74344   1
  16  -2 -19 -13.898 6.12430   1
 -16  -2  19 6.97532 6.12752   2
 -16  -2  19 -0.2774 3.44490   3
 -16  -2  19 -2.2253 5.30412   1
 -15  -2  19 81.1339 10.5151   2
 -15  -2  19 38.5430 8.60038   1
  15  -2 -19 41.3740 9.29426   1
 -15  -2  19 53.1963 6.87593   3
 -14  -2  19 22.2419 4.83867   3
  14  -2 -19 33.6294 8.48107   1
 -14  -2  19 22.5236 7.20138   1
 -14  -2  19 19.1010 6.86246   2
 -13  -2  19 46.3098 8.65657   2
  13  -2 -19 22.8674 7.23264   1
 -13  -2  19 32.8216 5.35395   3
 -13  -2  19 23.1755 6.88190   1
 -12  -2  19 4.02462 3.30038   3
  12  -2 -19 9.03990 6.44434   1
 -12  -2  19 10.5787 6.02273   1
 -12  -2  19 4.93289 5.01521   2
 -11  -2  19 19.4194 6.47411   1
  11  -2 -19 11.8747 6.44974   1
 -11  -2  19 10.5220 6.43692   2
 -11  -2  19 12.6857 3.91626   3
 -10  -2  19 52.4499 5.97953   3
  10  -2 -19 56.7028 9.02035   1
 -10  -2  19 62.8249 9.23967   1
 -10  -2  19 51.3416 8.77082   2
  -9  -2  19 54.5217 8.71779   2
  -9  -2  19 51.8512 8.51843   1
  -9  -2  19 42.7457 8.24972   3
  -9  -2  19 54.0303 5.74937   3
   9  -2 -19 41.2507 7.86327   1
  -8  -2  19 236.697 14.6526   2
  -8  -2  19 230.430 10.1518   3
   8  -2 -19 230.159 14.1106   1
  -8  -2  19 232.587 14.2739   1
  -8  -2  19 221.504 10.3724   3
  -7  -2  19 255.935 10.7188   3
  -7  -2  19 264.081 10.5901   3
   7  -2 -19 252.577 14.6449   1
  -7  -2  19 257.058 15.0589   1
  -7  -2  19 238.726 14.5885   2
  -6  -2  19 191.260 13.4739   2
  -6  -2  19 192.406 9.02793   3
  -6  -2  19 196.588 9.36678   3
   6  -2 -19 195.792 13.1776   1
  -6  -2  19 190.807 13.6409   1
  -5  -2  19 224.321 9.89606   3
   5  -2 -19 231.827 14.0139   1
  -5  -2  19 233.456 9.81443   3
  -5  -2  19 229.550 14.4154   2
  -5  -2  19 274.318 15.0051   1
  -4  -2  19 34.6566 7.47299   1
  -4  -2  19 34.6797 7.63644   2
  -4  -2  19 26.2515 4.32782   3
  -4  -2  19 35.6216 5.00464   3
   4  -2 -19 36.7517 7.29178   1
  -3  -2  19 2.86080 4.96423   1
  -3  -2  19 3.45491 2.64754   3
  -3  -2  19 1.03748 4.99198   2
   3  -2 -19 5.19278 5.18921   1
  -3  -2  19 6.43232 3.26563   3
  -2  -2  19 16.2476 3.57225   3
  -2  -2  19 11.5145 6.04384   1
  -2  -2  19 13.5850 3.66746   3
   2  -2 -19 7.98218 5.66031   1
   1  -2 -19 63.6991 9.18612   1
  -1  -2  19 56.7559 5.52779   3
  -1  -2  19 58.0913 5.72672   3
  -1  -2  19 44.3778 8.44912   1
   0  -2 -19 209.720 13.9882   1
   0  -2  19 189.860 8.71447   3
   0  -2  19 203.164 8.98032   3
   0  -2  19 205.544 13.9921   1
   1  -2  19 4.64114 5.91959   1
   1  -2  19 1.58752 2.54315   3
  -1  -2 -19 6.10288 5.30885   1
   1  -2  19 3.89779 2.76452   3
   2  -2  19 110.098 7.00059   3
  -2  -2 -19 113.304 11.5772   1
   2  -2  19 86.6679 10.5117   1
   2  -2  19 123.530 7.20708   3
   3  -2  19 16.7407 3.64519   3
   3  -2  19 17.8424 6.50045   1
  -3  -2 -19 10.2436 6.05432   1
  -4  -2 -19 9.90195 5.95564   1
   4  -2  19 2.44864 5.35528   1
   4  -2  19 11.1087 3.26381   3
   5  -2  19 82.2355 10.7848   1
  -5  -2 -19 65.5912 9.88520   1
   5  -2  19 63.4723 5.76656   3
  -6  -2 -19 69.3683 10.3401   1
   6  -2  19 67.4029 5.96575   3
   6  -2  19 64.5594 10.2135   1
   7  -2  19 5.80380 2.96791   3
   7  -2  19 17.9784 7.48254   1
  -7  -2 -19 -5.6087 5.80829   1
   8  -2  19 161.488 15.3983   1
   8  -2  19 166.443 8.43283   3
  -8  -2 -19 163.265 15.3786   1
  -9  -2 -19 64.6615 10.4714   1
   9  -2  19 52.0191 5.37395   3
   9  -2  19 75.5088 11.8507   1
 -15  -3  19 -0.6212 2.73608   3
 -15  -3  19 1.11935 2.99595   3
 -14  -3  19 1.21017 2.46449   3
 -14  -3  19 16.1534 6.82584   2
 -14  -3  19 -0.2623 2.76064   3
 -14  -3  19 -5.0818 5.92890   1
  14  -3 -19 -2.0142 6.16922   1
 -13  -3  19 8.44876 6.67705   1
 -13  -3  19 5.51537 6.85739   2
  13  -3 -19 1.60085 5.74125   1
 -13  -3  19 3.76211 2.73511   3
 -13  -3  19 1.87866 2.47547   3
  12  -3 -19 2.23497 5.71187   1
 -12  -3  19 3.63163 5.82326   1
 -12  -3  19 6.15362 2.60335   3
 -12  -3  19 4.32376 2.70026   3
 -12  -3  19 7.61842 6.77132   2
 -11  -3  19 35.0678 8.86842   2
 -11  -3  19 50.4450 9.27039   1
 -11  -3  19 43.7793 4.54181   3
  11  -3 -19 45.3215 8.40608   1
 -11  -3  19 45.4156 4.75847   3
 -10  -3  19 0.15022 6.11797   2
 -10  -3  19 -2.3886 5.29744   1
 -10  -3  19 2.33034 2.35068   3
 -10  -3  19 2.06453 2.24566   3
  10  -3 -19 -2.1299 4.86325   1
  -9  -3  19 5.57436 2.37571   3
   9  -3 -19 8.79303 5.49798   1
  -9  -3  19 4.05524 2.53580   3
  -9  -3  19 -0.8061 5.71840   2
  -9  -3  19 2.12976 5.45077   1
  -8  -3  19 20.7189 3.09424   3
  -8  -3  19 20.1959 3.11964   3
   8  -3 -19 31.6586 7.21640   1
  -8  -3  19 10.3489 6.21245   1
  -8  -3  19 28.2516 8.28199   2
  -7  -3  19 49.7655 4.08038   3
  -7  -3  19 48.0090 9.43497   2
  -7  -3  19 61.6820 9.14534   1
  -7  -3  19 46.6466 4.08984   3
   7  -3 -19 39.8193 7.74077   1
   6  -3 -19 52.7445 8.38586   1
  -6  -3  19 52.3091 8.70109   1
  -6  -3  19 64.0847 4.40212   3
  -6  -3  19 56.8065 4.10723   3
  -6  -3  19 57.0247 9.96029   2
  -5  -3  19 23.6128 2.81798   3
  -5  -3  19 26.3414 8.02361   2
  -5  -3  19 25.0861 2.84364   3
  -5  -3  19 24.9807 7.00271   1
   5  -3 -19 27.6858 6.60404   1
  -4  -3  19 -1.9012 4.81958   1
  -4  -3  19 -8.9497 5.31716   2
   4  -3 -19 -0.3689 4.92792   1
   3  -3 -19 13.2359 5.88329   1
  -3  -3  19 14.0380 6.53793   1
  -3  -3  19 11.6211 7.01769   2
   2  -3 -19 4.93976 5.51451   1
  -2  -3  19 7.76986 7.06837   2
  -2  -3  19 9.12255 6.05070   1
  -1  -3  19 -1.6452 5.43796   1
   1  -3 -19 -0.6889 5.01169   1
   0  -3  19 -3.0503 5.39078   1
   0  -3 -19 -1.4749 5.21146   1
   1  -3  19 11.2262 6.50667   1
  -1  -3 -19 14.0387 6.81080   1
   2  -3  19 24.8005 7.77466   1
  -2  -3 -19 17.2888 6.63072   1
   3  -3  19 0.86702 6.13979   1
  -3  -3 -19 5.39537 6.09639   1
  -4  -3 -19 -3.7962 5.12398   1
   4  -3  19 -1.5654 6.17847   1
   5  -3  19 -3.6932 6.48901   1
  -5  -3 -19 1.57172 5.87675   1
  -6  -3 -19 3.10416 6.15307   1
   6  -3  19 -10.450 6.21528   1
   7  -3  19 28.2528 8.67898   1
  -7  -3 -19 21.6309 8.18035   1
 -11  -4  19 -3.6515 5.60984   1
  11  -4 -19 0.73647 5.58542   1
 -11  -4  19 -1.3841 7.45352   2
 -10  -4  19 66.4450 10.1669   1
 -10  -4  19 66.6527 12.0182   2
  10  -4 -19 57.8490 9.10905   1
   9  -4 -19 3.16291 5.40003   1
  -9  -4  19 3.06544 6.96260   2
  -9  -4  19 -3.2072 5.69969   1
  -8  -4  19 85.6813 10.9060   1
  -8  -4  19 85.5937 13.2900   2
   8  -4 -19 87.2007 10.3474   1
  -7  -4  19 41.5693 10.3574   2
   7  -4 -19 43.3269 7.80279   1
  -7  -4  19 39.3103 8.31708   1
  -6  -4  19 50.0363 10.9933   2
   6  -4 -19 57.0176 8.89160   1
  -6  -4  19 59.5952 9.43535   1
  -5  -4  19 72.4717 12.8002   2
   5  -4 -19 79.4356 10.0706   1
  -5  -4  19 68.7654 9.84728   1
  -4  -4  19 -9.4533 5.75715   2
   4  -4 -19 0.96423 5.24201   1
  -4  -4  19 0.61584 5.43359   1
   3  -4 -19 90.2673 10.8077   1
  -3  -4  19 81.9060 10.5694   1
  -3  -4  19 81.9117 13.2272   2
   2  -4 -19 28.0968 7.44679   1
  -2  -4  19 23.1190 7.55169   1
  -2  -4  19 35.4567 10.2978   2
  -1  -4  19 -7.7075 6.48566   2
   1  -4 -19 -8.8196 4.56511   1
  -1  -4  19 -7.7043 5.44081   1
   0  -4  19 62.6287 10.0384   1
   0  -4 -19 77.7181 10.2179   1
  -1  -4 -19 2.20632 5.30255   1
   1  -4  19 0.95837 5.82703   1
   2  -4  19 4.65170 6.59400   1
  -2  -4 -19 -0.9995 5.22528   1
   3  -4  19 94.1394 11.9518   1
  -3  -4 -19 91.1638 11.3192   1
   4  -4  19 28.7089 8.52634   1
  -4  -4 -19 17.7541 7.12932   1
  17   0 -20 101.929 12.8171   1
  16   0 -20 11.1041 7.36874   1
  15   0 -20 293.503 17.9149   1
  14   0 -20 238.554 15.7134   1
  13   0 -20 2.03646 5.59204   1
 -13   0  20 5.62922 5.92899   1
 -12   0  20 0.49112 4.95787   1
  12   0 -20 -0.1226 5.03885   1
 -11   0  20 17.4335 6.64648   1
  11   0 -20 19.2286 6.61666   1
  10   0 -20 -8.2550 4.38338   1
 -10   0  20 2.68442 5.03947   1
  -9   0  20 157.223 12.2328   1
   9   0 -20 155.844 12.4816   1
   8   0 -20 22.7315 6.68922   1
  -8   0  20 12.5077 5.87975   1
  -7   0  20 133.915 11.9259   1
   7   0 -20 135.834 12.8517   1
  -6   0  20 76.7315 9.46991   1
   6   0 -20 86.7674 9.97671   1
  -5   0  20 121.519 11.2157   1
   5   0 -20 130.563 12.2411   1
  -4   0  20 1102.71 30.1864   1
   4   0 -20 1072.87 30.2831   1
  -3   0  20 223.955 13.7328   1
   3   0 -20 230.104 14.2728   1
   2   0 -20 170.667 12.5067   1
  -2   0  20 171.417 12.4296   1
  -1   0  20 6.41762 5.32109   1
   1   0 -20 -3.9424 4.40481   1
   0   0 -20 9.24130 5.42268   1
   0   0  20 -4.3413 4.27660   1
   1   0  20 5.12772 5.22893   1
  -1   0 -20 -1.6609 4.62436   1
   2   0  20 239.020 14.8563   1
  -2   0 -20 232.645 14.6651   1
  -3   0 -20 574.915 22.1334   1
   3   0  20 541.141 21.4714   1
   4   0  20 1.34094 5.19550   1
  -4   0 -20 20.3374 6.87577   1
   5   0  20 -0.9356 5.41778   1
  -5   0 -20 -2.8067 5.32428   1
   6   0  20 38.4625 8.77928   1
  -6   0 -20 46.8266 8.94193   1
   7   0  20 -9.7683 5.25165   1
  -7   0 -20 -4.1123 5.16095   1
   8   0  20 4.91030 7.12979   1
  -8   0 -20 -0.4506 5.48294   1
   9   0  20 20.8674 7.77172   1
 -16  -1  20 101.169 11.6474   1
  16  -1 -20 105.180 12.8123   1
  16   1 -20 127.911 13.8979   1
  15  -1 -20 113.803 13.2474   1
 -15  -1  20 126.338 13.1828   1
 -15  -1  20 141.167 10.1335   3
  15   1 -20 116.065 12.6620   1
 -14  -1  20 67.2292 9.94670   1
 -14  -1  20 57.8615 7.14907   3
  14  -1 -20 65.8285 10.1858   1
  14   1 -20 77.1588 11.0767   1
 -13  -1  20 129.130 12.7259   1
 -13  -1  20 101.217 8.99251   3
  13  -1 -20 99.8290 12.1034   1
  13   1 -20 117.246 12.4049   1
 -12  -1  20 13.9009 6.69363   1
  12  -1 -20 29.5030 7.52925   1
 -12  -1  20 30.9583 5.58037   3
  12   1 -20 32.2610 7.79012   1
 -11  -1  20 -4.0172 4.36302   1
  11  -1 -20 3.06124 5.40651   1
 -11  -1  20 3.15265 3.19285   3
  11   1 -20 -6.1358 4.56104   1
 -10  -1  20 10.9010 6.40167   1
  10  -1 -20 11.1451 5.97753   1
 -10  -1  20 6.13166 3.58726   3
  10   1 -20 17.4973 6.30323   1
  -9  -1  20 1.20035 3.34956   3
  -9  -1  20 0.68395 5.34159   1
   9  -1 -20 1.03380 5.07523   1
   9   1 -20 7.29883 5.38377   1
  -8  -1  20 7.38491 3.63283   3
   8  -1 -20 2.54764 5.11363   1
  -8  -1  20 5.33982 5.41566   1
   8   1 -20 -0.6609 4.87877   1
  -7  -1  20 1.56758 3.50638   3
   7  -1 -20 -3.9850 4.73337   1
  -7  -1  20 -1.8980 5.22046   1
   7   1 -20 -4.2984 4.60459   1
   6  -1 -20 1.77621 5.40851   1
  -6  -1  20 -4.3636 2.86795   3
  -6  -1  20 -5.9639 4.47767   1
   6   1 -20 0.00823 4.92019   1
  -5  -1  20 334.276 13.0825   3
  -5  -1  20 324.333 16.4274   1
   5  -1 -20 308.642 16.5019   1
  -5   1  20 323.326 17.5834   1
   5   1 -20 330.589 16.5378   1
   4  -1 -20 227.622 14.5576   1
  -4  -1  20 236.595 14.4162   1
  -4  -1  20 252.961 11.3448   3
   4   1 -20 242.349 14.5318   1
  -4   1  20 218.635 13.5617   1
  -3  -1  20 60.3607 8.68641   1
   3  -1 -20 69.2546 9.78546   1
   3   1 -20 55.5849 8.12466   1
  -3   1  20 47.3393 7.73162   1
   2  -1 -20 10.8458 6.18378   1
  -2  -1  20 22.5841 7.01373   1
  -2   1  20 24.0162 6.39465   1
   2   1 -20 16.7114 6.07295   1
  -1  -1  20 103.948 10.8073   1
   1  -1 -20 97.6335 10.8934   1
  -1   1  20 107.427 10.6526   1
   0  -1  20 52.5491 8.43524   1
   0  -1 -20 70.4798 9.82849   1
   0   1  20 52.6076 8.35989   1
   0   1 -20 34.4185 7.09538   1
  -1  -1 -20 55.4172 8.76773   1
   1  -1  20 57.2645 9.14354   1
  -1   1 -20 50.1853 8.13507   1
   1   1  20 44.6544 7.92353   1
  -2  -1 -20 83.4864 10.4385   1
   2  -1  20 85.1257 10.2478   1
   2   1  20 77.8224 11.1043   1
  -2   1 -20 98.2573 10.8166   1
  -3  -1 -20 82.8654 10.7533   1
   3  -1  20 78.7842 10.5433   1
  -3   1 -20 73.5683 11.6336   1
  -4  -1 -20 4.51161 6.03134   1
   4  -1  20 4.00748 6.03522   1
  -5  -1 -20 16.6899 7.17299   1
   5  -1  20 22.3552 7.58386   1
  -6  -1 -20 10.3757 6.88286   1
   6  -1  20 16.3497 7.34283   1
  -7  -1 -20 7.48639 6.73663   1
   7  -1  20 11.5434 7.45563   1
  -8  -1 -20 12.8545 6.93050   1
   8  -1  20 8.99638 7.31546   1
 -15  -2  20 12.4317 4.38725   3
  15  -2 -20 9.49878 7.49496   1
 -15  -2  20 3.78984 6.34301   1
 -14  -2  20 -4.0495 2.77531   3
  14  -2 -20 -4.7751 6.02824   1
 -14  -2  20 1.59574 7.64759   2
 -14  -2  20 -1.3596 5.91923   1
 -13  -2  20 193.246 14.4643   2
  13  -2 -20 157.355 14.7048   1
 -13  -2  20 169.228 9.95302   3
 -13  -2  20 212.827 15.1939   1
  12  -2 -20 76.6054 10.7770   1
 -12  -2  20 65.6024 9.90879   1
 -12  -2  20 70.9992 7.14959   3
 -12  -2  20 88.2238 10.0928   2
 -11  -2  20 2.78661 5.72795   1
  11  -2 -20 2.69931 5.75978   1
 -11  -2  20 5.32830 5.22005   2
 -11  -2  20 4.53068 3.51469   3
 -10  -2  20 1.79791 3.13085   3
  10  -2 -20 1.26240 5.40932   1
 -10  -2  20 7.80558 5.06314   2
 -10  -2  20 -1.6137 5.12181   1
  -9  -2  20 11.8695 6.09315   1
  -9  -2  20 14.7580 4.01099   3
  -9  -2  20 20.3732 6.68064   2
   9  -2 -20 14.3871 6.50873   1
  -8  -2  20 9.32670 6.24617   1
  -8  -2  20 3.34911 3.27755   3
  -8  -2  20 -3.5816 4.42405   2
   8  -2 -20 2.79464 5.62796   1
   7  -2 -20 28.0939 7.32569   1
  -7  -2  20 35.9741 4.99813   3
  -7  -2  20 35.6990 7.62224   2
  -7  -2  20 37.7796 7.99276   1
  -7  -2  20 30.6148 5.10438   3
  -6  -2  20 116.276 7.88554   3
  -6  -2  20 111.935 11.5289   2
  -6  -2  20 92.6710 7.23781   3
  -6  -2  20 79.2657 9.81905   1
   6  -2 -20 92.3077 10.7747   1
  -5  -2  20 14.9606 3.91475   3
   5  -2 -20 6.38545 5.71149   1
  -5  -2  20 4.94448 3.15953   3
  -5  -2  20 9.10444 5.83114   2
  -5  -2  20 11.8666 6.17862   1
  -4  -2  20 15.6409 3.89003   3
   4  -2 -20 6.71626 5.83016   1
  -4  -2  20 13.8563 6.09227   2
  -4  -2  20 13.7996 6.44667   1
  -4  -2  20 9.47908 3.51676   3
  -3  -2  20 5.16561 3.00353   3
  -3  -2  20 13.9980 3.64974   3
  -3  -2  20 7.74064 5.93975   1
   3  -2 -20 10.3632 6.04596   1
  -2  -2  20 76.8524 6.71495   3
   2  -2 -20 74.9831 10.1931   1
  -2  -2  20 92.4068 11.1031   1
  -2  -2  20 66.2341 6.13337   3
  -1  -2  20 325.909 11.7983   3
  -1  -2  20 336.294 11.8567   3
   1  -2 -20 329.340 17.1644   1
  -1  -2  20 349.432 17.8363   1
   0  -2  20 33.0894 4.59910   3
   0  -2  20 15.1430 3.68947   3
   0  -2 -20 35.3230 7.47558   1
   0  -2  20 22.7987 7.30753   1
   1  -2  20 29.2649 7.77369   1
   1  -2  20 31.4638 4.60054   3
   1  -2  20 28.3363 4.47261   3
  -1  -2 -20 30.2031 7.94240   1
  -2  -2 -20 145.157 13.3277   1
   2  -2  20 157.719 8.30193   3
   2  -2  20 153.293 8.22133   3
   2  -2  20 169.815 13.8556   1
   3  -2  20 40.8734 8.43239   1
   3  -2  20 26.4764 4.29409   3
   3  -2  20 20.8146 3.93926   3
  -3  -2 -20 8.95016 6.34455   1
  -4  -2 -20 26.5729 7.72835   1
   4  -2  20 27.2118 4.36195   3
   4  -2  20 33.9849 8.28937   1
   5  -2  20 23.2827 4.10649   3
   5  -2  20 19.4541 8.01525   1
  -5  -2 -20 16.5651 7.31859   1
   6  -2  20 29.2800 8.70707   1
   6  -2  20 27.1735 4.35644   3
  -6  -2 -20 30.5667 8.55537   1
   7  -2  20 58.3694 5.78395   3
   7  -2  20 50.1649 10.6982   1
  -7  -2 -20 47.2527 10.0367   1
 -13  -3  20 87.2518 6.36273   3
 -13  -3  20 95.0776 12.6095   2
 -13  -3  20 93.6696 6.79906   3
  13  -3 -20 65.1148 10.7419   1
 -13  -3  20 83.9076 11.5389   1
  12  -3 -20 416.597 20.1429   1
 -12  -3  20 397.825 12.2269   3
 -12  -3  20 412.414 21.8003   2
 -12  -3  20 426.430 20.8378   1
 -12  -3  20 406.383 12.1888   3
 -11  -3  20 3.96719 2.64696   3
 -11  -3  20 15.8153 5.75396   2
 -11  -3  20 1.80415 2.52443   3
  11  -3 -20 7.38477 6.19202   1
 -11  -3  20 4.62296 5.95015   1
 -10  -3  20 93.2106 12.1954   2
  10  -3 -20 75.6001 10.1952   1
 -10  -3  20 94.7477 11.6976   1
 -10  -3  20 93.2795 5.92383   3
 -10  -3  20 90.4439 5.98144   3
  -9  -3  20 103.625 5.99090   3
   9  -3 -20 96.9008 11.2025   1
  -9  -3  20 116.250 13.4645   2
  -9  -3  20 93.6676 11.4805   1
  -9  -3  20 104.802 6.15228   3
  -8  -3  20 -3.6956 5.31698   2
  -8  -3  20 -1.9346 5.31738   1
  -8  -3  20 -0.4080 2.15747   3
  -8  -3  20 1.24340 2.20315   3
   8  -3 -20 2.11879 5.48002   1
   7  -3 -20 82.6459 10.3265   1
  -7  -3  20 96.3662 5.29673   3
  -7  -3  20 84.0342 11.8592   2
  -7  -3  20 78.5746 10.9805   1
  -7  -3  20 83.3930 5.32904   3
  -6  -3  20 168.167 6.58867   3
  -6  -3  20 148.743 13.3841   1
   6  -3 -20 161.670 13.0362   1
  -6  -3  20 176.571 15.3520   2
  -6  -3  20 163.045 6.32365   3
  -5  -3  20 -0.3807 1.82618   3
   5  -3 -20 -0.7222 5.13586   1
  -5  -3  20 8.99069 5.94658   1
  -5  -3  20 0.69823 1.69037   3
  -5  -3  20 1.42790 5.58359   2
  -4  -3  20 7.84628 5.94400   1
   4  -3 -20 -4.8685 5.09834   1
  -4  -3  20 -0.2658 6.18084   2
  -4  -3  20 -2.2174 1.63470   3
  -3  -3  20 131.381 12.3583   1
  -3  -3  20 131.871 14.5711   2
   3  -3 -20 134.852 13.0216   1
   2  -3 -20 46.1114 8.90890   1
  -2  -3  20 75.6399 10.6461   1
  -1  -3  20 67.5005 10.0872   1
   1  -3 -20 72.7352 10.2075   1
   0  -3  20 95.7214 11.4933   1
   0  -3 -20 69.3863 10.1485   1
   1  -3  20 70.4723 10.3830   1
  -1  -3 -20 80.6731 10.4000   1
  -2  -3 -20 16.9229 6.94570   1
   2  -3  20 16.0849 7.21433   1
  -3  -3 -20 64.1932 9.95729   1
   3  -3  20 71.2841 11.0385   1
  -4  -3 -20 77.7413 10.8393   1
   4  -3  20 75.8424 11.3518   1
  -5  -3 -20 2.83698 6.19118   1
   5  -3  20 -5.6015 6.71469   1
  10  -4 -20 4.69142 5.95778   1
  -9  -4  20 2.45064 7.53315   2
  -9  -4  20 1.60970 6.12574   1
   9  -4 -20 -3.2954 5.14378   1
  -8  -4  20 24.1953 9.43889   2
   8  -4 -20 32.9707 7.94730   1
  -8  -4  20 32.9484 8.07796   1
  -7  -4  20 40.4549 8.68923   1
  -7  -4  20 44.3712 11.1229   2
   7  -4 -20 32.4418 8.10584   1
  -6  -4  20 -6.0792 5.55913   1
  -6  -4  20 -3.5514 6.65888   2
   6  -4 -20 2.60608 5.61320   1
   5  -4 -20 60.8938 9.61120   1
  -5  -4  20 56.2524 9.46476   1
  -5  -4  20 51.7107 11.4762   2
   4  -4 -20 43.5622 8.71994   1
  -4  -4  20 45.6083 9.25914   1
  -4  -4  20 64.3394 12.7704   2
  -3  -4  20 1.49259 6.08823   1
  -3  -4  20 -6.5506 6.84845   2
   3  -4 -20 1.12046 5.58763   1
  -2  -4  20 119.644 15.6190   2
   2  -4 -20 101.338 11.7357   1
  -2  -4  20 89.7739 11.4161   1
   1  -4 -20 56.7495 9.51939   1
  -1  -4  20 71.0123 10.8658   1
   0  -4 -20 -3.0059 5.42879   1
   0  -4  20 -0.2022 6.42588   1
  -1  -4 -20 1.67060 5.77661   1
   1  -4  20 -9.1118 5.83027   1
  16   0 -21 1.46849 6.63084   1
  15   0 -21 8.02416 6.94401   1
  14   0 -21 -1.5373 5.97702   1
  13   0 -21 -1.5126 5.07532   1
 -12   0  21 13.2545 6.94730   1
  12   0 -21 -4.3055 5.25708   1
  11   0 -21 -9.4151 4.46093   1
 -11   0  21 1.33692 5.25964   1
 -10   0  21 -2.8486 4.94315   1
  10   0 -21 0.32150 4.90929   1
  -9   0  21 -3.9932 5.17549   1
   9   0 -21 -4.7004 4.88843   1
  -8   0  21 -6.0879 4.87790   1
   8   0 -21 -9.1049 4.25335   1
  -7   0  21 0.56030 5.27256   1
   7   0 -21 -7.1406 4.47743   1
   6   0 -21 -1.7223 5.11972   1
  -6   0  21 3.80816 5.42547   1
  -5   0  21 -8.5576 4.46445   1
   5   0 -21 4.29309 5.44119   1
   4   0 -21 0.43151 5.29511   1
  -4   0  21 5.34135 5.61216   1
  -3   0  21 2.85949 5.33998   1
   3   0 -21 -0.5375 5.21779   1
   2   0 -21 2.01243 5.27085   1
  -2   0  21 1.06466 5.06702   1
   1   0 -21 -1.5085 5.19226   1
  -1   0  21 2.20960 4.89241   1
   0   0  21 0.93512 5.01485   1
   0   0 -21 -3.6112 5.09749   1
   1   0  21 2.69443 5.32132   1
  -1   0 -21 4.02069 5.42069   1
  -2   0 -21 2.50072 5.24274   1
   2   0  21 -7.6135 4.57838   1
   3   0  21 -4.0507 5.00273   1
  -3   0 -21 4.01199 5.41614   1
  -4   0 -21 3.62927 5.80863   1
   4   0  21 -5.6024 4.94268   1
   5   0  21 -12.226 4.54235   1
  -5   0 -21 9.32882 6.58903   1
  -6   0 -21 -8.7642 5.13516   1
   6   0  21 -7.8149 5.36638   1
  -7   0 -21 -6.9406 5.76921   1
   7   0  21 -8.3820 5.49893   1
  15  -1 -21 6.48327 7.10670   1
 -15  -1  21 -4.0848 5.66624   1
  15   1 -21 1.27384 6.70749   1
  14  -1 -21 1.71403 6.70346   1
 -14  -1  21 6.13813 4.02571   3
 -14  -1  21 9.36492 6.98302   1
  14   1 -21 6.33233 6.31104   1
 -13  -1  21 98.0261 11.3755   1
 -13  -1  21 121.961 10.0264   3
  13  -1 -21 97.7288 12.4814   1
  13   1 -21 127.086 13.1186   1
 -12  -1  21 44.5596 8.89848   1
  12  -1 -21 71.1719 10.6689   1
 -12  -1  21 44.9505 6.48912   3
  12   1 -21 39.0804 8.15760   1
 -11  -1  21 28.1168 5.43243   3
 -11  -1  21 26.2501 7.37611   1
  11  -1 -21 25.3384 7.72535   1
  11   1 -21 21.1237 7.20882   1
  10  -1 -21 6.34699 5.79362   1
 -10  -1  21 8.42782 3.94700   3
 -10  -1  21 16.7411 6.90754   1
  10   1 -21 6.82996 6.14082   1
  -9  -1  21 90.6715 8.51689   3
   9  -1 -21 86.5141 10.9326   1
  -9  -1  21 71.9936 9.64965   1
   9   1 -21 81.2280 10.1835   1
  -8  -1  21 33.6263 5.62595   3
   8  -1 -21 36.3489 7.97071   1
  -8  -1  21 56.9076 8.93514   1
   8   1 -21 52.7835 8.89253   1
   7  -1 -21 12.2903 6.37132   1
  -7  -1  21 24.0393 6.98063   1
  -7  -1  21 25.8731 5.05319   3
   7   1 -21 21.4748 6.67130   1
  -6  -1  21 142.177 13.0398   1
   6  -1 -21 113.045 11.7871   1
  -6  -1  21 136.008 9.24235   3
   6   1 -21 117.988 11.4047   1
  -5  -1  21 34.4503 7.51300   1
   5  -1 -21 24.9297 7.13744   1
  -5  -1  21 31.4273 5.20872   3
   5   1 -21 37.0275 7.75764   1
  -4  -1  21 35.3931 5.55224   3
   4  -1 -21 28.5442 7.75313   1
  -4  -1  21 35.2820 7.83446   1
   4   1 -21 36.3068 7.78633   1
   3  -1 -21 102.703 11.5354   1
  -3  -1  21 114.090 11.6000   1
   3   1 -21 100.849 11.0167   1
  -2  -1  21 3.47820 5.37754   1
   2  -1 -21 5.67528 5.75081   1
   2   1 -21 4.14308 5.48117   1
  -1  -1  21 1.48040 5.42768   1
   1  -1 -21 -2.4481 5.30783   1
   1   1 -21 0.28231 4.80269   1
   0  -1  21 2.04911 5.74352   1
   0  -1 -21 8.62689 6.01717   1
   0   1 -21 0.94102 5.13256   1
  -1  -1 -21 4.67949 5.70776   1
   1  -1  21 1.31148 5.64660   1
  -1   1 -21 -0.6974 5.43862   1
   2  -1  21 26.2337 7.77564   1
  -2  -1 -21 33.4537 8.12593   1
   3  -1  21 9.07449 6.56614   1
  -3  -1 -21 12.9382 6.56028   1
  -4  -1 -21 41.4919 8.58834   1
   4  -1  21 44.6492 8.89210   1
   5  -1  21 17.9852 7.36682   1
  -5  -1 -21 12.8291 7.11125   1
  -6  -1 -21 62.4056 10.3931   1
   6  -1  21 48.7785 10.0143   1
   7  -1  21 77.3340 12.0502   1
  -7  -1 -21 77.7794 11.4491   1
 -14  -2  21 147.606 14.2565   1
 -14  -2  21 150.160 10.0704   3
  14  -2 -21 159.036 15.1310   1
  13  -2 -21 6.42438 6.61856   1
 -13  -2  21 4.69615 6.55756   1
 -13  -2  21 3.45608 3.50071   3
  12  -2 -21 131.546 13.4045   1
 -12  -2  21 135.389 13.9058   1
 -12  -2  21 151.462 9.47867   3
  11  -2 -21 252.427 16.5232   1
 -11  -2  21 252.986 16.4865   1
 -11  -2  21 244.823 11.3895   3
 -10  -2  21 20.3217 4.61084   3
 -10  -2  21 40.6487 8.52155   1
  10  -2 -21 23.4988 7.83190   1
  -9  -2  21 3.81305 6.27679   1
  -9  -2  21 3.94028 6.20675   2
   9  -2 -21 4.68118 5.89569   1
  -9  -2  21 6.21667 3.56312   3
  -8  -2  21 48.7516 9.19806   1
  -8  -2  21 60.2766 6.62736   3
   8  -2 -21 50.5220 9.31717   1
  -8  -2  21 51.6012 8.79447   2
  -7  -2  21 135.905 12.4130   2
  -7  -2  21 132.306 8.51350   3
  -7  -2  21 166.424 14.6914   1
   7  -2 -21 152.034 13.7629   1
  -6  -2  21 20.6541 4.28391   3
   6  -2 -21 24.6037 7.61903   1
  -6  -2  21 20.4231 7.29553   1
  -6  -2  21 20.0106 6.74146   2
  -5  -2  21 173.210 13.2918   2
  -5  -2  21 167.896 13.7383   1
  -5  -2  21 172.876 9.88448   3
  -5  -2  21 168.711 9.11612   3
   5  -2 -21 156.246 14.0478   1
  -4  -2  21 181.171 9.46440   3
  -4  -2  21 193.386 14.2562   1
  -4  -2  21 183.435 9.40171   3
   4  -2 -21 169.877 13.6425   1
  -3  -2  21 6.89555 3.50373   3
   3  -2 -21 11.2189 6.43131   1
  -3  -2  21 7.05002 3.22290   3
  -3  -2  21 4.96793 5.92270   1
   2  -2 -21 128.980 12.9613   1
  -2  -2  21 141.342 8.56052   3
  -2  -2  21 144.377 14.0478   1
  -2  -2  21 126.878 8.03783   3
   1  -2 -21 39.2734 8.52072   1
  -1  -2  21 39.5326 5.17249   3
  -1  -2  21 32.4583 4.71137   3
  -1  -2  21 25.2720 7.67466   1
   0  -2  21 4.72735 5.99562   1
   0  -2  21 -0.5273 2.71791   3
   0  -2 -21 -0.3488 5.45339   1
   0  -2  21 4.82436 2.94410   3
   1  -2  21 7.63883 3.43497   3
   1  -2  21 11.0511 6.94288   1
   1  -2  21 10.7520 3.70678   3
  -1  -2 -21 -0.4828 5.54894   1
   2  -2  21 87.6899 11.2717   1
   2  -2  21 78.4601 6.71101   3
   2  -2  21 76.2645 6.67024   3
  -2  -2 -21 67.2709 9.83723   1
   3  -2  21 70.4939 6.39375   3
   3  -2  21 62.2003 6.14661   3
  -3  -2 -21 72.3379 10.5931   1
   3  -2  21 73.9603 11.0337   1
   4  -2  21 22.8101 4.34710   3
   4  -2  21 20.4788 8.12189   1
  -4  -2 -21 20.7847 7.97141   1
  -5  -2 -21 207.957 16.4910   1
   5  -2  21 213.488 9.82406   3
   5  -2  21 271.200 18.2207   1
   6  -2  21 131.620 14.5281   1
  -6  -2 -21 143.546 14.7995   1
   6  -2  21 135.222 8.22707   3
 -12  -3  21 -1.1380 2.35677   3
 -12  -3  21 18.6683 6.92998   2
  12  -3 -21 4.07910 6.94358   1
 -12  -3  21 1.26052 2.63021   3
 -12  -3  21 -0.4219 6.69679   1
 -11  -3  21 16.3638 3.40896   3
 -11  -3  21 9.90418 3.17258   3
 -11  -3  21 24.6135 8.27112   2
 -11  -3  21 26.9293 8.43961   1
  11  -3 -21 16.7017 7.58737   1
 -10  -3  21 23.2277 3.70072   3
 -10  -3  21 26.5636 4.02293   3
  10  -3 -21 23.0065 7.62602   1
 -10  -3  21 20.8677 7.92398   1
 -10  -3  21 22.9371 8.13774   2
   9  -3 -21 0.87984 5.70405   1
  -9  -3  21 -3.8924 2.03362   3
  -9  -3  21 -0.3442 2.35943   3
  -9  -3  21 -4.1291 5.54779   1
  -9  -3  21 -6.4242 5.58919   2
  -8  -3  21 18.9191 7.38239   1
  -8  -3  21 7.43050 2.57598   3
   8  -3 -21 8.64056 6.66845   1
  -8  -3  21 13.1663 3.06699   3
  -8  -3  21 3.33694 6.46427   2
  -7  -3  21 14.6213 2.88068   3
   7  -3 -21 4.19456 6.20275   1
  -7  -3  21 15.4987 7.61499   2
  -7  -3  21 5.60982 6.61545   1
  -7  -3  21 14.9541 3.05541   3
   6  -3 -21 19.7986 7.48673   1
  -6  -3  21 21.8139 8.10825   2
  -6  -3  21 22.2916 3.10056   3
  -6  -3  21 35.2606 8.17405   1
  -6  -3  21 27.2246 3.36356   3
   5  -3 -21 18.5989 7.36855   1
  -5  -3  21 31.7219 8.19067   1
  -5  -3  21 26.2891 8.43803   2
  -5  -3  21 18.4747 2.78773   3
  -5  -3  21 19.7596 2.98996   3
  -4  -3  21 3.71681 6.05117   1
   4  -3 -21 14.8439 6.92697   1
  -4  -3  21 4.02211 6.74538   2
   3  -3 -21 10.3651 6.29872   1
  -3  -3  21 11.8576 6.67806   1
  -2  -3  21 71.9584 10.7074   1
   2  -3 -21 43.0946 8.78253   1
  -1  -3  21 9.73638 7.09624   1
   1  -3 -21 20.0683 7.27302   1
   0  -3  21 3.23379 6.30717   1
   0  -3 -21 -4.8107 5.25725   1
  -1  -3 -21 8.04218 6.44351   1
   1  -3  21 5.34930 6.61774   1
  -2  -3 -21 12.7042 6.74721   1
   2  -3  21 -2.1382 6.31564   1
   3  -3  21 1.60778 7.12429   1
  -3  -3 -21 13.4431 6.80879   1
  -6  -4  21 0.16548 6.18251   1
   6  -4 -21 1.62790 6.09548   1
  -6  -4  21 3.45690 7.56920   2
  -5  -4  21 27.9400 8.57064   1
  -5  -4  21 34.9301 10.7343   2
   5  -4 -21 57.9855 9.82660   1
  -4  -4  21 138.260 16.5941   2
   4  -4 -21 133.837 13.3334   1
  -4  -4  21 123.744 13.0324   1
  -3  -4  21 10.0528 6.82455   1
  -3  -4  21 2.68298 7.97998   2
   3  -4 -21 0.97327 6.11886   1
   2  -4 -21 -5.4462 5.44240   1
  15   0 -22 227.627 17.6114   1
  14   0 -22 130.136 14.2977   1
  13   0 -22 8.11310 6.99838   1
  12   0 -22 90.9548 11.8496   1
  11   0 -22 27.8438 7.69856   1
  10   0 -22 8.86604 6.58023   1
 -10   0  22 2.70048 5.79867   1
   9   0 -22 32.4314 8.13769   1
  -9   0  22 41.4965 8.36380   1
  -8   0  22 34.3127 7.54166   1
   8   0 -22 30.8354 8.04072   1
   7   0 -22 59.8980 10.1183   1
  -7   0  22 49.5591 8.83436   1
   6   0 -22 124.886 12.9986   1
  -6   0  22 119.146 12.1189   1
  -5   0  22 14.1693 6.94911   1
   5   0 -22 13.7181 7.07182   1
   4   0 -22 257.348 16.2191   1
  -4   0  22 256.752 15.5314   1
   3   0 -22 194.903 14.6179   1
  -3   0  22 179.759 14.1780   1
   2   0 -22 12.2463 6.88937   1
  -2   0  22 22.5683 7.26787   1
  -1   0  22 930.415 29.3758   1
   1   0 -22 957.116 30.3187   1
   0   0 -22 423.527 19.9760   1
   0   0  22 429.600 20.0016   1
   1   0  22 42.8440 8.44318   1
  -1   0 -22 35.6101 8.39021   1
   2   0  22 5.08038 6.01129   1
  -2   0 -22 -5.2092 5.24900   1
   3   0  22 67.2964 10.2931   1
  -3   0 -22 51.5581 9.62099   1
   4   0  22 38.1858 8.74792   1
  -4   0 -22 66.9238 10.6179   1
  -5   0 -22 -0.0435 6.12033   1
   5   0  22 1.98317 6.14267   1
   6   0  22 6.50047 6.60729   1
  -6   0 -22 -0.3758 9.80948   1
 -14  -1  22 16.2003 7.35154   1
  14  -1 -22 6.78393 6.88289   1
  13  -1 -22 -1.2904 6.29025   1
 -13  -1  22 -3.6883 5.73007   1
 -13  -1  22 4.78609 3.92764   3
  13   1 -22 -1.4409 6.37486   1
 -12  -1  22 8.99700 6.68200   1
 -12  -1  22 7.62701 3.95863   3
  12  -1 -22 7.00639 6.73770   1
  12   1 -22 6.92707 6.13013   1
  11  -1 -22 -1.1956 5.86605   1
 -11  -1  22 -0.7735 3.27323   3
 -11  -1  22 3.34437 6.28773   1
  11   1 -22 6.66463 6.44070   1
 -10  -1  22 12.3766 6.77712   1
  10  -1 -22 10.0198 6.57306   1
 -10  -1  22 11.3133 4.19248   3
  10   1 -22 8.90355 6.33061   1
  -9  -1  22 24.1683 5.33831   3
   9  -1 -22 10.4132 6.68585   1
  -9  -1  22 15.2710 7.00839   1
   9   1 -22 21.3588 7.43449   1
  -8  -1  22 6.64866 6.07467   1
   8  -1 -22 4.63915 6.00729   1
  -8  -1  22 15.3510 4.38070   3
   8   1 -22 5.95953 5.99626   1
   7  -1 -22 11.4997 6.70766   1
  -7  -1  22 19.3559 7.21330   1
  -7  -1  22 20.0313 5.00232   3
   7   1 -22 18.7636 6.99965   1
  -6  -1  22 10.5580 4.12017   3
  -6  -1  22 28.0376 7.46184   1
   6  -1 -22 9.41591 6.41347   1
   6   1 -22 17.3647 6.74033   1
  -5  -1  22 1.29449 3.34085   3
   5  -1 -22 -7.0827 4.73167   1
  -5  -1  22 3.01422 5.44096   1
   5   1 -22 0.21538 5.39827   1
   4  -1 -22 42.8128 8.67654   1
  -4  -1  22 31.1515 5.31731   3
  -4  -1  22 37.3836 8.27227   1
   4   1 -22 48.3041 8.60180   1
  -3  -1  22 50.7289 8.93391   1
   3  -1 -22 50.0320 9.01753   1
   3   1 -22 33.9896 7.95739   1
   2  -1 -22 27.5792 8.02039   1
  -2  -1  22 39.0032 8.52901   1
   2   1 -22 32.8951 7.70128   1
   1  -1 -22 64.1977 9.99691   1
  -1  -1  22 70.9419 10.2613   1
   1   1 -22 92.3881 16.6559   1
   0  -1  22 -0.4442 5.52623   1
   0  -1 -22 3.32075 5.51156   1
   1  -1  22 4.76643 6.07377   1
  -1  -1 -22 -4.2054 5.34967   1
  -2  -1 -22 7.25008 6.48025   1
   2  -1  22 -4.0828 5.37899   1
   3  -1  22 20.3085 7.85634   1
  -3  -1 -22 11.4300 6.76860   1
  -4  -1 -22 10.0336 6.76840   1
   4  -1  22 2.45707 6.34362   1
   5  -1  22 27.8453 8.59287   1
  -5  -1 -22 29.7199 8.81839   1
  13  -2 -22 57.1019 10.8299   1
 -13  -2  22 66.2771 11.1083   1
 -13  -2  22 39.3274 6.33202   3
 -12  -2  22 51.3354 9.92969   1
  12  -2 -22 22.1650 8.40186   1
 -12  -2  22 35.9944 5.81934   3
 -11  -2  22 39.2938 5.76515   3
 -11  -2  22 50.7275 9.93074   1
  11  -2 -22 59.0481 10.0583   1
  10  -2 -22 -2.2031 5.90940   1
 -10  -2  22 -5.6037 5.83533   1
 -10  -2  22 -3.7705 2.80817   3
   9  -2 -22 12.2322 6.84693   1
  -9  -2  22 6.43601 3.76546   3
  -9  -2  22 -4.3870 5.66265   1
  -8  -2  22 10.9109 6.65865   1
   8  -2 -22 2.42293 6.44730   1
  -8  -2  22 7.34655 3.83468   3
  -7  -2  22 59.0942 6.44297   3
   7  -2 -22 62.7760 10.5766   1
  -7  -2  22 72.2812 10.8221   1
  -6  -2  22 31.0148 5.01387   3
  -6  -2  22 38.4709 8.89325   1
   6  -2 -22 30.5647 8.67933   1
  -5  -2  22 3.22053 3.08576   3
  -5  -2  22 -2.3837 5.51587   1
   5  -2 -22 -0.1711 6.47796   1
  -4  -2  22 496.505 15.6051   3
  -4  -2  22 495.249 21.9364   1
   4  -2 -22 499.310 22.5251   1
  -3  -2  22 77.8419 7.08882   3
  -3  -2  22 86.0801 11.4487   1
   3  -2 -22 86.9487 11.9371   1
  -2  -2  22 105.897 7.76462   3
   2  -2 -22 103.609 12.2312   1
  -2  -2  22 105.275 8.84041   3
  -2  -2  22 82.4526 11.1362   1
  -1  -2  22 324.949 18.2220   1
   1  -2 -22 286.106 17.8409   1
  -1  -2  22 267.868 11.4189   3
  -1  -2  22 292.205 11.7567   3
   0  -2  22 19.5158 4.20528   3
   0  -2 -22 30.8068 8.28593   1
   0  -2  22 11.4131 7.33787   1
   0  -2  22 29.7983 4.90678   3
   1  -2  22 -3.9826 2.46205   3
   1  -2  22 0.36418 6.20561   1
   1  -2  22 -2.1716 2.99408   3
  -1  -2 -22 -1.0061 5.94674   1
   2  -2  22 32.6019 4.90652   3
  -2  -2 -22 27.0367 8.09790   1
   2  -2  22 33.0995 4.94092   3
   2  -2  22 52.5903 10.2845   1
   3  -2  22 9.55179 7.70624   1
  -3  -2 -22 13.0752 7.51745   1
   3  -2  22 8.26903 3.58747   3
   3  -2  22 13.3306 3.92317   3
  -4  -2 -22 15.6895 8.02239   1
   4  -2  22 18.5566 4.05758   3
   4  -2  22 13.2142 3.91563   3
   4  -2  22 17.9195 8.44056   1
 -10  -3  22 32.2011 7.83038   2
 -10  -3  22 11.6212 3.12768   3
 -10  -3  22 19.0587 3.65283   3
 -10  -3  22 7.54011 6.93260   1
  10  -3 -22 16.0891 7.98882   1
  -9  -3  22 225.781 16.4878   2
  -9  -3  22 209.205 16.2601   1
   9  -3 -22 197.410 15.4440   1
  -9  -3  22 186.636 8.11481   3
  -9  -3  22 187.606 7.96618   3
  -8  -3  22 2.18350 2.56415   3
  -8  -3  22 2.37103 6.58400   1
  -8  -3  22 2.45053 2.32034   3
   8  -3 -22 1.55196 6.25508   1
  -8  -3  22 9.55382 6.51839   2
  -7  -3  22 57.5393 10.3352   1
   7  -3 -22 69.5373 10.7687   1
  -7  -3  22 50.9133 4.44559   3
  -7  -3  22 59.8770 9.89440   2
  -7  -3  22 47.1323 4.45370   3
  -6  -3  22 111.615 5.75804   3
  -6  -3  22 82.5148 11.6359   1
  -6  -3  22 109.216 5.69529   3
  -6  -3  22 128.221 14.0030   2
   6  -3 -22 119.028 13.1686   1
  -5  -3  22 11.9856 2.62601   3
   5  -3 -22 11.6894 7.28398   1
  -5  -3  22 9.79571 7.08484   1
  -5  -3  22 8.00477 6.92170   2
  -5  -3  22 11.9926 2.68205   3
  -4  -3  22 17.4970 7.42334   2
   4  -3 -22 21.2979 7.78481   1
  -4  -3  22 20.1472 2.74911   3
  -4  -3  22 20.7632 7.71542   1
  -3  -3  22 287.155 18.1083   1
   3  -3 -22 248.854 17.3900   1
  -2  -3  22 49.6390 10.4580   1
   2  -3 -22 45.1730 9.39926   1
  -1  -3  22 4.44479 7.49141   1
   1  -3 -22 0.39814 5.73822   1
   0  -3  22 21.5733 8.70928   1
   0  -3 -22 25.3291 8.12641   1
  -1  -3 -22 62.4856 10.2638   1
   1  -3  22 79.2249 11.8958   1
  13   0 -23 -3.3979 6.28605   1
  12   0 -23 0.91447 6.22665   1
  11   0 -23 -11.718 5.50487   1
  10   0 -23 -2.4519 5.64977   1
   9   0 -23 -0.8795 5.73388   1
   8   0 -23 -2.7861 5.48308   1
  -8   0  23 -5.7069 5.38011   1
   7   0 -23 -1.4997 5.73845   1
  -7   0  23 -0.4698 6.07839   1
   6   0 -23 1.20281 6.20318   1
  -6   0  23 0.61464 5.78226   1
   5   0 -23 0.68841 6.11482   1
  -5   0  23 -3.7633 5.30173   1
  -4   0  23 -1.9592 5.36829   1
   4   0 -23 2.99834 6.10075   1
  -3   0  23 -1.9222 5.20805   1
   3   0 -23 -10.652 5.41106   1
  -2   0  23 3.65814 5.83504   1
   2   0 -23 7.05408 6.56086   1
   1   0 -23 -1.0800 6.13698   1
  -1   0  23 3.26576 6.33752   1
   0   0  23 8.77428 6.36063   1
   0   0 -23 -2.7281 5.34115   1
   1   0  23 0.34032 5.97657   1
  -1   0 -23 1.46895 6.12648   1
  -2   0 -23 -4.9841 5.08407   1
   2   0  23 0.34672 5.56003   1
   3   0  23 1.80489 6.07159   1
  -3   0 -23 1.32900 6.03083   1
   4   0  23 -5.0068 5.81770   1
  -4   0 -23 -0.8380 6.11797   1
 -13  -1  23 20.1540 7.86417   3
  13  -1 -23 32.5070 9.25328   1
 -12  -1  23 34.0539 8.87451   1
 -12  -1  23 35.7338 6.09843   3
  12  -1 -23 20.7239 8.12465   1
 -11  -1  23 46.5829 9.27462   1
 -11  -1  23 48.8324 6.88313   3
  11  -1 -23 41.4375 9.50726   1
  10  -1 -23 10.0992 6.71622   1
 -10  -1  23 7.90288 4.07705   3
 -10  -1  23 16.4564 7.35403   1
  10   1 -23 -1.6006 9.45192   1
  -9  -1  23 3.71009 3.78417   3
  -9  -1  23 7.25781 6.46279   1
   9  -1 -23 -0.7937 5.74218   1
   9   1 -23 1.78841 6.87167   1
  -8  -1  23 24.8146 7.65181   1
   8  -1 -23 12.9519 7.28083   1
  -8  -1  23 23.8608 5.54718   3
   8   1 -23 19.5896 8.18835   1
  -7  -1  23 20.1879 7.08737   1
   7  -1 -23 3.84057 6.29614   1
  -7  -1  23 4.24235 3.97828   3
   7   1 -23 17.1595 7.57656   1
   6  -1 -23 91.2448 11.6066   1
  -6  -1  23 74.1884 10.4920   1
  -6  -1  23 75.2582 7.86152   3
   6   1 -23 108.862 14.2446   1
  -5  -1  23 -3.6686 6.05533   1
   5  -1 -23 -0.4010 5.77405   1
  -5  -1  23 7.14585 3.90623   3
   5   1 -23 -5.9047 6.66993   1
  -4  -1  23 33.1241 8.33825   1
  -4  -1  23 26.9443 5.31750   3
   4  -1 -23 18.3294 7.52005   1
  -3  -1  23 98.9035 8.85013   3
   3  -1 -23 99.1837 11.9178   1
  -3  -1  23 93.6953 11.5465   1
  -2  -1  23 10.4725 6.76978   1
   2  -1 -23 15.3162 7.40578   1
   1  -1 -23 6.24390 5.99723   1
  -1  -1  23 -2.0257 5.90375   1
   0  -1  23 72.4238 11.0132   1
   0  -1 -23 53.2771 9.97237   1
   1  -1  23 130.613 14.1920   1
  -1  -1 -23 100.348 12.0391   1
   2  -1  23 2.19068 7.10620   1
  -2  -1 -23 12.4849 7.23183   1
   3  -1  23 52.4067 10.1997   1
  -3  -1 -23 55.6219 9.96725   1
  11  -2 -23 225.022 17.0263   1
 -11  -2  23 193.163 10.8400   3
 -11  -2  23 224.002 17.0723   1
 -10  -2  23 101.897 12.9918   1
 -10  -2  23 76.9342 7.88297   3
  10  -2 -23 76.7585 11.4670   1
  -9  -2  23 -0.3654 3.15706   3
  -9  -2  23 5.50798 6.77669   1
   9  -2 -23 0.06284 6.54366   1
  -8  -2  23 45.8440 9.23182   1
   8  -2 -23 38.5633 9.25633   1
  -8  -2  23 45.6378 6.04330   3
  -7  -2  23 112.162 8.37983   3
   7  -2 -23 108.144 12.8972   1
  -7  -2  23 84.6741 11.3047   1
   6  -2 -23 12.7183 7.20986   1
  -6  -2  23 11.6070 7.43531   1
  -6  -2  23 8.37600 3.74751   3
   5  -2 -23 166.152 15.5908   1
  -5  -2  23 139.051 8.98413   3
  -5  -2  23 128.228 13.6753   1
   4  -2 -23 33.0900 8.90894   1
  -4  -2  23 39.0046 5.57455   3
  -4  -2  23 40.3795 9.70970   1
   3  -2 -23 0.22501 5.85321   1
  -3  -2  23 -7.8065 6.12122   1
  -3  -2  23 1.75296 3.08892   3
  -2  -2  23 -2.0100 6.62496   1
   2  -2 -23 13.9333 7.64629   1
  -2  -2  23 18.7303 4.27614   3
  -1  -2  23 42.6867 9.85798   1
  -1  -2  23 31.7017 5.01857   3
   1  -2 -23 37.2240 9.15359   1
   0  -2  23 37.8219 5.34745   3
   0  -2  23 27.5568 8.90510   1
   0  -2 -23 45.7893 9.65881   1
  -1  -2 -23 -0.7826 6.20984   1
   1  -2  23 13.3145 4.01036   3
   1  -2  23 0.99641 7.28866   1
   2  -2  23 48.5918 6.91480   3
   2  -2  23 60.2008 6.50643   3
   2  -2  23 84.5376 12.6242   1
  -2  -2 -23 42.0132 10.0078   1
  -6  -3  23 54.4470 4.50601   3
   6  -3 -23 73.8729 11.2801   1
  -6  -3  23 53.7742 4.57760   3
  -5  -3  23 7.66697 7.41584   1
  -5  -3  23 0.22787 2.02412   3
  -5  -3  23 1.26240 2.11012   3
  -5  -3  23 4.72295 6.33566   2
   5  -3 -23 6.14808 6.83519   1
   4  -3 -23 11.0393 7.17381   1
  -4  -3  23 4.24897 2.09959   3
  -4  -3  23 13.0071 7.62939   1
  11   0 -24 127.808 14.3865   1
  10   0 -24 138.258 14.6980   1
   9   0 -24 78.3625 11.5562   1
   8   0 -24 551.309 23.7564   1
   7   0 -24 54.2454 9.82403   1
   6   0 -24 1.38749 6.45201   1
   5   0 -24 -3.3937 6.13415   1
  -5   0  24 -1.3559 7.02449   1
  -4   0  24 3.07805 6.26769   1
   4   0 -24 0.89680 6.05227   1
   3   0 -24 160.155 14.8575   1
  -3   0  24 158.112 15.0766   1
  -2   0  24 4.31927 6.16429   1
   2   0 -24 -7.5170 5.53846   1
   1   0 -24 72.2297 11.1300   1
  -1   0  24 82.0916 11.5697   1
   0   0 -24 77.7703 11.1290   1
   0   0  24 93.9673 12.9821   1
  -1   0 -24 99.2808 12.5724   1
   1   0  24 106.223 18.7241   1
 -10  -1  24 50.3419 10.0804   1
  10  -1 -24 41.9560 9.82033   1
 -10  -1  24 60.0406 7.63000   3
  -9  -1  24 94.5112 9.34314   3
  -9  -1  24 109.264 12.9743   1
   9  -1 -24 88.2205 12.2504   1
  -8  -1  24 86.1253 8.62592   3
  -8  -1  24 71.0628 10.6330   1
   8  -1 -24 76.5315 11.5345   1
  -7  -1  24 10.4150 7.16918   1
  -7  -1  24 21.9833 5.27579   3
   7  -1 -24 18.2192 8.00150   1
   6  -1 -24 40.1146 9.23032   1
  -6  -1  24 36.4895 9.32252   1
  -6  -1  24 39.9485 6.31695   3
  -5  -1  24 -6.2567 6.18718   1
   5  -1 -24 -1.1933 6.24058   1
  -5  -1  24 -4.9541 2.96751   3
   4  -1 -24 37.9911 9.56092   1
  -4  -1  24 36.7631 9.12906   1
  -4  -1  24 32.8687 5.93163   3
  -3  -1  24 9.28985 4.16967   3
  -3  -1  24 12.4246 7.28053   1
   3  -1 -24 6.66230 7.31952   1
  -2  -1  24 32.6848 8.91918   1
   2  -1 -24 26.8348 8.53740   1
   1  -1 -24 10.6301 7.13074   1
  -1  -1  24 8.94532 7.29254   1
   0  -1 -24 12.6988 7.07219   1
   0  -1  24 -0.8999 6.60964   1
  -1  -1 -24 20.3554 8.14144   1
   1  -1  24 37.7563 9.42159   1
  -8  -2  24 7.78839 4.07246   3
   8  -2 -24 15.9861 8.12462   1
   7  -2 -24 212.622 16.5513   1
  -7  -2  24 180.848 10.3408   3
  -7  -2  24 208.284 16.7128   1
   6  -2 -24 9.25276 7.21698   1
  -6  -2  24 2.56393 6.82857   1
  -6  -2  24 7.38333 3.70090   3
  -5  -2  24 73.8871 11.6919   1
  -5  -2  24 84.6470 7.81283   3
   5  -2 -24 74.5702 11.8654   1
  -4  -2  24 12.2500 8.51785   1
  -4  -2  24 12.7333 4.24283   3
   4  -2 -24 8.60849 7.69629   1
   3  -2 -24 -9.5578 5.80868   1
  -3  -2  24 -3.9661 2.89343   3
  -3  -2  24 0.59357 7.01356   1
   2  -2 -24 10.5441 7.31656   1
  -2  -2  24 2.79705 3.46710   3
  -2  -2  24 -2.9777 7.19908   1
   8   0 -25 -8.4932 5.84770   1
   7   0 -25 -3.2593 6.50379   1
   6   0 -25 -4.1206 6.62990   1
   5   0 -25 -6.7071 6.59666   1
   4   0 -25 -2.4168 6.71214   1
   3   0 -25 -2.6310 6.45286   1
   2   0 -25 -1.4486 6.57596   1
  -6  -1  25 22.4291 5.69303   3
   5  -1 -25 51.7887 10.9761   1
  -5  -1  25 63.2767 7.78498   3
  -4  -1  25 24.9340 5.51311   3
   0   0   0    0.00    0.00   0

 _exptl_absorpt_process_details 'SADABS 2014/4'
 _exptl_absorpt_correction_type   multiscan
 _exptl_absorpt_correction_T_max  0.9485
 _exptl_absorpt_correction_T_min  0.8841
 _exptl_special_details
)
 The following wavelength and cell were deduced by SADABS from the
 direction cosines etc. They are given here for emergency use only:
 CELL 0.71094   17.773    5.882   20.199   89.977  103.183   89.975
)

;
_shelx_hkl_checksum              34245
loop_
_space_group_symop_operation_xyz
'x, y, z'
'-x, y+1/2, -z+1/2'
'-x, -y, -z'
'x, -y-1/2, z-1/2'
loop_
_atom_site_label
_atom_site_type_symbol
_atom_site_fract_x
_atom_site_fract_y
_atom_site_fract_z
_atom_site_U_iso_or_equiv
_atom_site_adp_type
_atom_site_occupancy
_atom_site_site_symmetry_order
_atom_site_calc_flag
_atom_site_refinement_flags_posn
_atom_site_refinement_flags_adp
S1 S 0.15147(2) 0.90405(7) 0.23401(2) 0.03893(12) Uani 1 1 d . .
O1 O 0.33215(7) 0.7125(3) 0.46577(6) 0.0589(4) Uani 1 1 d . .
O2 O 0.25120(7) 0.4248(2) 0.06191(6) 0.0519(3) Uani 1 1 d . .
O3 O 0.20759(7) 1.08002(19) 0.23665(6) 0.0492(3) Uani 1 1 d . .
O4 O 0.07199(7) 0.9606(2) 0.22767(6) 0.0542(3) Uani 1 1 d . .
N1 N 0.15573(7) 0.7425(2) 0.16809(6) 0.0357(3) Uani 1 1 d . .
C1 C 0.37498(12) 0.9134(4) 0.46059(11) 0.0653(6) Uani 1 1 d . .
H21 H 0.3963 0.9047 0.4199 0.098 Uiso 1 1 calc R U
H1 H 0.4174 0.9280 0.5011 0.098 Uiso 1 1 calc R U
H3 H 0.3408 1.0461 0.4572 0.098 Uiso 1 1 calc R U
C2 C 0.26925(9) 0.6668(3) 0.41469(8) 0.0420(4) Uani 1 1 d . .
C3 C 0.24618(9) 0.7985(3) 0.35629(8) 0.0401(4) Uani 1 1 d . .
H4 H 0.2743 0.9312 0.3498 0.048 Uiso 1 1 calc R U
C4 C 0.18119(9) 0.7320(3) 0.30771(7) 0.0367(4) Uani 1 1 d . .
C5 C 0.23089(9) 0.6985(3) 0.14692(7) 0.0344(3) Uani 1 1 d . .
C6 C 0.29197(9) 0.6157(3) 0.20694(8) 0.0356(3) Uani 1 1 d . .
H11 H 0.2814 0.4808 0.2292 0.043 Uiso 1 1 calc R U
C7 C 0.35906(9) 0.7170(3) 0.23087(8) 0.0405(4) Uani 1 1 d . .
H16 H 0.3699 0.8461 0.2062 0.049 Uiso 1 1 calc R U
C8 C 0.41910(9) 0.6536(3) 0.29133(8) 0.0400(4) Uani 1 1 d . .
C9 C 0.48402(10) 0.7909(3) 0.31029(9) 0.0505(4) Uani 1 1 d . .
H15 H 0.4885 0.9222 0.2839 0.061 Uiso 1 1 calc R U
C10 C 0.54257(11) 0.7412(4) 0.36691(10) 0.0602(5) Uani 1 1 d . .
H12 H 0.5869 0.8365 0.3786 0.072 Uiso 1 1 calc R U
C11 C 0.53630(11) 0.5553(4) 0.40571(11) 0.0657(6) Uani 1 1 d . .
H2 H 0.5759 0.5215 0.4449 0.079 Uiso 1 1 calc R U
C12 C 0.09838(9) 0.5862(3) 0.13585(7) 0.0355(3) Uani 1 1 d . .
C13 C 0.02231(9) 0.5605(3) 0.14221(9) 0.0472(4) Uani 1 1 d . .
H5 H 0.0019 0.6536 0.1724 0.057 Uiso 1 1 calc R U
C14 C -0.02218(11) 0.3960(4) 0.10331(10) 0.0560(5) Uani 1 1 d . .
H6 H -0.0739 0.3745 0.1077 0.067 Uiso 1 1 calc R U
C15 C 0.00559(11) 0.2598(4) 0.05779(11) 0.0598(5) Uani 1 1 d . .
H7 H -0.0271 0.1491 0.0313 0.072 Uiso 1 1 calc R U
C16 C 0.08062(10) 0.2859(3) 0.05132(9) 0.0507(4) Uani 1 1 d . .
H17 H 0.1003 0.1946 0.0202 0.061 Uiso 1 1 calc R U
C17 C 0.12689(9) 0.4477(3) 0.09097(8) 0.0368(3) Uani 1 1 d . .
C18 C 0.20742(9) 0.5051(3) 0.09434(8) 0.0370(4) Uani 1 1 d . .
C19 C 0.25414(10) 0.9023(3) 0.10916(9) 0.0453(4) Uani 1 1 d . .
H8 H 0.2685 1.0298 0.1409 0.068 Uiso 1 1 calc R U
H9 H 0.2105 0.9471 0.0722 0.068 Uiso 1 1 calc R U
H10 H 0.2984 0.8610 0.0901 0.068 Uiso 1 1 calc R U
C20 C 0.47226(12) 0.4166(4) 0.38788(11) 0.0684(6) Uani 1 1 d . .
H14 H 0.4680 0.2869 0.4150 0.082 Uiso 1 1 calc R U
C21 C 0.41407(10) 0.4633(3) 0.33114(10) 0.0542(5) Uani 1 1 d . .
H13 H 0.3705 0.3651 0.3193 0.065 Uiso 1 1 calc R U
C22 C 0.13925(11) 0.5400(3) 0.31553(9) 0.0479(4) Uani 1 1 d . .
H20 H 0.0946 0.4981 0.2819 0.058 Uiso 1 1 calc R U
C23 C 0.16415(11) 0.4103(3) 0.37375(9) 0.0527(5) Uani 1 1 d . .
H18 H 0.1366 0.2761 0.3798 0.063 Uiso 1 1 calc R U
C24 C 0.22803(11) 0.4723(3) 0.42291(9) 0.0480(4) Uani 1 1 d . .
H19 H 0.2440 0.3816 0.4627 0.058 Uiso 1 1 calc R U
loop_
_atom_site_aniso_label
_atom_site_aniso_U_11
_atom_site_aniso_U_22
_atom_site_aniso_U_33
_atom_site_aniso_U_23
_atom_site_aniso_U_13
_atom_site_aniso_U_12
S1 0.0499(2) 0.0351(2) 0.0334(2) -0.00053(17) 0.01289(17) 0.00847(18)
O1 0.0555(8) 0.0767(10) 0.0400(7) 0.0078(7) 0.0015(6) -0.0050(7)
O2 0.0584(7) 0.0509(7) 0.0543(7) -0.0080(6) 0.0294(6) 0.0044(6)
O3 0.0720(8) 0.0321(6) 0.0454(7) -0.0015(5) 0.0175(6) -0.0037(6)
O4 0.0551(7) 0.0623(8) 0.0475(7) -0.0015(6) 0.0169(6) 0.0243(7)
N1 0.0378(7) 0.0388(7) 0.0322(6) -0.0024(6) 0.0113(5) 0.0038(6)
C1 0.0569(12) 0.0794(15) 0.0547(12) -0.0076(11) 0.0027(9) -0.0117(11)
C2 0.0444(9) 0.0523(10) 0.0310(8) -0.0010(7) 0.0121(7) 0.0045(8)
C3 0.0458(9) 0.0423(9) 0.0352(8) -0.0007(7) 0.0154(7) -0.0019(8)
C4 0.0450(9) 0.0372(9) 0.0304(8) -0.0023(7) 0.0135(7) 0.0033(7)
C5 0.0374(8) 0.0332(8) 0.0353(8) 0.0039(7) 0.0136(6) 0.0040(7)
C6 0.0400(8) 0.0326(8) 0.0366(8) 0.0047(7) 0.0137(6) 0.0024(7)
C7 0.0428(9) 0.0404(9) 0.0407(8) 0.0065(7) 0.0148(7) -0.0003(7)
C8 0.0368(8) 0.0441(9) 0.0415(9) 0.0005(7) 0.0138(7) 0.0017(7)
C9 0.0463(10) 0.0559(11) 0.0514(10) 0.0012(9) 0.0157(8) -0.0062(9)
C10 0.0407(10) 0.0774(15) 0.0609(12) -0.0080(11) 0.0082(9) -0.0083(10)
C11 0.0483(11) 0.0849(16) 0.0574(12) 0.0048(12) -0.0015(9) 0.0093(11)
C12 0.0381(8) 0.0381(8) 0.0297(7) 0.0049(7) 0.0065(6) 0.0052(7)
C13 0.0408(9) 0.0583(11) 0.0437(9) -0.0011(9) 0.0123(7) 0.0048(8)
C14 0.0411(9) 0.0620(12) 0.0649(12) 0.0018(10) 0.0124(9) -0.0040(9)
C15 0.0508(11) 0.0520(11) 0.0716(13) -0.0106(10) 0.0038(9) -0.0082(9)
C16 0.0517(10) 0.0461(10) 0.0520(10) -0.0091(9) 0.0070(8) 0.0029(9)
C17 0.0408(8) 0.0363(8) 0.0323(8) 0.0025(7) 0.0065(6) 0.0049(7)
C18 0.0463(9) 0.0340(8) 0.0320(8) 0.0042(7) 0.0120(7) 0.0063(7)
C19 0.0552(10) 0.0409(9) 0.0423(9) 0.0115(8) 0.0164(8) 0.0016(8)
C20 0.0618(13) 0.0687(14) 0.0684(13) 0.0244(12) 0.0016(10) 0.0038(11)
C21 0.0463(10) 0.0532(11) 0.0593(11) 0.0120(9) 0.0046(8) -0.0040(9)
C22 0.0556(10) 0.0478(10) 0.0400(9) -0.0023(8) 0.0099(8) -0.0089(9)
C23 0.0683(12) 0.0440(10) 0.0478(10) 0.0031(9) 0.0176(9) -0.0106(9)
C24 0.0626(11) 0.0485(10) 0.0362(9) 0.0076(8) 0.0181(8) 0.0058(9)
loop_
_atom_type_symbol
_atom_type_description
_atom_type_scat_dispersion_real
_atom_type_scat_dispersion_imag
_atom_type_scat_source
C C 0.0033 0.0016 'International Tables Vol C Tables 4.2.6.8 and 6.1.1.4'
H H 0.0000 0.0000 'International Tables Vol C Tables 4.2.6.8 and 6.1.1.4'
N N 0.0061 0.0033 'International Tables Vol C Tables 4.2.6.8 and 6.1.1.4'
O O 0.0106 0.0060 'International Tables Vol C Tables 4.2.6.8 and 6.1.1.4'
S S 0.1246 0.1234 'International Tables Vol C Tables 4.2.6.8 and 6.1.1.4'
loop_
_geom_angle_atom_site_label_1
_geom_angle_atom_site_label_2
_geom_angle_atom_site_label_3
_geom_angle
O4 S1 O3 120.14(8)
O4 S1 N1 106.75(7)
O3 S1 N1 106.67(7)
O4 S1 C4 107.86(7)
O3 S1 C4 108.02(7)
N1 S1 C4 106.71(7)
C2 O1 C1 117.93(15)
C12 N1 C5 110.35(12)
C12 N1 S1 125.70(10)
C5 N1 S1 122.11(10)
O1 C1 H21 109.5
O1 C1 H1 109.5
H21 C1 H1 109.5
O1 C1 H3 109.5
H21 C1 H3 109.5
H1 C1 H3 109.5
O1 C2 C24 115.85(15)
O1 C2 C3 124.26(16)
C24 C2 C3 119.89(16)
C4 C3 C2 118.53(16)
C4 C3 H4 120.7
C2 C3 H4 120.7
C22 C4 C3 122.17(15)
C22 C4 S1 119.73(13)
C3 C4 S1 118.09(12)
C6 C5 N1 110.34(11)
C6 C5 C19 115.23(13)
N1 C5 C19 111.27(12)
C6 C5 C18 110.20(12)
N1 C5 C18 101.67(12)
C19 C5 C18 107.23(12)
C7 C6 C5 124.82(14)
C7 C6 H11 117.6
C5 C6 H11 117.6
C6 C7 C8 127.63(15)
C6 C7 H16 116.2
C8 C7 H16 116.2
C9 C8 C21 117.85(16)
C9 C8 C7 118.67(15)
C21 C8 C7 123.48(15)
C8 C9 C10 121.55(18)
C8 C9 H15 119.2
C10 C9 H15 119.2
C11 C10 C9 119.78(19)
C11 C10 H12 120.1
C9 C10 H12 120.1
C10 C11 C20 119.66(19)
C10 C11 H2 120.2
C20 C11 H2 120.2
C13 C12 C17 119.95(15)
C13 C12 N1 129.72(15)
C17 C12 N1 110.31(13)
C14 C13 C12 117.79(16)
C14 C13 H5 121.1
C12 C13 H5 121.1
C13 C14 C15 122.48(17)
C13 C14 H6 118.8
C15 C14 H6 118.8
C16 C15 C14 119.68(18)
C16 C15 H7 120.2
C14 C15 H7 120.2
C15 C16 C17 118.77(17)
C15 C16 H17 120.6
C17 C16 H17 120.6
C16 C17 C12 121.30(15)
C16 C17 C18 129.27(15)
C12 C17 C18 109.43(14)
O2 C18 C17 128.68(15)
O2 C18 C5 123.19(14)
C17 C18 C5 108.11(12)
C5 C19 H8 109.5
C5 C19 H9 109.5
H8 C19 H9 109.5
C5 C19 H10 109.5
H8 C19 H10 109.5
H9 C19 H10 109.5
C11 C20 C21 121.0(2)
C11 C20 H14 119.5
C21 C20 H14 119.5
C20 C21 C8 120.18(18)
C20 C21 H13 119.9
C8 C21 H13 119.9
C4 C22 C23 118.07(17)
C4 C22 H20 121.0
C23 C22 H20 121.0
C24 C23 C22 121.13(17)
C24 C23 H18 119.4
C22 C23 H18 119.4
C23 C24 C2 120.20(16)
C23 C24 H19 119.9
C2 C24 H19 119.9
loop_
_geom_bond_atom_site_label_1
_geom_bond_atom_site_label_2
_geom_bond_distance
S1 O4 1.4260(12)
S1 O3 1.4277(12)
S1 N1 1.6478(13)
S1 C4 1.7739(16)
O1 C2 1.361(2)
O1 C1 1.420(2)
O2 C18 1.2186(18)
N1 C12 1.414(2)
N1 C5 1.5125(18)
C1 H21 0.9800
C1 H1 0.9800
C1 H3 0.9800
C2 C24 1.387(2)
C2 C3 1.390(2)
C3 C4 1.388(2)
C3 H4 0.9500
C4 C22 1.380(2)
C5 C6 1.509(2)
C5 C19 1.525(2)
C5 C18 1.544(2)
C6 C7 1.320(2)
C6 H11 0.9500
C7 C8 1.472(2)
C7 H16 0.9500
C8 C9 1.387(2)
C8 C21 1.390(2)
C9 C10 1.388(3)
C9 H15 0.9500
C10 C11 1.362(3)
C10 H12 0.9500
C11 C20 1.378(3)
C11 H2 0.9500
C12 C13 1.393(2)
C12 C17 1.394(2)
C13 C14 1.374(3)
C13 H5 0.9500
C14 C15 1.389(3)
C14 H6 0.9500
C15 C16 1.376(3)
C15 H7 0.9500
C16 C17 1.384(2)
C16 H17 0.9500
C17 C18 1.455(2)
C19 H8 0.9800
C19 H9 0.9800
C19 H10 0.9800
C20 C21 1.382(3)
C20 H14 0.9500
C21 H13 0.9500
C22 C23 1.384(3)
C22 H20 0.9500
C23 C24 1.373(3)
C23 H18 0.9500
C24 H19 0.9500
