#------------------------------------------------------------------------------
#$Date: 2015-07-21 20:35:22 +0300 (Tue, 21 Jul 2015) $
#$Revision: 152364 $
#$URL: svn://www.crystallography.net/cod/cif/1/52/92/1529237.cif $
#------------------------------------------------------------------------------
#
# This file is available in the Crystallography Open Database (COD),
# http://www.crystallography.net/
#
# All data on this site have been placed in the public domain by the
# contributors.
#
data_1529237
loop_
_publ_author_name
'Golovnev, Nikolay'
'Molokeev, Maxim'
'Golovneva, Irina'
_publ_section_title
;
 The crystal structure of lead(II) 1,3-diethyl-2-thiobarbiturate
;
_journal_issue                   5
_journal_name_full               'Russian Journal of Coordination Chemistry'
_journal_page_first              300
_journal_paper_doi               10.1134/S1070328415050012
_journal_volume                  41
_journal_year                    2015
_chemical_formula_sum            'C16 H22 N4 O4 Pb S2'
_chemical_formula_weight         605.68
_chemical_name_systematic
;
Catena-tetrakis(mu~3~-1,3-diethyl-2-thiobarbiturato-O,O',S)-dilead(II)
;
_space_group_crystal_system      trigonal
_space_group_IT_number           148
_space_group_name_Hall           '-R 3'
_space_group_name_H-M_alt        'R -3 :H'
_symmetry_space_group_name_Hall  '-R 3'
_symmetry_space_group_name_H-M   'R -3 :H'
_atom_sites_solution_hydrogens   geom
_audit_creation_method           SHELXL-2014/7
_cell_angle_alpha                90
_cell_angle_beta                 90
_cell_angle_gamma                120
_cell_formula_units_Z            9
_cell_length_a                   12.9503(3)
_cell_length_b                   12.9503(3)
_cell_length_c                   32.0771(10)
_cell_measurement_temperature    293(2)
_cell_measurement_theta_max      25.68
_cell_measurement_theta_min      1.90
_cell_volume                     4658.9(2)
_computing_cell_refinement       'APEX2 (Bruker, 2003-2008)'
_computing_data_collection       'APEX2 (Bruker, 2003-2008)'
_computing_data_reduction        'SAINT (Bruker, 2009)'
_computing_molecular_graphics    'DIAMOND (Brandenburg, 2005)'
_computing_publication_material  'publCIF (Westrip, 2009)'
_computing_structure_refinement  'SHELXL-2014/7 (Sheldrick, 2014)'
_computing_structure_solution    'SHELXS-2014 (Sheldrick, 2014)'
_diffrn_ambient_temperature      293(2)
_diffrn_measured_fraction_theta_full 0.999
_diffrn_measured_fraction_theta_max 0.999
_diffrn_measurement_device_type  'Bruker APEX-II CCD'
_diffrn_measurement_method       '\f and \w scans'
_diffrn_radiation_type           MoK\a
_diffrn_radiation_wavelength     0.71073
_diffrn_reflns_av_R_equivalents  0.0421
_diffrn_reflns_av_unetI/netI     0.0297
_diffrn_reflns_laue_measured_fraction_full 0.999
_diffrn_reflns_laue_measured_fraction_max 0.999
_diffrn_reflns_limit_h_max       15
_diffrn_reflns_limit_h_min       -15
_diffrn_reflns_limit_k_max       12
_diffrn_reflns_limit_k_min       -15
_diffrn_reflns_limit_l_max       39
_diffrn_reflns_limit_l_min       -38
_diffrn_reflns_number            13104
_diffrn_reflns_point_group_measured_fraction_full 0.999
_diffrn_reflns_point_group_measured_fraction_max 0.999
_diffrn_reflns_theta_full        25.000
_diffrn_reflns_theta_max         25.676
_diffrn_reflns_theta_min         1.905
_exptl_absorpt_coefficient_mu    8.378
_exptl_absorpt_correction_T_max  0.7453
_exptl_absorpt_correction_T_min  0.5782
_exptl_absorpt_correction_type   multi-scan
_exptl_absorpt_process_details
;
SADABS-2004/1. Bruker AXS Inc., Madison, Wisconsin, USA, 2004
;
_exptl_crystal_colour            colorless
_exptl_crystal_density_diffrn    1.943
_exptl_crystal_description       block
_exptl_crystal_F_000             2628
_exptl_crystal_size_max          0.2
_exptl_crystal_size_mid          0.2
_exptl_crystal_size_min          0.1
_refine_diff_density_max         0.362
_refine_diff_density_min         -0.450
_refine_diff_density_rms         0.080
_refine_ls_extinction_coef       .
_refine_ls_extinction_method     none
_refine_ls_goodness_of_fit_ref   1.009
_refine_ls_hydrogen_treatment    constr
_refine_ls_matrix_type           full
_refine_ls_number_parameters     125
_refine_ls_number_reflns         1979
_refine_ls_number_restraints     0
_refine_ls_restrained_S_all      1.009
_refine_ls_R_factor_all          0.0369
_refine_ls_R_factor_gt           0.0226
_refine_ls_shift/su_max          0.000
_refine_ls_shift/su_mean         0.000
_refine_ls_structure_factor_coef Fsqd
_refine_ls_weighting_details
'w=1/[\s^2^(Fo^2^)+(0.0140P)^2^+7.1510P] where P=(Fo^2^+2Fc^2^)/3'
_refine_ls_weighting_scheme      calc
_refine_ls_wR_factor_gt          0.0381
_refine_ls_wR_factor_ref         0.0415
_reflns_Friedel_coverage         0.000
_reflns_friedel_fraction_full    .
_reflns_friedel_fraction_max     .
_reflns_number_gt                1610
_reflns_number_total             1979
_reflns_threshold_expression     'I > 2\s(I)'
_cod_data_source_file            PbDETBA2.cif
_cod_data_source_block           f
_cod_original_cell_volume        4658.9(3)
_cod_database_code               1529237
_shelx_shelxl_version_number     2014/7
_shelx_space_group_comment
;
The symmetry employed for this shelxl refinement is uniquely defined
by the following loop, which should always be used as a source of
symmetry information in preference to the above space-group names.
They are only intended as comments.
;
_shelx_res_file
;

    f.res created by SHELXL-2014/7

TITL Pb(DETBA)2 in R-3
CELL  0.71073   12.9503   12.9503   32.0771    90.000    90.000   120.000
ZERR  9           0.0003    0.0003    0.0010     0.000     0.000     0.000
LATT   3
SYMM             - Y ,          X - Y ,              Z
SYMM         - X + Y ,            - X ,              Z
SFAC  C  H  N  O Pb  S
UNIT   144  198  36  36   9  18
L.S. 5
FMAP 2
ACTA 50
BOND $H
CONF

WGHT    0.014000    7.151000
FVAR       0.03759
PB1   5    0.333333    0.666667    0.166667    10.16667    0.03369    0.03369 =
         0.05502    0.00000    0.00000    0.01685
PB2   5    0.666667    0.333333    0.120684    10.33330    0.03923    0.03923 =
         0.04317    0.00000    0.00000    0.01961
S     6    0.199233    0.158280    0.276709    11.00000    0.05801    0.06237 =
         0.05913    0.00327    0.01818    0.01349
O1    4    0.406090    0.551106    0.206774    11.00000    0.07945    0.05247 =
         0.07670    0.00447   -0.01349    0.03785
O2    4    0.506964    0.261567    0.169875    11.00000    0.05557    0.06541 =
         0.06319   -0.00288    0.01466    0.02889
N1    3    0.375983    0.230201    0.222040    11.00000    0.03699    0.03892 =
         0.04642   -0.00185    0.00241    0.01413
N3    3    0.311611    0.365346    0.235645    11.00000    0.04156    0.05486 =
         0.05141   -0.00282    0.00031    0.02632
C2    1    0.300903    0.256123    0.243085    11.00000    0.03673    0.04611 =
         0.04226   -0.00640   -0.00335    0.01545
C4    1    0.396340    0.450198    0.207671    11.00000    0.04288    0.04652 =
         0.04882   -0.00031   -0.01182    0.01811
C5    1    0.458484    0.411932    0.183901    11.00000    0.04002    0.04880 =
         0.04550    0.00662    0.00175    0.01391
AFIX  43
H5    2    0.507235    0.461205    0.162712    11.00000   -1.20000
AFIX   0
C6    1    0.451806    0.302948    0.190080    11.00000    0.03531    0.04846 =
         0.04574   -0.00453    0.00089    0.01555
C9    1    0.238665    0.403196    0.259934    11.00000    0.07099    0.07728 =
         0.07329   -0.00392    0.00843    0.04639
AFIX  23
H91   2    0.223518    0.456606    0.243194    11.00000   -1.20000
H92   2    0.162514    0.333915    0.266777    11.00000   -1.20000
AFIX   0
C7    1    0.380381    0.121191    0.232571    11.00000    0.05909    0.04473 =
         0.06671    0.00397    0.00648    0.02477
AFIX  23
H71   2    0.407135    0.095901    0.208420    11.00000   -1.20000
H72   2    0.300864    0.057757    0.239650    11.00000   -1.20000
AFIX   0
C8    1    0.463134    0.141842    0.268616    11.00000    0.10539    0.09179 =
         0.08128    0.00190   -0.01195    0.06622
AFIX 137
H81   2    0.434725    0.163206    0.292923    11.00000   -1.20000
H82   2    0.541720    0.205215    0.261818    11.00000   -1.20000
H83   2    0.465682    0.070263    0.274073    11.00000   -1.20000
AFIX   0
C10   1    0.300984    0.464552    0.298880    11.00000    0.10870    0.11390 =
         0.08068   -0.02358    0.00167    0.06513
AFIX 137
H101  2    0.314823    0.411230    0.315636    11.00000   -1.20000
H102  2    0.252571    0.488424    0.314124    11.00000   -1.20000
H103  2    0.375874    0.533694    0.292075    11.00000   -1.20000
AFIX   0
HKLF 4

REM  Pb(DETBA)2 in R-3
REM R1 =  0.0226 for    1610 Fo > 4sig(Fo)  and  0.0369 for all    1979 data
REM    125 parameters refined using      0 restraints

END

WGHT      0.0148      6.4448

REM Highest difference peak  0.362,  deepest hole -0.450,  1-sigma level  0.080
Q1    1   0.5967  0.3009  0.2454  11.00000  0.05    0.36
Q2    1   0.6303  0.2511  0.2679  11.00000  0.05    0.35
Q3    1   0.3184  0.6197  0.3155  11.00000  0.05    0.34
Q4    1   0.6667  0.3333  0.1498  10.33333  0.05    0.33
Q5    1   0.1776  0.0791  0.2499  11.00000  0.05    0.33
Q6    1   0.2530  0.1764  0.3020  11.00000  0.05    0.31
Q7    1   0.1626  0.1937  0.2643  11.00000  0.05    0.31
Q8    1   0.4634  0.2217  0.2784  11.00000  0.05    0.31
Q9    1   0.2211  0.3401  0.3316  11.00000  0.05    0.28
Q10   1   0.2454  0.4938  0.2087  11.00000  0.05    0.27
Q11   1   0.0945  0.0783  0.2476  11.00000  0.05    0.26
Q12   1   0.6430  0.2710  0.2257  11.00000  0.05    0.25
Q13   1   0.5841  0.5113  0.1714  11.00000  0.05    0.25
Q14   1   0.6263  0.2170  0.2967  11.00000  0.05    0.25
Q15   1   0.2065  0.5738  0.3269  11.00000  0.05    0.25
Q16   1   0.4625  0.4028  0.2024  11.00000  0.05    0.25
Q17   1   0.6075  0.2938  0.2966  11.00000  0.05    0.25
Q18   1   0.4862  0.3113  0.1502  11.00000  0.05    0.25
Q19   1   0.3433  0.2509  0.3211  11.00000  0.05    0.24
Q20   1   0.3579  0.0813  0.2193  11.00000  0.05    0.24
;
_shelx_res_checksum              58492
_shelx_hkl_file
;
  -2   1   0  344.14   10.21
  -2   1   0  343.80   10.23
   1  -2   0  371.61   10.11
   1  -2   0  359.46   10.08
   1   1   0  357.51   10.17
   1   1   0  352.89   10.14
   2  -1   0  351.65   10.23
   2  -1   0  368.01   10.23
  -1  -1   0  370.52   10.18
  -1  -1   0  364.72   10.15
  -1   2   0  363.55   10.12
  -1   2   0  350.64   10.07
  -3   3   0  297.79    8.66
  -3   3   0  289.99    8.63
   0  -3   0  303.71    8.47
   0  -3   0  302.75    8.55
   3   0   0  291.08    8.71
   3   0   0  300.48    8.78
   3  -3   0  308.62    8.66
   3  -3   0  297.26    8.67
  -3   0   0  283.98    8.70
   0   3   0  297.52    8.42
  -3   0   0  280.10    8.74
   0   3   0  295.61    8.48
   2   2   0  282.75    8.23
   2  -4   0  288.80    8.09
  -4   2   0  267.98    8.31
  -4   2   0  267.48    8.32
   2   2   0  284.18    8.15
   2  -4   0  280.51    8.05
   4  -2   0  278.36    8.33
   4  -2   0  272.12    8.35
  -2  -2   0  288.65    8.24
  -2   4   0  267.36    7.98
  -2  -2   0  284.24    8.18
  -2   4   0  271.67    8.09
  -5   1   0  660.46   18.78
   1   4   0  643.74   18.31
   1   4   0  622.51   18.43
   4  -5   0  645.29   18.49
   4  -5   0  619.17   18.49
  -5   1   0  640.13   18.72
  -1  -4   0  637.53   18.37
   5  -1   0  665.23   18.81
   5  -1   0  682.11   18.75
  -1  -4   0  673.86   18.45
  -4   5   0  640.47   18.50
  -4   5   0  643.53   18.46
   4   1   0  349.25   10.54
   4   1   0  352.55   10.62
   1  -5   0  362.07   10.30
  -5   4   0  337.87   10.52
  -5   4   0  358.31   10.60
   1  -5   0  358.15   10.34
  -4  -1   0  356.21   10.56
   5  -4   0  350.61   10.59
  -4  -1   0  355.26   10.62
   5  -4   0  368.60   10.60
  -1   5   0  353.98   10.07
   3   3   0  343.13   10.49
   3  -6   0  361.21   10.28
  -6   3   0  355.62   10.68
   3   3   0  352.00   10.40
  -6   3   0  355.63   10.71
   3  -6   0  355.59   10.29
  -3   6   0  337.98   10.13
  -3  -3   0  364.11   10.52
   6  -3   0  356.80   10.67
  -3   6   0  347.09   10.28
   6  -3   0  352.38   10.74
  -3  -3   0  347.12   10.43
   0  -6   0  296.79    8.83
   6   0   0  300.64    9.27
   0  -6   0  309.97    8.89
  -6   6   0  274.92    9.03
   6   0   0  295.60    9.37
  -6   6   0  304.02    9.15
   0   6   0  293.43    8.59
  -6   0   0  296.00    9.28
   6  -6   0  295.45    9.18
   6  -6   0  309.92    9.17
  -6   0   0  298.74    9.33
   5  -7   0  357.88   10.57
   2   5   0  369.35   10.43
  -7   2   0  356.76   10.95
  -7   2   0  350.65   10.95
   5  -7   0  340.00   10.56
   2   5   0  348.66   10.60
   7  -2   0  364.77   10.94
  -5   7   0  330.13   10.42
   7  -2   0  359.27   11.05
  -5   7   0  370.81   10.63
  -2  -5   0  369.65   10.59
  -2  -5   0  337.58   10.49
   2  -7   0  346.05   10.25
   5   2   0  346.78   10.49
  -7   5   0  346.33   10.64
  -7   5   0  346.23   10.61
   5   2   0  356.17   10.66
   2  -7   0  340.54   10.18
  -5  -2   0  337.16   10.52
  -2   7   0  338.30    9.84
  -2   7   0  349.45    9.85
   7  -5   0  333.66   10.64
   7  -5   0  343.40   10.58
  -5  -2   0  364.37   10.64
   1   7   0  163.29    4.86
  -8   1   0  151.11    5.71
  -8   1   0  155.38    5.71
   7  -8   0  148.89    5.35
   7  -8   0  154.65    5.45
  -1  -7   0  159.60    5.15
  -7   8   0  160.83    5.42
  -1  -7   0  155.46    5.17
  -7   8   0  145.10    5.24
   8  -1   0  162.95    5.71
   8  -1   0  154.67    5.82
   4  -8   0  193.21    6.38
   4  -8   0  200.78    6.42
  -8   4   0  212.61    6.97
  -8   4   0  204.34    6.95
   4   4   0  216.54    6.61
  -4  -4   0  202.77    6.65
  -4   8   0  208.09    6.31
   8  -4   0  213.94    6.96
   8  -4   0  201.20    7.01
  -4  -4   0  205.04    6.71
   7   1   0  131.63    5.08
   1  -8   0  129.57    4.50
  -8   7   0  130.68    4.84
   1  -8   0  128.10    4.45
   7   1   0  133.69    4.88
  -8   7   0  119.41    4.78
  -7  -1   0  138.45    5.06
   8  -7   0  131.77    4.93
  -7  -1   0  133.58    4.99
   8  -7   0  129.85    4.84
   3   6   0  150.16    5.36
   6  -9   0  152.87    5.24
   6  -9   0  149.27    5.24
  -9   3   0  151.09    5.73
   3   6   0  154.79    5.07
  -6   9   0  161.16    5.32
   9  -3   0  160.47    5.73
  -3  -6   0  154.50    5.27
   9  -3   0  153.16    5.89
  -6   9   0  146.33    5.00
  -3  -6   0  158.06    5.33
   3  -9   0  225.63    7.16
   3  -9   0  223.21    7.00
   6   3   0  228.16    7.61
   6   3   0  226.40    7.42
  -9   6   0  224.20    7.61
  -6  -3   0  224.13    7.50
  -6  -3   0  222.31    7.48
   9  -6   0  230.44    7.62
   9  -6   0  222.04    7.72
   0  -9   0   75.49    3.14
   9   0   0   86.75    4.07
   0  -9   0   76.28    3.31
  -9   9   0   80.67    3.55
   9  -9   0   74.89    3.57
   9  -9   0   75.27    3.69
  -9   0   0   75.67    3.88
 -10   2   0   76.74    3.99
   2   8   0   66.69    2.99
   8 -10   0   84.30    3.60
   2   8   0   86.98    3.01
   8 -10   0   81.56    3.66
  -8  10   0   82.02    3.41
  10  -2   0   82.07    4.20
  -8  10   0   80.97    3.89
  -2  -8   0   87.08    3.39
  -2  -8   0   85.66    3.47
 -10   5   0  131.84    5.27
   5   5   0  127.98    4.97
   5 -10   0  127.24    4.61
   5   5   0  122.94    4.70
   5 -10   0  129.66    4.57
  10  -5   0  131.36    5.34
  -5  -5   0  134.46    4.95
  -5  -5   0  139.83    5.01
  -5  10   0  135.36    4.24
  -5  10   0  124.59    4.10
 -10   8   0  134.49    5.24
   2 -10   0  134.26    4.66
   2 -10   0  130.85    4.65
   8   2   0  130.32    5.35
  -8  -2   0  128.75    5.23
  -8  -2   0  123.93    5.21
  10  -8   0  133.48    5.38
  10  -8   0  132.43    5.20
  10 -11   0  122.75    5.08
 -11   1   0  130.95    5.65
  10 -11   0  130.78    5.29
  11  -1   0  126.53    5.70
 -10  11   0  126.87    4.96
  -1 -10   0  126.86    4.67
  -1 -10   0  132.23    4.95
   4   7   0   94.49    4.07
   7 -11   0  101.88    4.01
 -11   4   0  100.87    4.67
   7 -11   0  101.08    3.99
  11  -4   0   95.79    4.73
  -7  11   0   95.74    3.56
  -4  -7   0  101.11    4.11
  -4  -7   0  106.33    4.10
  -7  11   0   86.78    3.78
   4 -11   0  114.06    4.11
   7   4   0  111.20    4.76
 -11   7   0  107.73    4.87
   4 -11   0  117.26    4.41
  -7  -4   0  116.75    4.76
  -7  -4   0  110.16    4.72
  11  -7   0  110.61    4.97
   1 -11   0   77.86    3.56
  10   1   0   84.00    4.43
 -11  10   0   80.70    3.93
   1 -11   0   80.61    3.35
  11 -10   0   81.57    3.95
 -10  -1   0   87.07    4.32
  11 -10   0   82.16    4.22
 -12   3   0   87.17    4.63
   9 -12   0   79.96    3.88
   9 -12   0   85.42    3.97
   3   9   0   82.90    3.20
  12  -3   0   88.45    4.75
  -3  -9   0   88.22    3.92
  -3  -9   0   95.37    3.80
   6 -12   0   73.40    3.31
   6 -12   0   74.48    3.45
 -12   6   0   84.69    4.23
   6   6   0   75.02    3.73
  -6  -6   0   74.95    3.63
  12  -6   0   73.39    4.23
  -6  -6   0   76.18    3.78
 -12   9   0   55.33    3.40
   9   3   0   48.77    3.40
   3 -12   0   53.06    2.75
   3 -12   0   52.74    2.69
  -9  -3   0   51.45    3.40
  12  -9   0   47.90    3.46
  12   0   0   38.05    3.56
   0 -12   0   29.45    2.49
  12 -12   0   34.37    3.10
 -12   0   0   34.52    3.15
 -13   2   0   42.29    3.66
  11 -13   0   42.77    3.28
  13  -2   0   48.22    4.04
  -2 -11   0   42.97    2.96
 -13   5   0   43.70    3.53
   8 -13   0   37.48    2.61
  13  -5   0   38.91    3.47
  -5  -8   0   39.06    2.85
   5 -13   0   59.76    2.91
 -13   8   0   65.83    3.99
  13  -8   0   65.61    4.07
  -8  -5   0   53.58    3.55
 -13  11   0   30.40    2.89
  11   2   0   37.33    3.39
   2 -13   0   31.06    2.36
  13 -11   0   34.21    3.28
 -11  -2   0   37.23    3.33
  13 -14   0   26.93    3.00
 -14   1   0   26.54    3.25
  14  -1   0   20.90    3.16
  -1 -13   0   25.80    2.57
  10 -14   0   38.25    2.98
 -14   4   0   40.19    3.61
  14  -4   0   37.08    3.67
  -4 -10   0   43.15    3.06
 -14   7   0   29.41    3.10
   7 -14   0   30.10    2.40
  -7  -7   0   36.42    2.92
  14  -7   0   35.00    3.36
   4 -14   0   33.57    2.29
 -14  10   0   32.50    3.02
  14 -10   0   32.84    3.32
 -10  -4   0   31.09    3.10
   1 -14   0   22.20    2.07
  13   1   0   26.31    3.13
 -13  -1   0   27.95    3.22
  14 -13   0   21.38    2.85
 -15   6   0   22.33    3.04
   9 -15   0   24.13    2.38
  -6  -9   0   25.08    2.55
  15  -6   0   23.75    3.11
 -15   9   0   24.76    3.00
   6 -15   0   30.89    2.31
  -9  -6   0   28.44    2.94
  15  -9   0   22.67    3.00
  -2  -1  -1    0.63    0.69
   3  -2  -1    0.30    0.64
   3  -2  -1    0.24    0.68
  -2  -1  -1    1.04    0.60
   1  -3   1    0.67    0.40
  -3   2   1    0.52    0.67
   2   1   1    0.88    0.65
  -3   2   1    1.51    0.67
   1  -3   1   -0.17    0.47
   2   1   1   -0.08    0.59
   2   0  -1   87.61    2.88
   0  -2  -1   96.22    2.88
   2   0  -1   90.97    2.91
  -2   2  -1   86.75    2.79
   0  -2  -1   92.01    2.77
  -2   2  -1   90.85    2.82
   2  -2   1   90.75    2.83
  -2   0   1   91.75    2.91
   0   2   1   90.47    2.85
   2  -2   1   90.28    2.82
  -2   0   1   85.10    2.86
   0   2   1   86.76    2.73
  -2   5  -1    5.18    0.48
   5  -3  -1    7.49    1.09
  -3  -2  -1    7.47    1.03
   5  -3  -1    5.06    1.00
  -2   5  -1    7.21    0.62
  -3  -2  -1    8.62    1.07
   2  -5   1    9.45    0.81
  -5   3   1    6.55    1.06
   3   2   1    6.00    0.90
   2  -5   1    7.36    0.77
  -5   3   1    5.24    1.01
   3   2   1    7.18    1.05
   1   2  -1    1.04    0.48
   2  -3  -1    0.22    0.59
  -3   1  -1    0.57    0.78
   2  -3  -1    1.15    0.59
   1   2  -1    0.67    0.50
  -3   1  -1   -0.55    0.62
  -1  -2   1    0.12    0.56
  -2   3   1    0.90    0.54
  -1  -2   1    0.12    0.46
  -2   3   1    0.49    0.59
   3  -1   1    0.81    0.67
   3  -1   1    1.00    0.71
  -1  -3  -1   22.58    1.31
  -1  -3  -1   22.89    1.42
   4  -1  -1   21.75    1.57
  -3   4  -1   21.50    1.25
   4  -1  -1   21.29    1.58
  -3   4  -1   20.32    1.17
   1   3   1   21.57    1.40
   3  -4   1   21.06    1.29
   3  -4   1   21.19    1.25
   1   3   1   21.39    1.23
  -4   1   1   21.03    1.53
  -4   1   1   20.99    1.55
   7  -4  -1  110.31    4.12
   7  -4  -1  103.36    4.12
  -4  -3  -1  107.50    3.92
  -4  -3  -1  109.69    4.02
  -3   7  -1  103.30    3.27
  -3   7  -1  109.49    3.32
   4   3   1   98.88    3.96
  -7   4   1  107.64    4.12
   4   3   1  110.25    3.89
   3  -7   1  106.68    3.57
   3  -7   1  110.68    3.59
  -7   4   1  110.49    4.14
   4  -4  -1    2.76    0.83
   0   4  -1    1.17    0.34
   4  -4  -1    2.51    0.84
  -4   0  -1    3.50    0.93
  -4   0  -1    4.33    0.95
   0   4  -1    3.76    0.46
   0  -4   1    2.56    0.64
  -4   4   1    2.35    0.76
   4   0   1    3.90    0.85
   4   0   1    3.37    0.90
   0  -4   1    3.69    0.59
  -4   4   1    3.65    0.85
   1  -4  -1   85.13    2.91
  -4   3  -1   80.29    2.98
   1  -4  -1   83.05    2.88
   3   1  -1   81.88    2.99
  -4   3  -1   78.79    2.94
   3   1  -1   88.48    2.99
  -3  -1   1   86.69    3.01
  -3  -1   1   85.64    2.96
   4  -3   1   85.69    3.04
  -1   4   1   81.93    2.69
   4  -3   1   81.65    2.98
  -1   4   1   78.53    2.66
  -4   6  -1   19.42    1.41
  -2  -4  -1   19.96    1.46
  -2  -4  -1   19.31    1.46
   6  -2  -1   19.16    1.59
   6  -2  -1   21.91    1.73
  -4   6  -1   17.54    1.22
  -6   2   1   19.61    1.63
   4  -6   1   21.56    1.42
   4  -6   1   19.38    1.37
  -6   2   1   19.45    1.62
   2   4   1   19.37    1.37
   2   4   1   21.20    1.56
  -5  -4  -1   -0.06    0.99
  -5  -4  -1    0.90    1.05
   9  -5  -1   -0.06    1.00
   9  -5  -1    1.08    1.19
   4  -9   1    0.57    0.76
  -9   5   1    1.39    1.16
   5   4   1    0.45    0.87
   4  -9   1    0.60    0.80
   6  -5  -1    0.61    0.89
  -5  -1  -1    2.75    1.03
  -5  -1  -1    1.84    0.90
   6  -5  -1    0.94    0.94
  -6   5   1   -0.17    0.83
   5   1   1    1.53    0.85
  -6   5   1    1.70    0.92
   1  -6   1    1.02    0.76
   1  -6   1    1.83    0.73
   5   1   1    1.13    0.96
   3  -5  -1   19.11    1.35
   3  -5  -1   20.13    1.35
  -5   2  -1   20.85    1.57
   2   3  -1   20.69    1.26
   2   3  -1   17.92    1.31
  -5   2  -1   20.12    1.59
  -3   5   1   18.08    1.47
  -3   5   1   18.48    1.21
   5  -2   1   20.41    1.58
  -2  -3   1   19.66    1.43
  -2  -3   1   17.70    1.27
   5  -2   1   19.76    1.58
   0  -5  -1   29.18    1.58
   5   0  -1   29.56    1.84
   5   0  -1   30.99    1.96
   0  -5  -1   30.90    1.73
  -5   5  -1   28.28    1.65
  -5   5  -1   29.94    1.72
   5  -5   1   30.12    1.75
  -5   0   1   28.71    1.77
   5  -5   1   27.99    1.72
  -5   0   1   28.96    1.95
   0   5   1   28.82    1.52
   0   5   1   28.12    1.36
  -3  -5  -1    2.51    0.96
  -5   8  -1    3.64    0.92
   8  -3  -1    3.93    1.12
   8  -3  -1    2.58    1.20
  -5   8  -1    2.17    0.71
  -3  -5  -1    2.26    0.95
  -8   3   1    2.55    1.15
   5  -8   1    4.07    0.90
  -8   3   1    0.90    1.03
   3   5   1    1.92    0.98
   5  -8   1    3.54    0.91
   3   5   1    3.21    0.91
  11  -6  -1    1.13    1.44
  -6  -5  -1    1.24    1.24
  -6  -5  -1    2.23    1.23
   5 -11   1    2.20    0.99
   6   5   1    0.76    1.21
   5 -11   1    3.22    1.07
 -11   6   1    1.56    1.42
  -6  -2  -1   17.39    1.70
   8  -6  -1   14.86    1.77
  -6  -2  -1   14.54    1.58
   8  -6  -1   18.06    1.78
  -8   6   1   17.11    1.73
   6   2   1   18.34    1.70
   2  -8   1   18.19    1.40
   2  -8   1   18.59    1.35
   6   2   1   16.11    1.75
  -8   6   1   16.45    1.71
   1   5  -1   16.85    1.16
   5  -6  -1   16.50    1.38
   1   5  -1   14.62    1.01
   5  -6  -1   15.56    1.41
  -6   1  -1   14.65    1.48
  -6   1  -1   13.32    1.39
   6  -1   1   18.20    1.58
  -5   6   1   14.30    1.25
  -1  -5   1   13.06    1.08
  -5   6   1   11.28    1.22
  -1  -5   1   15.88    1.17
   6  -1   1   14.21    1.62
   4   2  -1   12.13    1.29
  -6   4  -1   11.15    1.32
   4   2  -1    9.69    1.16
   2  -6  -1   10.22    1.07
   2  -6  -1   10.10    1.14
  -6   4  -1    9.55    1.20
  -4  -2   1   10.22    1.23
   6  -4   1   10.20    1.26
  -2   6   1   10.06    0.86
   6  -4   1    7.88    1.19
  -4  -2   1   10.71    1.17
  -2   6   1   10.62    0.85
   7  -1  -1    4.75    1.23
  -1  -6  -1    3.60    0.91
  -6   7  -1    4.98    0.95
  -1  -6  -1    7.24    1.11
   7  -1  -1    5.69    1.21
  -6   7  -1    5.75    1.04
   1   6   1    6.39    0.83
   1   6   1    6.46    1.03
   6  -7   1    4.75    1.08
  -7   1   1    2.18    1.11
  -7   1   1    4.54    1.22
   6  -7   1    7.08    1.13
  10  -4  -1   -0.04    1.30
  -4  -6  -1    0.50    1.00
  -6  10  -1    0.15    0.81
  -4  -6  -1    2.06    1.10
  -6  10  -1    0.12    0.60
   6 -10   1    1.40    0.97
   4   6   1    0.71    1.10
   6 -10   1    1.91    0.95
 -10   4   1   -0.47    1.22
   4   6   1    0.55    0.85
  -7  -6  -1    6.60    1.76
  13  -7  -1    3.74    1.79
  -7  -6  -1    7.96    1.62
   7   6   1    5.75    1.59
   6 -13   1    5.79    1.25
 -13   7   1    5.49    1.86
  -7  -3  -1    7.96    1.54
  10  -7  -1    9.07    1.66
  -7  -3  -1    6.62    1.44
  10  -7  -1    7.52    1.55
 -10   7   1    6.41    1.53
   7   3   1    6.35    1.52
   3 -10   1    6.33    1.08
   3 -10   1    8.30    1.24
  -7   0  -1   18.36    1.83
   7  -7  -1   17.45    1.66
   7  -7  -1   18.08    1.66
  -7   0  -1   17.12    1.73
   7   0   1   15.03    1.63
  -7   7   1   17.46    1.61
  -7   7   1   17.65    1.61
   0  -7   1   16.77    1.28
   7   0   1   18.82    1.89
  -7   3  -1   33.69    2.16
   4  -7  -1   31.19    1.78
  -7   3  -1   30.32    2.10
   3   4  -1   32.67    1.70
   4  -7  -1   29.81    1.73
  -3  -4   1   28.74    1.79
   7  -3   1   31.26    2.05
   7  -3   1   27.94    2.08
  -4   7   1   29.16    1.81
  -4   7   1   31.36    1.59
  -3  -4   1   32.68    1.89
   1  -7  -1    5.80    1.07
   1  -7  -1    5.70    1.04
   6   1  -1    6.23    1.27
   6   1  -1    4.63    1.08
  -7   6  -1    3.65    1.02
  -7   6  -1    4.22    1.06
   7  -6   1    6.07    1.14
  -6  -1   1    3.52    1.14
  -1   7   1    5.61    0.68
  -6  -1   1    4.43    1.08
   7  -6   1    3.59    1.13
   9  -2  -1   -0.19    1.18
  -7   9  -1   -0.69    0.86
  -7   9  -1   -0.39    0.85
  -2  -7  -1    1.64    1.02
  -2  -7  -1   -0.29    0.89
   7  -9   1    0.33    0.93
   7  -9   1   -0.08    0.96
   2   7   1   -0.10    0.70
  -9   2   1    1.05    1.15
  -9   2   1   -0.86    1.09
   2   7   1   -0.42    0.91
  -5  -7  -1   11.51    1.70
  12  -5  -1   10.67    2.06
  -7  12  -1   11.69    1.11
  -5  -7  -1   14.54    1.76
   7 -12   1   13.74    1.60
   5   7   1   10.44    1.68
   7 -12   1   13.86    1.60
 -12   5   1   10.00    1.95
  15  -8  -1    1.92    1.80
  -8  -7  -1    4.91    1.75
   7 -15   1    2.37    1.28
 -15   8   1   -1.16    1.62
  -8  -4  -1    5.29    1.66
  -8  -4  -1    3.28    1.37
  12  -8  -1    4.56    1.74
   4 -12   1    3.85    1.06
   4 -12   1    4.88    1.24
 -12   8   1    2.61    1.47
   8   4   1    3.00    1.48
   9  -8  -1    4.75    1.40
  -8  -1  -1    5.67    1.42
   9  -8  -1    4.41    1.25
  -8  -1  -1    3.99    1.32
  -9   8   1    2.99    1.28
   1  -9   1    5.34    1.14
   8   1   1    5.52    1.54
   1  -9   1    4.76    0.97
   6  -8  -1    8.25    1.20
   2   6  -1    6.79    1.09
   6  -8  -1    6.08    1.17
   2   6  -1    6.18    0.85
  -8   2  -1    6.25    1.34
  -8   2  -1    5.85    1.32
   8  -2   1    6.03    1.40
  -6   8   1    5.67    1.04
  -2  -6   1    7.23    1.05
   8  -2   1    7.66    1.34
  -2  -6   1    7.57    1.08
  -6   8   1    5.75    1.14
  -8   5  -1    2.37    1.12
   3  -8  -1    0.68    0.81
  -8   5  -1    3.19    1.12
   5   3  -1    2.45    0.93
   5   3  -1    2.20    1.04
   3  -8  -1    2.53    0.98
  -5  -3   1    0.50    0.95
  -3   8   1    2.06    0.62
   8  -5   1    1.64    1.03
   8  -5   1    1.29    1.11
  -5  -3   1    1.62    1.00
  -8   8  -1   16.24    1.60
   0  -8  -1   19.95    1.69
  -8   8  -1   13.16    1.52
   8   0  -1   13.80    1.84
   8  -8   1   14.68    1.67
  -8   0   1   15.02    1.76
   0   8   1   15.92    1.10
   0   8   1   10.97    0.92
   8  -8   1   16.58    1.69
  -8   0   1   15.06    1.74
  -8  11  -1    4.31    1.17
  -3  -8  -1    2.57    1.19
  -8  11  -1    2.54    0.98
  -3  -8  -1    4.27    1.17
  11  -3  -1    4.74    1.63
 -11   3   1    4.83    1.66
   8 -11   1    2.83    1.17
   3   8   1    1.66    0.88
   8 -11   1    2.01    1.19
   3   8   1    1.93    1.13
  14  -6  -1    2.64    1.85
  -6  -8  -1    0.73    1.54
 -14   6   1    3.53    1.87
   8 -14   1    2.95    1.31
  14  -9  -1   -1.76    1.57
  -9  -5  -1    1.45    1.65
 -14   9   1   -0.21    1.55
   5 -14   1    2.47    1.07
  -9  -2  -1   -0.38    1.27
  11  -9  -1   -0.08    1.29
 -11   9   1    0.86    1.29
   2 -11   1    0.81    0.95
   9   2   1   -1.07    1.23
   2 -11   1   -0.86    0.86
  -9   1  -1    0.75    1.25
   8  -9  -1   -1.14    0.99
   8  -9  -1    0.54    1.02
  -8   9   1   -0.53    0.97
   9  -1   1    0.65    1.27
  -1  -8   1    1.18    0.90
  -1  -8   1    1.07    0.92
  -8   9   1    0.23    1.02
   4   5  -1    8.48    1.34
   5  -9  -1   11.30    1.29
   4   5  -1    9.86    1.19
  -9   4  -1   11.99    1.74
   5  -9  -1    9.35    1.23
  -4  -5   1    9.26    1.33
  -5   9   1    8.42    1.01
  -5   9   1   10.28    1.23
   9  -4   1    8.52    1.48
  -4  -5   1   10.26    1.36
   9  -4   1    8.72    1.68
   2  -9  -1   14.58    1.49
   7   2  -1   15.96    1.88
  -9   7  -1   13.46    1.72
   2  -9  -1   16.38    1.56
   9  -7   1   12.56    1.72
  -7  -2   1   14.77    1.74
   9  -7   1   14.85    1.80
  -7  -2   1   17.01    1.80
  10  -1  -1   13.15    2.08
  -9  10  -1   15.95    1.70
  -1  -9  -1   14.41    1.55
  -1  -9  -1   14.83    1.64
   9 -10   1   18.61    2.00
 -10   1   1   11.85    1.94
   1   9   1   17.53    1.26
   1   9   1   14.11    1.18
   9 -10   1   14.42    1.72
  -4  -9  -1    4.85    1.50
  13  -4  -1    2.82    1.79
 -13   4   1    3.37    1.82
   9 -13   1    6.47    1.56
 -10  -3  -1    4.76    1.73
  13 -10  -1    4.22    1.74
  10   3   1    6.50    1.88
   3 -13   1    4.02    1.09
 -13  10   1    4.75    1.74
 -10   0  -1    5.59    1.61
  10 -10  -1    3.46    1.44
  10 -10  -1    0.00    1.10
   0 -10   1    3.49    1.19
 -10  10   1    1.88    1.25
  10   0   1    2.97    1.51
   0 -10   1    3.74    1.00
   7 -10  -1   16.32    1.72
   3   7  -1   13.78    1.28
   7 -10  -1   15.01    1.64
 -10   3  -1   12.78    1.90
   3   7  -1   13.44    1.52
  -7  10   1   19.10    1.57
  -3  -7   1   15.11    1.50
  -3  -7   1   12.10    1.48
  10  -3   1   16.16    2.14
  -7  10   1   13.61    1.56
 -10   6  -1    7.52    1.58
   4 -10  -1    4.15    1.23
   6   4  -1    5.84    1.42
   4 -10  -1    4.78    1.06
  -6  -4   1    4.54    1.34
  10  -6   1    3.86    1.51
  -4  10   1    4.47    0.70
  -4  10   1    4.43    0.71
  10  -6   1    3.81    1.28
  -6  -4   1    3.76    1.23
   9   1  -1    2.37    1.37
 -10   9  -1    1.03    1.25
   1 -10  -1    0.43    1.17
  10  -9   1    0.74    1.31
  -9  -1   1    1.36    1.35
  10  -9   1    0.79    1.13
  12  -2  -1    4.75    1.79
  -2 -10  -1    4.70    1.39
 -12   2   1    4.30    1.74
  10 -12   1    2.92    1.48
  10 -12   1    2.92    1.32
  -5 -10  -1    1.40    1.53
  15  -5  -1   -0.21    1.75
  10 -15   1   -1.39    1.29
 -15   5   1    1.58    1.93
 -11  -4  -1   -2.36    1.49
  15 -11  -1    1.87    1.84
   4 -15   1    2.03    1.07
 -11  -1  -1    5.39    1.84
  12 -11  -1    5.44    1.79
 -12  11   1    5.75    1.65
  11   1   1    5.61    1.89
   1 -12   1    6.44    1.35
   2   9  -1   19.27    1.22
   9 -11  -1   16.15    1.87
   9 -11  -1   17.85    2.02
 -11   2  -1   19.24    2.30
  11  -2   1   21.98    2.63
  -2  -9   1   19.61    1.81
  -9  11   1   17.88    1.81
  -2  -9   1   20.85    1.80
   6 -11  -1    2.60    1.10
   5   6  -1    3.31    1.25
   6 -11  -1    2.80    1.14
 -11   5  -1    5.57    1.57
  -6  11   1    2.76    0.72
  -5  -6   1    4.95    1.28
  11  -5   1    3.19    1.54
  -6  11   1    4.18    0.97
  -5  -6   1    4.91    1.36
   8   3  -1    6.96    1.66
   3 -11  -1   11.63    1.44
   3 -11  -1   10.40    1.54
 -11   8  -1   10.19    1.79
  -8  -3   1   12.97    1.78
  -8  -3   1   10.73    1.78
  11  -8   1   10.87    1.84
   0 -11  -1   -0.25    1.24
 -11  11  -1   -1.03    1.21
  11   0  -1   -2.33    1.24
  11 -11   1    0.29    1.17
  11 -11   1   -0.36    1.27
 -11   0   1   -1.11    1.44
  14  -3  -1    0.55    1.71
  -3 -11  -1    0.27    1.41
  11 -14   1   -0.66    1.36
 -14   3   1    1.23    1.79
  14 -12  -1    1.59    1.75
 -12  -2  -1    0.83    1.79
   2 -14   1    2.72    1.19
  12   2   1    1.74    1.79
  11 -12  -1    7.87    1.88
 -12   1  -1    3.55    1.74
  12  -1   1    6.55    1.93
  -1 -11   1    6.72    1.50
   8 -12  -1    0.76    1.15
 -12   4  -1    0.40    1.45
   8 -12  -1   -0.51    1.06
  -4  -8   1   -0.21    1.10
  -8  12   1   -0.37    0.85
  12  -4   1    1.27    1.57
  -4  -8   1   -0.94    0.99
   5 -12  -1    0.17    1.06
 -12   7  -1    1.47    1.44
   5 -12  -1    0.46    1.16
  -7  -5   1    4.08    1.37
  12  -7   1    3.54    1.64
  -7  -5   1    2.24    1.37
 -12  10  -1    2.69    1.35
  10   2  -1    1.20    1.49
   2 -12  -1    2.38    1.14
  12 -10   1    4.65    1.65
 -10  -2   1    0.44    1.40
  13  -1  -1    3.12    1.83
  -1 -12  -1    3.85    1.57
  12 -13   1    5.75    1.83
 -13   1   1    7.18    2.03
  13 -13  -1   -0.44    1.53
 -13   0  -1   -1.20    1.56
   0 -13   1   -1.29    1.20
  13   0   1   -1.17    1.74
 -13   3  -1    3.63    1.77
  10 -13  -1   -0.05    1.34
  13  -3   1    0.98    1.69
  -3 -10   1    1.70    1.28
   7 -13  -1    0.12    1.10
 -13   6  -1    0.01    1.55
  13  -6   1    0.59    1.61
  -6  -7   1    0.48    1.30
   4 -13  -1    2.86    1.18
 -13   9  -1    5.84    1.74
   9   4  -1    4.99    1.62
  -9  -4   1    5.63    1.73
  13  -9   1    6.34    1.91
  12   1  -1    0.26    1.64
   1 -13  -1   -0.77    1.26
  13 -12   1    0.35    1.64
 -12  -1   1    2.19    1.71
  12 -14  -1   -3.27    1.35
 -14   2  -1   -1.24    1.72
  -2 -12   1    2.36    1.43
  14  -2   1    2.19    1.94
 -14   5  -1    2.43    1.80
   9 -14  -1    1.71    1.35
  -5  -9   1    1.31    1.36
  14  -5   1    0.61    1.78
   6 -14  -1    6.28    1.46
 -14   8  -1    1.39    1.72
  14  -8   1    1.61    1.77
  -8  -6   1    2.32    1.64
 -14  11  -1    3.48    1.74
   3 -14  -1    3.21    1.24
  11   3  -1    4.40    1.85
  14 -11   1    1.97    1.86
 -11  -3   1   -0.01    1.67
  11 -15  -1    1.84    1.57
 -15   4  -1    3.78    1.99
  -4 -11   1    3.83    1.60
  15  -4   1    2.19    1.99
 -15   7  -1   -0.09    1.90
   8 -15  -1   -0.54    1.25
  -7  -8   1    1.38    1.54
  15  -7   1   -0.31    1.72
 -15  10  -1    1.83    1.81
   5 -15  -1    1.61    1.21
  15 -10   1    3.67    2.05
 -10  -5   1    3.85    1.79
   0  -1  -2  106.20    3.11
   0  -1  -2  106.19    3.17
  -1   1  -2  101.34    3.02
   1   0  -2  102.96    3.08
  -1   1  -2  101.50    3.04
   1   0  -2  104.33    3.09
  -1   0   2  109.58    3.10
   0   1   2  103.32    3.11
  -1   0   2  102.43    3.08
   1  -1   2  100.09    3.03
   0   1   2   99.66    3.15
   1  -1   2  104.71    3.04
   2  -2  -2    1.64    0.55
  -2   0  -2    2.12    0.58
   2  -2  -2    2.48    0.60
  -2   0  -2    1.16    0.62
  -2   2   2    2.40    0.55
   2   0   2    2.50    0.61
  -2   2   2    2.39    0.57
   2   0   2    1.56    0.59
   3  -1  -2   49.91    2.04
  -2   3  -2   46.48    1.65
   3  -1  -2   48.26    2.03
  -2   3  -2   51.77    1.71
  -1  -2  -2   49.88    1.93
  -3   1   2   51.94    2.10
   2  -3   2   47.66    1.71
   1   2   2   50.38    2.03
   1   2   2   49.39    1.89
   2  -3   2   47.94    1.73
  -3   1   2   46.84    2.02
   4  -3  -2   -0.22    0.74
   4  -3  -2    1.02    0.79
  -3  -1  -2    1.23    0.73
  -3  -1  -2    1.19    0.85
  -4   3   2    0.51    0.75
   1  -4   2    1.24    0.51
   3   1   2   -0.29    0.75
   1  -4   2    0.63    0.46
   3   1   2    1.39    0.75
  -4   3   2    0.49    0.77
   2   1  -2  111.53    3.39
  -3   2  -2   99.28    3.41
   1  -3  -2  111.14    3.45
   2   1  -2  105.13    3.41
  -3   2  -2  105.96    3.47
   1  -3  -2  103.38    3.46
   3  -2   2  106.10    3.45
  -1   3   2  103.77    3.34
  -2  -1   2  108.84    3.42
  -1   3   2  108.55    3.43
  -2  -1   2  106.58    3.38
   3  -2   2   97.42    3.44
  -2  -3  -2   50.31    2.22
  -3   5  -2   49.00    1.83
   5  -2  -2   56.18    2.44
  -3   5  -2   52.90    2.01
  -2  -3  -2   54.93    2.36
   5  -2  -2   55.39    2.45
  -5   2   2   57.10    2.53
   2   3   2   57.70    2.37
   2   3   2   51.07    2.18
   3  -5   2   53.07    2.03
   3  -5   2   57.53    2.04
  -5   2   2   51.94    2.43
   6  -4  -2    4.00    1.05
  -4  -2  -2    2.00    0.87
  -4  -2  -2    3.88    1.01
   6  -4  -2    3.94    1.02
   2  -6   2    3.55    0.69
  -6   4   2    4.72    1.06
  -6   4   2    3.15    1.00
   4   2   2    3.09    0.88
   2  -6   2    4.41    0.70
   4   2   2    2.51    0.99
  -4   1  -2   40.55    2.07
   1   3  -2   40.76    1.49
   3  -4  -2   40.51    1.84
   3  -4  -2   39.69    1.85
  -4   1  -2   39.77    1.94
   1   3  -2   37.87    1.55
  -3   4   2   39.05    1.87
  -3   4   2   37.26    1.76
   4  -1   2   40.54    1.96
   4  -1   2   39.56    2.04
  -1  -3   2   39.46    1.63
  -1  -3   2   39.99    1.57
   0  -4  -2   32.07    1.80
   0  -4  -2   33.28    1.60
  -4   4  -2   31.84    1.66
   4   0  -2   34.91    1.87
  -4   4  -2   30.58    1.57
   4   0  -2   31.05    1.76
   4  -4   2   33.07    1.70
  -4   0   2   33.25    1.89
   4  -4   2   32.23    1.67
  -4   0   2   29.30    1.74
   0   4   2   31.74    1.65
   0   4   2   31.01    1.47
  -3  -4  -2   22.25    1.69
  -4   7  -2   23.54    1.41
   7  -3  -2   24.17    1.90
  -3  -4  -2   20.48    1.60
   7  -3  -2   20.84    1.86
   3   4   2   23.66    1.81
   3   4   2   23.43    1.59
  -7   3   2   23.35    1.90
   4  -7   2   20.02    1.41
   4  -7   2   21.58    1.43
  -7   3   2   26.72    2.05
  -5  -3  -2    6.71    1.27
   8  -5  -2    7.82    1.38
  -5  -3  -2    7.37    1.29
   8  -5  -2    4.75    1.20
   3  -8   2    6.86    0.95
   5   3   2    7.42    1.33
  -8   5   2    5.36    1.26
  -8   5   2    7.31    1.32
   5   3   2    7.84    1.21
   3  -8   2    7.59    0.90
   5  -5  -2   35.62    2.06
  -5   0  -2   37.61    2.20
  -5   0  -2   36.46    2.09
   5  -5  -2   38.76    2.04
  -5   5   2   36.69    1.99
   5   0   2   42.70    2.26
  -5   5   2   35.02    1.95
   0  -5   2   39.15    1.54
   5   0   2   38.54    2.10
   3   2  -2    1.09    0.72
  -5   3  -2    0.90    0.86
   2  -5  -2    1.82    0.79
   2  -5  -2    0.06    0.73
  -5   3  -2   -0.58    0.76
   3   2  -2    0.76    0.73
  -2   5   2    1.84    0.76
  -3  -2   2    0.26    0.76
  -3  -2   2   -0.08    0.66
  -2   5   2    1.21    0.61
   5  -3   2    0.43    0.77
   5  -3   2   -0.40    0.80
  -5   6  -2   54.87    2.34
   6  -1  -2   58.24    2.84
  -5   6  -2   59.20    2.44
   6  -1  -2   57.98    2.70
  -1  -5  -2   61.53    2.45
   1   5   2   59.09    2.60
   5  -6   2   63.56    2.48
  -6   1   2   62.01    2.79
   1   5   2   62.41    2.33
  -6   1   2   56.41    2.75
   5  -6   2   59.26    2.50
   9  -4  -2    5.52    1.34
  -4  -5  -2    5.40    1.25
  -5   9  -2    4.87    0.66
  -4  -5  -2    4.97    1.19
  -5   9  -2    3.76    0.76
   9  -4  -2    7.31    1.52
   4   5   2    6.34    1.30
  -9   4   2    3.49    1.31
   5  -9   2    5.50    1.00
   5  -9   2    7.00    1.01
   4   5   2    6.07    1.10
  10  -6  -2   25.58    2.47
  -6  -4  -2   23.74    2.19
  -6  -4  -2   24.88    2.17
   4 -10   2   23.02    1.80
 -10   6   2   21.71    2.23
   4 -10   2   21.01    1.58
  -6  -1  -2    4.96    1.16
  -6  -1  -2    3.79    1.04
   7  -6  -2    3.24    1.10
   7  -6  -2    4.34    1.11
   6   1   2    5.57    1.11
   1  -7   2    5.10    0.84
  -7   6   2    3.94    1.10
   6   1   2    4.38    1.20
  -7   6   2    1.36    0.94
   1  -7   2    4.11    0.78
   4  -6  -2   79.39    2.97
   2   4  -2   78.59    2.70
   4  -6  -2   77.56    2.95
  -6   2  -2   79.12    3.18
   2   4  -2   77.57    2.84
  -6   2  -2   80.08    3.31
  -2  -4   2   78.16    2.86
  -4   6   2   77.73    3.04
  -4   6   2   73.72    2.86
  -2  -4   2   77.05    2.80
   6  -2   2   79.17    3.22
   6  -2   2   77.72    3.26
  -6   5  -2   55.75    2.48
   1  -6  -2   54.60    2.55
   5   1  -2   57.95    2.66
   1  -6  -2   58.10    2.49
   5   1  -2   57.95    2.56
  -6   5  -2   57.10    2.57
  -1   6   2   55.21    2.12
   6  -5   2   53.70    2.55
  -5  -1   2   54.04    2.56
   6  -5   2   60.29    2.59
  -1   6   2   56.23    2.18
  -5  -1   2   61.80    2.69
   8  -2  -2   23.77    2.03
  -6   8  -2   18.51    1.45
  -2  -6  -2   20.49    1.64
  -2  -6  -2   21.38    1.65
   8  -2  -2   19.70    1.96
  -6   8  -2   21.36    1.63
   2   6   2   19.69    1.51
   6  -8   2   20.46    1.62
  -8   2   2   22.86    2.01
   6  -8   2   20.81    1.63
  -8   2   2   19.36    1.89
   2   6   2   20.93    1.76
  11  -5  -2    9.89    1.91
  -5  -6  -2    8.76    1.63
  -5  -6  -2   11.70    1.62
 -11   5   2   10.00    1.94
   5   6   2    8.31    1.60
   6 -11   2    9.44    1.32
   6 -11   2    8.48    1.24
  12  -7  -2    3.04    1.57
  -7  -5  -2    3.38    1.34
  -7  -5  -2    3.38    1.49
   5 -12   2    3.53    1.15
 -12   7   2    3.99    1.69
   5 -12   2    3.92    1.06
   7   5   2    0.92    1.29
  -7  -2  -2   17.21    1.86
   9  -7  -2   13.34    1.86
  -7  -2  -2   15.78    1.83
   9  -7  -2   17.34    1.93
  -9   7   2   15.55    1.83
   2  -9   2   13.74    1.30
   2  -9   2   17.59    1.34
   7   2   2   18.93    2.05
  -7   1  -2   31.18    2.09
   6  -7  -2   24.18    1.88
   1   6  -2   24.96    1.29
  -7   1  -2   24.99    2.02
   1   6  -2   24.43    1.18
   6  -7  -2   25.72    1.82
   7  -1   2   25.55    2.01
  -1  -6   2   28.22    1.57
  -6   7   2   24.45    1.84
  -1  -6   2   24.08    1.47
  -6   7   2   21.84    1.73
   7  -1   2   29.13    2.30
  -7   4  -2    6.30    1.17
   4   3  -2    7.02    1.05
   4   3  -2    9.60    1.20
  -7   4  -2    7.09    1.21
   3  -7  -2    8.89    1.14
   3  -7  -2    9.43    1.14
   7  -4   2    6.43    1.20
  -3   7   2    7.68    0.92
  -4  -3   2    9.48    1.24
  -3   7   2    7.88    0.99
   7  -4   2    8.28    1.28
  -4  -3   2   10.50    1.23
   0  -7  -2   18.10    1.53
   7   0  -2   20.47    1.96
  -7   7  -2   17.51    1.54
   7   0  -2   20.37    1.77
   0  -7  -2   19.50    1.56
  -7   7  -2   17.23    1.57
   0   7   2   18.16    1.38
   0   7   2   16.06    1.18
  -7   0   2   17.72    1.74
   7  -7   2   17.24    1.63
   7  -7   2   19.14    1.67
  -7   0   2   17.96    1.78
  -3  -7  -2    3.80    1.18
  -7  10  -2    1.78    0.83
  -7  10  -2    2.79    1.03
  10  -3  -2    2.20    1.43
  -3  -7  -2    1.58    1.08
   7 -10   2    2.86    1.09
   3   7   2    2.88    1.21
 -10   3   2    1.85    1.38
   7 -10   2    1.67    0.98
   3   7   2    3.56    0.94
  13  -6  -2    2.38    1.68
  -6  -7  -2   -0.53    1.16
  -6  -7  -2    0.54    1.34
 -13   6   2    1.83    1.68
   7 -13   2   -0.01    1.03
  14  -8  -2    2.49    1.85
  -8  -6  -2   -2.47    1.41
   6 -14   2    0.64    1.01
 -14   8   2    1.77    1.66
  -8  -3  -2   10.83    1.72
  -8  -3  -2    9.41    1.78
  11  -8  -2   11.51    1.93
   3 -11   2    8.29    1.10
 -11   8   2   10.84    1.85
   8   3   2    5.24    1.57
   3 -11   2   10.81    1.28
   8  -8  -2    3.89    1.24
  -8   0  -2    4.88    1.33
   8  -8  -2    3.49    1.19
  -8   0  -2    5.53    1.40
   0  -8   2    5.50    0.92
  -8   8   2    6.76    1.29
   8   0   2   11.30    1.71
   0  -8   2    6.03    0.95
  -8   8   2    3.87    1.20
   5  -8  -2    7.76    1.20
  -8   3  -2   10.66    1.47
   3   5  -2   10.28    1.18
   5  -8  -2    9.68    1.26
  -8   3  -2    8.86    1.41
   3   5  -2    9.89    1.05
  -3  -5   2    8.65    1.17
   8  -3   2   10.18    1.43
   8  -3   2    9.47    1.54
  -5   8   2    9.55    1.12
  -3  -5   2   10.53    1.21
  -5   8   2    6.73    1.25
   2  -8  -2   -0.75    0.87
   6   2  -2    0.05    0.87
  -8   6  -2    1.57    1.07
   2  -8  -2    0.17    0.93
   6   2  -2    0.44    1.01
  -8   6  -2    0.66    0.97
   8  -6   2    2.59    1.08
   8  -6   2   -0.15    0.95
  -6  -2   2    1.64    0.95
  -2   8   2    0.69    0.59
  -2   8   2    0.61    0.42
  -6  -2   2    1.46    1.02
  -8   9  -2    1.23    0.98
  -8   9  -2    1.19    0.97
  -1  -8  -2    1.12    1.00
   9  -1  -2   -0.50    1.21
  -1  -8  -2    1.10    0.99
   1   8   2    2.15    0.74
  -9   1   2    3.26    1.31
   1   8   2    2.12    0.94
   8  -9   2    0.63    0.97
   8  -9   2   -0.63    1.05
  -9   1   2    1.49    1.24
  -4  -8  -2   12.07    1.76
  -4  -8  -2   11.41    1.64
  -8  12  -2    8.92    1.25
  12  -4  -2   13.31    2.21
   4   8   2    7.97    1.59
   8 -12   2   14.05    1.73
   8 -12   2   10.58    1.56
 -12   4   2    8.25    1.96
  15  -7  -2    0.77    1.76
  -7  -8  -2    2.99    1.66
 -15   7   2    1.66    1.81
   8 -15   2    2.35    1.35
  13  -9  -2    0.61    1.50
  -9  -4  -2   -0.44    1.48
   4 -13   2   -1.48    0.85
 -13   9   2   -1.61    1.37
  10  -9  -2   11.95    1.89
  -9  -1  -2   13.50    1.92
  10  -9  -2   12.94    1.78
   1 -10   2    8.82    1.33
 -10   9   2    9.67    1.73
   1 -10   2   12.74    1.27
   9   1   2    9.10    1.81
  -9   2  -2    8.24    1.63
   7  -9  -2    8.35    1.32
   7  -9  -2    9.92    1.44
   2   7  -2    9.44    0.94
  -2  -7   2    8.46    1.19
  -2  -7   2    9.06    1.16
   9  -2   2   11.66    1.78
  -7   9   2    7.54    1.35
  -7   9   2    9.01    1.30
   5   4  -2   12.19    1.37
   4  -9  -2   12.30    1.43
   5   4  -2   11.91    1.45
  -9   5  -2   11.01    1.58
   4  -9  -2   11.79    1.34
  -4   9   2   11.07    1.05
  -5  -4   2   13.42    1.48
   9  -5   2   11.26    1.70
   9  -5   2   11.55    1.56
  -4   9   2   10.72    1.13
  -5  -4   2   12.14    1.47
   1  -9  -2    2.63    1.09
  -9   8  -2    1.83    1.15
   8   1  -2    2.58    1.32
   1  -9  -2    1.76    1.19
   9  -8   2    2.87    1.37
  -8  -1   2    3.40    1.27
  -1   9   2    3.27    0.70
   9  -8   2    2.20    1.14
  -1   9   2    2.33    0.66
  -8  -1   2    2.77    1.24
  -2  -9  -2    6.20    1.27
  11  -2  -2    4.20    1.70
  -9  11  -2    2.52    1.06
  -2  -9  -2    5.53    1.34
   2   9   2    4.52    0.90
   2   9   2    3.38    1.05
   9 -11   2    4.18    1.25
 -11   2   2    2.93    1.56
   9 -11   2    3.24    1.37
  14  -5  -2    5.32    2.00
  -5  -9  -2    5.34    1.68
   9 -14   2    2.92    1.40
 -14   5   2    1.81    1.76
 -10  -5  -2   -1.00    1.64
  15 -10  -2    1.81    1.83
 -15  10   2    1.11    1.73
   5 -15   2    3.17    1.08
  12 -10  -2   -0.67    1.42
 -10  -2  -2   -0.18    1.42
  10   2   2   -0.10    1.51
   2 -12   2    2.53    1.04
 -12  10   2    0.12    1.44
   9 -10  -2    4.05    1.40
   9 -10  -2    3.93    1.25
 -10   1  -2    4.96    1.57
  -1  -9   2    3.08    1.10
  -1  -9   2    3.80    0.97
  10  -1   2    3.24    1.55
  -9  10   2    4.91    1.36
 -10   4  -2    5.96    1.52
   4   6  -2    6.58    1.08
   6 -10  -2    7.41    1.29
   4   6  -2    5.87    1.24
   6 -10  -2    8.68    1.38
  -6  10   2    5.08    1.02
  -6  10   2    6.37    1.24
  10  -4   2    6.55    1.68
  -4  -6   2    8.70    1.33
  -4  -6   2    8.39    1.36
   3 -10  -2   14.15    1.67
 -10   7  -2   20.02    2.10
   3 -10  -2   21.01    1.78
   7   3  -2   17.72    1.98
  -3  10   2   16.91    1.15
  -7  -3   2   18.26    1.97
  -3  10   2   16.50    1.16
  -7  -3   2   18.01    1.94
  10  -7   2   14.06    1.90
  10  -7   2   19.99    2.00
 -10  10  -2    1.86    1.17
  10   0  -2   -0.99    1.32
   0 -10  -2    0.28    1.15
   0 -10  -2   -0.37    0.99
  10 -10   2   -1.44    1.02
 -10   0   2   -0.98    1.22
  10 -10   2   -0.87    1.14
  13  -3  -2    6.31    2.05
  -3 -10  -2    4.20    1.54
 -13   3   2    2.21    1.74
  10 -13   2    5.16    1.55
 -11  -3  -2   -0.05    1.61
  14 -11  -2    1.23    1.80
 -14  11   2    1.10    1.61
   3 -14   2    1.18    0.96
  11   3   2    1.06    1.56
  11 -11  -2    0.71    1.38
  11 -11  -2    0.89    1.26
 -11   0  -2    1.04    1.46
 -11  11   2    0.77    1.32
   0 -11   2    1.01    1.10
  11   0   2    0.22    1.51
   0 -11   2    0.63    0.99
   3   8  -2    6.11    0.92
 -11   3  -2    4.43    1.66
   8 -11  -2    5.81    1.34
   8 -11  -2    6.03    1.44
  -3  -8   2    5.75    1.23
  -8  11   2    6.08    1.24
  11  -3   2    8.18    1.90
  -3  -8   2    5.54    1.21
 -11   6  -2   10.94    1.83
   5 -11  -2    9.24    1.51
   5 -11  -2    7.05    1.29
  -6  -5   2    8.51    1.53
  -6  -5   2    8.50    1.54
  11  -6   2    7.65    1.76
  -5  11   2    8.88    1.02
   9   2  -2   11.26    1.90
 -11   9  -2   10.35    1.79
   2 -11  -2   13.74    1.66
   2 -11  -2   12.75    1.55
  11  -9   2   10.38    1.87
  11  -9   2   10.66    1.78
  -9  -2   2   12.90    1.98
  -1 -11  -2    3.44    1.50
  12  -1  -2    2.78    1.68
 -12   1   2    1.69    1.65
  11 -12   2    3.73    1.59
  15  -4  -2    0.73    1.87
  -4 -11  -2   -1.27    1.41
  11 -15   2   -1.29    1.40
 -15   4   2    1.72    1.84
 -12  -1  -2    1.34    1.73
  13 -12  -2    2.07    1.69
   1 -13   2   -1.38    1.02
  12   1   2   -0.12    1.70
  10 -12  -2   11.33    1.91
 -12   2  -2   12.60    2.21
  10 -12  -2   11.42    1.83
  12  -2   2   10.01    2.19
 -10  12   2   12.61    1.72
  -2 -10   2   10.00    1.62
 -12   5  -2    5.54    1.77
   7 -12  -2    3.07    1.24
   5   7  -2    1.62    1.13
   7 -12  -2    2.89    1.19
  -7  12   2    0.90    0.97
  -7  12   2    0.74    0.84
  -5  -7   2    2.16    1.28
  -5  -7   2    2.81    1.17
  12  -5   2    1.97    1.59
   8   4  -2    9.95    1.73
 -12   8  -2   10.01    1.93
   4 -12  -2   13.56    1.72
   4 -12  -2   11.63    1.52
  12  -8   2   12.55    2.04
  -8  -4   2   10.22    1.81
  -8  -4   2   13.88    1.90
   1 -12  -2    1.44    1.33
  11   1  -2    2.14    1.70
 -12  11  -2    1.58    1.41
 -11  -1   2    2.17    1.57
  12 -11   2    2.71    1.62
  14  -2  -2   -0.75    1.71
  -2 -12  -2    0.85    1.42
 -14   2   2   -2.72    1.62
  12 -14   2    2.58    1.68
 -13   1  -2   -0.61    1.57
  12 -13  -2   -0.19    1.58
  13  -1   2   -0.63    1.65
  -1 -12   2    0.09    1.31
 -13   4  -2   -0.79    1.61
   9 -13  -2    1.67    1.32
  -4  -9   2    0.61    1.19
  13  -4   2    0.68    1.67
   6 -13  -2    2.38    1.23
 -13   7  -2    0.29    1.59
  13  -7   2    2.52    1.68
  -7  -6   2    1.83    1.44
  -7  -6   2    1.86    1.27
 -13  10  -2    1.38    1.56
  10   3  -2   -2.39    1.33
   3 -13  -2    0.23    1.17
 -10  -3   2    0.73    1.52
  13 -10   2   -0.73    1.55
  13   0  -2    2.98    1.94
   0 -13  -2    4.15    1.62
  13 -13   2    3.53    1.67
 -13   0   2    4.41    1.88
  11 -14  -2    4.28    1.72
 -14   3  -2    2.01    1.78
  14  -3   2    1.81    1.91
  -3 -11   2    3.55    1.46
 -14   6  -2   -0.34    1.64
   8 -14  -2    1.43    1.34
  14  -6   2   -2.61    1.64
  -6  -8   2    0.81    1.37
 -14   9  -2    0.45    1.57
   5 -14  -2   -1.91    1.15
  14  -9   2    0.99    1.67
  -9  -5   2    0.03    1.60
  12   2  -2   -2.12    1.51
   2 -14  -2   -0.86    1.24
 -12  -2   2    3.71    1.75
  14 -12   2    2.63    1.86
 -15   5  -2   -2.31    1.67
  10 -15  -2   -1.31    1.35
  15  -5   2    1.66    1.88
  -5 -10   2    1.00    1.45
 -15   8  -2    2.97    1.95
   7 -15  -2    2.44    1.29
  15  -8   2    1.66    1.88
  -8  -7   2    0.47    1.53
   4 -15  -2    0.52    1.25
  15 -11   2   -0.87    1.64
 -11  -4   2    0.32    1.64
   0   0  -3  950.66   27.71
   0   0   3 1000.00   27.66
   2  -1  -3  731.39   20.44
   2  -1  -3  722.89   20.44
  -1  -1  -3  701.84   20.39
  -2   1   3  759.70   20.46
   1   1   3  712.21   20.40
  -2   1   3  731.32   20.44
   1  -2   3  713.32   20.23
   1   1   3  748.99   20.48
   1  -2   3  709.98   20.21
   1   1  -3   62.42    2.04
   1   1  -3   63.17    2.04
   1  -2  -3   65.29    2.29
  -2   1  -3   60.70    2.20
   1  -2  -3   67.45    2.24
  -2   1  -3   60.34    2.16
  -1   2   3   64.56    2.21
   2  -1   3   64.53    2.20
   2  -1   3   61.46    2.20
  -1  -1   3   66.24    2.06
  -1   2   3   61.15    2.29
  -1  -1   3   64.42    2.05
   4  -2  -3  457.81   13.11
  -2  -2  -3  451.27   13.05
  -2  -2  -3  454.16   13.02
   4  -2  -3  447.72   13.13
   2   2   3  454.35   13.10
  -4   2   3  433.84   13.08
  -4   2   3  461.28   13.13
   2   2   3  459.31   12.99
   2  -4   3  439.86   12.64
   2  -4   3  436.82   12.65
  -3   0  -3  355.99   10.17
  -3   0  -3  338.83   10.10
   3  -3  -3  327.39   10.07
   3  -3  -3  352.08   10.10
   3   0   3  346.12   10.10
  -3   3   3  349.05   10.09
  -3   3   3  350.76   10.10
   3   0   3  337.10   10.16
  -3   3  -3  283.55    8.21
   0  -3  -3  291.51    8.41
   3   0  -3  277.29    8.36
   0  -3  -3  281.61    8.26
  -3   3  -3  270.50    8.18
   3   0  -3  286.06    8.34
  -3   0   3  274.61    8.32
   0   3   3  284.81    8.22
   3  -3   3  283.13    8.21
  -3   0   3  289.98    8.36
   3  -3   3  282.07    8.23
   0   3   3  273.80    8.35
   6  -3  -3  215.52    7.03
  -3  -3  -3  224.00    6.89
   6  -3  -3  219.28    6.98
  -3  -3  -3  205.95    6.78
   3   3   3  211.45    6.91
   3  -6   3  213.19    6.38
  -6   3   3  214.66    6.99
  -6   3   3  219.44    6.98
   3   3   3  227.38    6.79
   3  -6   3  212.60    6.37
   5  -4  -3  264.05    8.36
   5  -4  -3  280.75    8.38
  -4  -1  -3  283.13    8.44
  -4  -1  -3  271.79    8.35
  -5   4   3  261.04    8.34
   4   1   3  276.77    8.44
   4   1   3  269.41    8.32
  -5   4   3  270.57    8.35
  -4   2  -3  222.76    6.70
   2   2  -3  218.10    6.41
   2  -4  -3  224.97    6.57
   2   2  -3  214.71    6.45
  -4   2  -3  200.62    6.59
   2  -4  -3  218.56    6.60
   4  -2   3  209.29    6.68
  -2  -2   3  224.36    6.47
   4  -2   3  216.65    6.62
  -2   4   3  212.00    6.48
  -2   4   3  212.46    6.65
  -2  -2   3  223.35    6.45
  -4   5  -3   98.28    3.32
   5  -1  -3   97.50    3.73
   5  -1  -3  100.63    3.66
  -4   5  -3   95.09    3.25
  -1  -4  -3  101.30    3.46
   4  -5   3  102.66    3.37
   1   4   3  100.27    3.40
  -5   1   3   99.78    3.67
   4  -5   3   96.01    3.36
  -5   1   3  105.91    3.77
   1   4   3   99.67    3.64
  -4  -4  -3  213.77    6.71
   8  -4  -3  194.01    6.85
  -4  -4  -3  195.94    6.61
   8  -4  -3  202.44    6.82
   4   4   3  201.84    6.52
  -8   4   3  201.71    6.86
   4   4   3  199.26    6.73
   4  -8   3  197.98    6.10
   4  -8   3  192.10    6.08
  -8   4   3  197.39    6.81
  -5  -2  -3  165.42    5.77
  -5  -2  -3  174.50    5.86
   7  -5  -3  162.81    5.86
   7  -5  -3  174.90    5.86
  -7   5   3  162.54    5.81
  -7   5   3  165.02    5.79
   5   2   3  181.28    5.94
   2  -7   3  169.25    5.10
   2  -7   3  170.23    5.17
   5   2   3  171.56    5.72
   4  -5  -3   88.65    3.36
  -5   1  -3   93.92    3.58
  -5   1  -3   91.62    3.48
   1   4  -3   91.64    2.86
   4  -5  -3   95.30    3.37
   5  -1   3   95.96    3.55
   5  -1   3   92.45    3.54
  -1  -4   3   96.52    3.05
  -4   5   3   90.04    3.31
  -1  -4   3   91.40    2.98
  -4   5   3   90.82    3.39
   4   1  -3  248.27    7.61
  -5   4  -3  254.00    7.66
  -5   4  -3  235.06    7.56
   4   1  -3  250.77    7.69
   1  -5  -3  244.69    7.62
   1  -5  -3  253.40    7.69
  -1   5   3  251.29    7.43
  -1   5   3  247.52    7.46
  -4  -1   3  262.93    7.72
   5  -4   3  249.19    7.63
   5  -4   3  247.87    7.67
  -4  -1   3  247.91    7.65
   7  -2  -3   89.37    3.85
  -2  -5  -3   94.85    3.50
   7  -2  -3   98.11    3.79
  -5   7  -3   86.60    3.13
  -2  -5  -3   94.29    3.55
  -5   7  -3   91.32    3.28
   2   5   3   99.71    3.43
  -7   2   3   91.70    3.80
   5  -7   3   89.01    3.32
   2   5   3   94.83    3.69
  -7   2   3   92.02    3.79
   5  -7   3   94.83    3.33
  -5  -5  -3  106.45    4.38
  10  -5  -3  103.12    4.69
  -5  -5  -3  104.69    4.33
 -10   5   3  105.22    4.57
   5 -10   3  100.32    3.71
   5 -10   3  107.88    3.78
   5   5   3  107.83    4.46
   9  -6  -3  103.57    4.51
   9  -6  -3  116.27    4.53
  -6  -3  -3  112.09    4.49
  -6  -3  -3  112.14    4.48
   6   3   3  111.64    4.50
   3  -9   3  109.63    3.62
  -9   6   3  103.94    4.48
   3  -9   3  109.87    3.79
   6  -6  -3   78.89    3.20
  -6   0  -3   74.23    3.29
   6  -6  -3   75.58    3.20
  -6   0  -3   74.06    3.32
   6   0   3   76.95    3.42
   6   0   3   78.25    3.28
  -6   6   3   74.74    3.19
  -6   6   3   77.81    3.19
   0  -6   3   77.05    2.60
   0  -6   3   79.53    2.64
   3  -6  -3  187.82    6.05
   3  -6  -3  199.67    6.05
   3   3  -3  195.66    5.90
   3   3  -3  181.92    5.94
  -6   3  -3  191.67    6.26
  -6   3  -3  190.77    6.20
  -3   6   3  184.07    6.07
  -3   6   3  182.78    5.88
   6  -3   3  183.68    6.27
  -3  -3   3  193.15    5.95
  -3  -3   3  196.99    6.00
   6  -3   3  197.52    6.24
  -6   6  -3  102.47    3.87
   0  -6  -3  110.57    3.95
   6   0  -3  115.05    4.30
  -6   6  -3  112.27    3.97
   6   0  -3  109.62    4.12
   0  -6  -3  117.86    4.08
   0   6   3  112.40    3.72
  -6   0   3  116.03    4.21
   6  -6   3  107.03    4.00
   0   6   3  111.97    3.91
   6  -6   3  111.88    3.97
  -6   0   3  115.11    4.25
  -6   9  -3  143.92    4.70
  -6   9  -3  153.49    4.95
  -3  -6  -3  144.67    5.24
   9  -3  -3  144.07    5.65
  -3  -6  -3  144.49    5.25
   3   6   3  150.75    5.06
  -9   3   3  158.54    6.02
   6  -9   3  145.02    5.01
   6  -9   3  152.26    5.00
  -9   3   3  140.32    5.58
   3   6   3  146.23    5.41
  -6  -6  -3   44.67    3.06
  -6  -6  -3   41.47    2.81
  12  -6  -3   43.13    3.32
   6   6   3   48.41    3.13
   6 -12   3   44.16    2.45
 -12   6   3   52.70    3.49
   6 -12   3   41.09    2.32
  11  -7  -3   28.44    2.73
  -7  -4  -3   24.88    2.39
  -7  -4  -3   23.24    2.23
   4 -11   3   30.60    1.72
 -11   7   3   28.33    2.62
   4 -11   3   24.42    1.92
  -7  -1  -3  109.87    4.47
  -7  -1  -3  103.12    4.42
   8  -7  -3  116.10    4.40
   8  -7  -3  111.93    4.47
   7   1   3  112.52    4.40
  -8   7   3  112.93    4.40
   7   1   3  117.67    4.65
   1  -8   3  109.16    3.74
  -8   7   3  110.93    4.38
   5  -7  -3  151.96    5.06
   2   5  -3  148.30    4.75
  -7   2  -3  153.14    5.34
  -7   2  -3  157.88    5.39
   5  -7  -3  140.92    5.03
   2   5  -3  146.52    4.60
   7  -2   3  150.78    5.28
   7  -2   3  141.21    5.35
  -5   7   3  155.94    5.17
  -5   7   3  143.16    4.94
  -2  -5   3  145.00    4.76
  -2  -5   3  150.90    4.81
  -7   5  -3  415.23   12.86
   5   2  -3  444.66   12.91
   2  -7  -3  443.46   12.82
   2  -7  -3  412.64   12.70
   5   2  -3  425.08   12.74
  -7   5  -3  417.70   12.82
  -2   7   3  420.75   12.43
  -5  -2   3  432.41   12.82
   7  -5   3  402.30   12.88
   7  -5   3  447.36   12.93
  -2   7   3  440.49   12.47
  -5  -2   3  445.82   12.87
  -7   8  -3   62.12    2.72
  -1  -7  -3   65.38    2.88
  -7   8  -3   65.90    2.85
   8  -1  -3   66.15    3.37
   8  -1  -3   59.84    3.06
  -1  -7  -3   60.46    2.86
   7  -8   3   64.91    2.94
   7  -8   3   66.98    2.88
   1   7   3   60.48    2.83
  -8   1   3   62.98    3.22
   1   7   3   71.32    2.66
  -8   1   3   61.46    3.20
  11  -4  -3   69.18    4.00
  -4  -7  -3   73.81    3.43
  -7  11  -3   66.77    2.56
  -7  11  -3   73.14    2.80
  -4  -7  -3   71.34    3.49
   7 -11   3   68.99    3.13
 -11   4   3   75.98    4.00
   4   7   3   66.84    3.55
   7 -11   3   67.41    3.06
  14  -7  -3   18.12    2.68
  -7  -7  -3   22.68    2.50
 -14   7   3   21.42    2.72
   7 -14   3   18.99    1.78
  -8  -5  -3   29.90    2.83
  13  -8  -3   31.36    3.12
 -13   8   3   32.48    3.03
   5 -13   3   30.20    1.95
   8   5   3   30.82    2.86
  -8  -2  -3   55.38    3.22
  10  -8  -3   50.40    3.22
  -8  -2  -3   53.82    3.27
  10  -8  -3   61.32    3.23
   8   2   3   59.18    3.43
   2 -10   3   50.94    2.29
 -10   8   3   57.84    3.29
   2 -10   3   52.38    2.31
  -8   1  -3  147.90    5.68
   7  -8  -3  151.50    5.48
  -8   1  -3  156.97    5.74
   7  -8  -3  157.97    5.46
  -7   8   3  152.38    5.37
  -7   8   3  156.11    5.50
  -1  -7   3  150.88    4.94
   8  -1   3  154.88    5.62
  -1  -7   3  157.68    4.96
   8  -1   3  156.98    5.80
   4   4  -3  197.73    5.65
   4   4  -3  163.10    5.66
   4  -8  -3  161.90    5.65
   4  -8  -3  173.73    5.69
  -8   4  -3  160.85    5.94
  -8   4  -3  169.39    5.95
  -4   8   3  172.17    5.67
  -4  -4   3  179.96    5.74
   8  -4   3  166.82    6.08
  -4  -4   3  166.78    5.64
   8  -4   3  172.64    5.99
  -4   8   3  167.13    5.46
   7   1  -3   99.61    4.08
  -8   7  -3  106.06    4.10
   1  -8  -3  100.17    3.99
   1  -8  -3  105.59    4.07
   7   1  -3  101.82    4.27
  -8   7  -3  107.72    4.06
  -1   8   3  100.73    3.55
  -7  -1   3   98.83    4.17
  -7  -1   3  109.14    4.27
   8  -7   3  103.38    4.09
   8  -7   3  101.39    4.15
  -1   8   3  109.89    3.55
  10  -2  -3   80.92    4.16
  -2  -8  -3   80.60    3.60
  -8  10  -3   80.54    3.44
  -2  -8  -3   85.00    3.56
  -8  10  -3   81.31    3.28
   8 -10   3   78.66    3.57
   2   8   3   77.06    3.47
 -10   2   3   84.75    4.12
   8 -10   3   85.74    3.53
   2   8   3   78.29    3.16
  -5  -8  -3   24.85    2.47
  13  -5  -3   25.63    3.06
 -13   5   3   23.35    2.80
   8 -13   3   28.41    2.20
  -9  -6  -3   21.71    2.71
  15  -9  -3   17.48    2.80
   6 -15   3   23.79    1.82
 -15   9   3   19.59    2.74
  12  -9  -3   46.13    3.66
  -9  -3  -3   42.51    3.22
   9   3   3   40.51    3.21
   3 -12   3   39.04    2.09
   3 -12   3   39.70    2.04
 -12   9   3   44.47    3.20
   9  -9  -3  111.77    4.70
   9  -9  -3  115.40    4.65
  -9   0  -3  109.63    4.83
  -9   9   3  115.04    4.58
   0  -9   3  109.37    3.86
   0  -9   3  114.73    4.02
   9   0   3  115.97    5.04
  -9   3  -3  132.46    5.21
   3   6  -3  154.74    4.42
   6  -9  -3  128.86    4.81
   3   6  -3  125.61    4.51
   6  -9  -3  131.95    4.76
   9  -3   3  133.30    5.13
  -3  -6   3  132.22    4.60
  -3  -6   3  130.66    4.59
  -6   9   3  126.59    4.59
   9  -3   3  125.47    5.25
  -6   9   3  118.47    4.79
   6   3  -3  111.66    4.44
   3  -9  -3  113.09    4.33
   3  -9  -3  109.01    4.17
   6   3  -3  114.51    4.27
  -9   6  -3  110.04    4.44
  -6  -3   3  112.30    4.41
  -6  -3   3  114.32    4.40
   9  -6   3  114.91    4.49
  -3   9   3  108.38    3.77
  -3   9   3  115.48    3.79
   9  -6   3  108.82    4.59
   9   0  -3   34.24    2.79
  -9   9  -3   32.11    2.25
   0  -9  -3   33.50    2.43
   0   9   3   35.08    1.82
   9  -9   3   35.96    2.49
   9  -9   3   29.95    2.34
  -9   0   3   34.99    2.73
   0   9   3   38.05    1.81
  -9   0   3   36.85    3.07
  12  -3  -3   20.93    2.56
  -3  -9  -3   18.06    2.00
  -3  -9  -3   18.85    1.95
   9 -12   3   17.04    1.83
   9 -12   3   22.03    2.13
 -12   3   3   17.61    2.46
  -6  -9  -3   15.74    2.33
  15  -6  -3   14.70    2.70
 -15   6   3   14.34    2.55
   9 -15   3   12.00    1.80
 -10  -4  -3   32.66    3.14
  14 -10  -3   27.35    3.18
 -14  10   3   30.65    3.01
   4 -14   3   28.57    1.90
 -10  -1  -3   34.98    2.99
  11 -10  -3   32.82    2.95
   1 -11   3   32.23    2.11
  10   1   3   41.06    3.29
   1 -11   3   34.93    1.90
 -11  10   3   37.22    2.88
   8 -10  -3   33.08    2.51
 -10   2  -3   32.96    2.89
   8 -10  -3   32.27    2.41
  -2  -8   3   34.71    2.10
  -8  10   3   33.81    2.32
  -2  -8   3   34.49    2.02
  10  -2   3   33.65    2.86
   5   5  -3   43.34    2.33
 -10   5  -3   47.05    3.06
   5 -10  -3   46.25    2.57
   5 -10  -3   44.67    2.59
  -5  10   3   46.89    2.39
  -5  -5   3   46.33    2.69
  -5  -5   3   51.54    2.67
  10  -5   3   47.83    3.11
  -5  10   3   47.26    2.23
 -10   8  -3   58.16    3.06
   2 -10  -3   55.59    2.91
   2 -10  -3   54.61    2.92
   8   2  -3   54.96    3.27
  10  -8   3   50.76    3.06
  -8  -2   3   49.39    3.16
  10  -8   3   50.49    3.11
  -2  10   3   54.28    2.15
  -8  -2   3   59.74    3.15
  -2  10   3   52.59    2.13
  -1 -10  -3   52.67    2.78
 -10  11  -3   50.30    2.78
  11  -1  -3   49.07    3.54
  -1 -10  -3   51.34    3.07
  10 -11   3   48.93    3.09
   1  10   3   47.76    2.20
  10 -11   3   47.93    2.88
 -11   1   3   45.56    3.37
  14  -4  -3   32.16    3.38
  -4 -10  -3   33.56    2.88
 -14   4   3   26.31    3.11
  10 -14   3   34.41    2.76
  13 -11  -3   17.41    2.56
 -11  -2  -3   23.92    2.80
 -13  11   3   23.16    2.60
  11   2   3   24.85    2.87
   2 -13   3   24.59    1.82
 -11   1  -3   45.87    3.37
  10 -11  -3   40.68    3.03
  10 -11  -3   37.87    2.78
 -10  11   3   40.27    2.74
  -1 -10   3   37.33    2.33
  11  -1   3   41.09    3.37
  -1 -10   3   40.15    2.18
   7 -11  -3   40.75    2.55
   7 -11  -3   41.17    2.66
 -11   4  -3   43.97    3.17
   4   7  -3   43.05    2.14
   4   7  -3   37.23    2.37
  -4  -7   3   38.75    2.38
  11  -4   3   39.06    3.18
  -4  -7   3   40.19    2.53
  -7  11   3   42.01    2.29
   4 -11  -3   46.88    2.87
   4 -11  -3   45.41    2.62
   7   4  -3   43.08    2.86
 -11   7  -3   45.73    3.08
  -4  11   3   40.89    1.86
  -4  11   3   44.78    1.97
  -7  -4   3   47.99    2.85
  11  -7   3   41.03    3.12
  -7  -4   3   47.99    2.94
  10   1  -3   85.64    4.50
   1 -11  -3   87.04    4.02
 -11  10  -3   90.95    4.09
  11 -10   3   82.34    4.01
  11 -10   3   84.08    4.26
 -10  -1   3   92.64    4.45
  13  -2  -3   26.37    3.13
  -2 -11  -3   26.62    2.61
 -13   2   3   25.10    2.90
  11 -13   3   30.35    2.74
 -12   0  -3   24.69    2.84
  12 -12  -3   21.00    2.63
  12   0   3   29.39    3.23
   0 -12   3   20.83    1.91
   9 -12  -3   49.78    3.06
   9 -12  -3   48.44    3.20
 -12   3  -3   57.66    3.74
  -3  -9   3   49.67    2.71
  -3  -9   3   50.99    2.80
  -9  12   3   54.15    2.90
  12  -3   3   53.40    3.80
   6 -12  -3   45.18    2.79
   6 -12  -3   48.77    2.95
 -12   6  -3   53.65    3.51
   6   6  -3   51.41    2.93
  -6  -6   3   53.78    3.05
  12  -6   3   51.88    3.62
  -6  -6   3   47.51    2.86
  -6  12   3   47.87    2.33
 -12   9  -3   26.51    2.58
   3 -12  -3   30.94    2.45
   3 -12  -3   31.33    2.41
   9   3  -3   29.66    2.75
  -9  -3   3   29.69    2.75
  12  -9   3   31.51    2.97
   0 -12  -3   19.68    2.30
  12   0  -3   23.12    2.86
  12 -12   3   29.50    2.83
 -12   0   3   25.97    2.87
  14 -13  -3   14.03    2.50
 -13  -1  -3   13.01    2.52
  13   1   3   11.86    2.48
 -13   2  -3   20.91    2.81
  11 -13  -3   16.85    2.38
  13  -2   3   22.41    3.01
  -2 -11   3   22.94    2.08
   8 -13  -3   30.77    2.48
 -13   5  -3   30.79    3.00
  13  -5   3   30.12    3.14
  -5  -8   3   25.87    2.33
 -13   8  -3   39.48    3.31
   5 -13  -3   39.47    2.57
  13  -8   3   34.09    3.21
  -8  -5   3   39.48    3.03
  -8  -5   3   38.60    2.92
  11   2  -3   26.34    2.90
   2 -13  -3   24.15    2.26
 -13  11  -3   23.64    2.58
  13 -11   3   28.50    2.93
 -11  -2   3   21.99    2.66
  14  -1  -3   12.85    2.63
  -1 -13  -3   14.80    2.25
  13 -14   3   10.66    2.16
 -14   1   3    8.37    2.29
 -14   1  -3   19.64    2.85
  13 -14  -3   21.52    2.82
  14  -1   3   21.85    3.13
  -1 -13   3   21.65    2.17
 -14   4  -3   20.22    2.79
  10 -14  -3   20.50    2.41
  14  -4   3   17.27    2.70
  -4 -10   3   22.43    2.24
   7 -14  -3   32.38    2.63
 -14   7  -3   30.38    3.18
  -7  -7   3   33.18    2.82
  14  -7   3   31.88    3.26
 -14  10  -3   14.77    2.38
   4 -14  -3   20.62    2.06
 -10  -4   3   21.20    2.55
  14 -10   3   14.57    2.54
  13   1  -3   12.86    2.54
   1 -14  -3   15.53    2.12
 -13  -1   3   10.21    2.27
  14 -13   3   15.28    2.51
   9 -15  -3   13.70    2.05
 -15   6  -3   16.43    2.56
  -6  -9   3   17.63    2.20
  15  -6   3   13.69    2.68
 -15   9  -3   12.60    2.48
   6 -15  -3   15.05    1.85
  -9  -6   3   13.97    2.31
  15  -9   3   14.14    2.59
   1  -1  -4  251.79    7.28
   1  -1  -4  255.74    7.27
  -1   0  -4  245.61    7.22
   0   1  -4  245.79    7.07
   0   1  -4  244.09    7.11
  -1   1   4  240.38    7.24
  -1   1   4  249.19    7.28
   1   0   4  252.31    7.23
   0  -1   4  261.29    7.10
   0  -1   4  248.63    7.13
   3  -2  -4  927.60   25.22
   3  -2  -4  863.81   25.19
  -2  -1  -4  862.31   25.14
  -2  -1  -4  896.86   25.21
  -3   2   4  891.46   25.21
  -3   2   4  901.35   25.20
   2   1   4  895.55   25.16
   2   0  -4  288.39    8.45
   0  -2  -4  301.74    8.64
   0  -2  -4  298.19    8.54
  -2   2  -4  286.80    8.36
  -2   2  -4  286.86    8.34
   2   0  -4  283.69    8.45
  -2   0   4  302.87    8.48
   2  -2   4  293.08    8.38
   2  -2   4  290.06    8.35
   0   2   4  276.89    8.58
  -2   0   4  287.75    8.46
   0   2   4  294.24    8.51
  -3  -2  -4  109.22    3.89
  -3  -2  -4  111.39    4.01
   5  -3  -4  116.89    4.04
   5  -3  -4  107.62    3.97
  -5   3   4  111.22    4.02
  -5   3   4  119.23    4.04
   2  -5   4  111.81    3.31
   3   2   4  102.52    3.84
  -3   1  -4   50.88    2.24
   2  -3  -4   57.94    2.26
   2  -3  -4   59.38    2.29
   1   2  -4   54.73    1.87
   1   2  -4   58.70    1.88
  -3   1  -4   58.69    2.22
   3  -1   4   51.82    2.25
  -1  -2   4   57.25    1.93
  -2   3   4   57.26    2.22
  -2   3   4   56.45    2.34
  -1  -2   4   57.09    1.91
   3  -1   4   48.15    2.19
   4  -1  -4  354.77   10.79
  -1  -3  -4  370.26   10.69
  -1  -3  -4  389.72   10.83
  -3   4  -4  361.86   10.43
   4  -1  -4  361.31   10.78
  -3   4  -4  343.71   10.39
   1   3   4  357.71   10.80
   3  -4   4  363.97   10.47
  -4   1   4  372.94   10.81
  -4   1   4  370.30   10.80
   1   3   4  366.27   10.63
   3  -4   4  362.24   10.45
   7  -4  -4  158.56    5.55
  -4  -3  -4  162.75    5.56
  -4  -3  -4  160.10    5.45
   7  -4  -4  156.11    5.63
  -7   4   4  160.52    5.63
   4   3   4  162.74    5.41
  -7   4   4  159.79    5.62
   3  -7   4  160.82    4.82
   3  -7   4  156.13    4.81
  -4   0  -4  120.52    4.18
   4  -4  -4  122.03    4.10
  -4   0  -4  121.94    4.13
   4  -4  -4  110.43    4.05
   0  -4   4  118.99    3.48
   4   0   4  123.43    4.22
  -4   4   4  111.31    4.01
  -4   4   4  112.15    4.04
   4   0   4  123.19    4.10
   3   1  -4  178.88    5.76
  -4   3  -4  181.72    5.83
   1  -4  -4  197.93    6.00
  -4   3  -4  180.39    5.79
   3   1  -4  184.56    5.81
   1  -4  -4  193.00    5.97
  -1   4   4  189.99    5.82
   4  -3   4  187.02    5.81
  -3  -1   4  194.16    5.81
   4  -3   4  186.27    5.85
  -3  -1   4  192.22    5.84
  -1   4   4  191.00    5.82
  -4   6  -4  297.50    8.52
  -4   6  -4  273.88    8.40
  -2  -4  -4  284.29    8.84
  -2  -4  -4  311.19    9.00
   6  -2  -4  298.97    9.06
   6  -2  -4  303.17    9.15
  -6   2   4  296.11    9.10
   4  -6   4  283.61    8.57
   4  -6   4  287.62    8.55
   2   4   4  281.56    8.99
   2   4   4  287.88    8.78
  -5  -4  -4   64.80    3.21
   9  -5  -4   62.78    3.37
   9  -5  -4   64.62    3.26
  -5  -4  -4   62.64    3.13
  -9   5   4   63.68    3.36
   5   4   4   64.96    2.96
   5   4   4   62.87    3.28
   4  -9   4   63.22    2.46
   4  -9   4   63.58    2.42
   6  -5  -4  125.17    4.40
  -5  -1  -4  122.87    4.44
  -5  -1  -4  124.15    4.49
   6  -5  -4  118.51    4.42
   5   1   4  119.79    4.50
  -6   5   4  121.03    4.41
   5   1   4  122.41    4.39
  -6   5   4  119.35    4.39
   3  -5  -4  109.39    3.83
   2   3  -4  106.79    3.55
  -5   2  -4  107.42    3.94
  -5   2  -4  111.36    3.91
   2   3  -4  112.82    3.53
   3  -5  -4  110.93    3.88
  -2  -3   4  114.71    3.62
   5  -2   4  104.54    3.96
   5  -2   4  114.95    3.97
  -3   5   4  109.08    3.75
  -2  -3   4  110.23    3.57
  -3   5   4  107.84    3.93
  -5   5  -4  303.86    9.07
  -5   5  -4  292.52    9.01
   0  -5  -4  316.81    9.28
   0  -5  -4  302.92    9.14
   5   0  -4  299.82    9.28
   5   0  -4  298.17    9.23
  -5   0   4  312.04    9.31
   0   5   4  314.31    9.01
   5  -5   4  305.81    9.08
  -5   0   4  315.36    9.30
   0   5   4  294.25    9.15
   5  -5   4  281.28    9.07
   8  -3  -4  100.29    4.02
   8  -3  -4   98.58    4.15
  -3  -5  -4   95.18    3.76
  -5   8  -4   92.93    3.25
  -3  -5  -4   98.46    3.86
   5  -8   4   91.20    3.35
   3   5   4   92.21    3.88
   5  -8   4   92.32    3.38
  -8   3   4   94.06    4.01
  -8   3   4   98.11    4.09
   3   5   4  101.52    3.65
  11  -6  -4   50.84    3.40
  -6  -5  -4   53.26    3.13
  -6  -5  -4   51.34    3.11
   5 -11   4   52.22    2.33
   5 -11   4   51.55    2.44
 -11   6   4   53.58    3.42
   6   5   4   55.25    3.29
  -6  -2  -4   49.61    2.76
   8  -6  -4   42.61    2.74
  -6  -2  -4   51.53    2.82
   8  -6  -4   49.56    2.75
   2  -8   4   48.64    1.99
   2  -8   4   53.14    1.91
   6   2   4   51.39    2.88
  -8   6   4   52.04    2.85
   6   2   4   49.60    2.65
  -8   6   4   45.41    2.65
   5  -6  -4  225.22    7.26
   5  -6  -4  234.06    7.27
  -6   1  -4  230.96    7.45
  -6   1  -4  227.31    7.39
   6  -1   4  234.49    7.39
   6  -1   4  231.93    7.48
  -1  -5   4  235.09    6.79
  -5   6   4  225.51    7.20
  -1  -5   4  222.07    6.75
  -5   6   4  223.95    7.28
   2  -6  -4  258.67    8.12
   2  -6  -4  276.23    8.16
   4   2  -4  255.31    7.97
   4   2  -4  254.89    8.05
  -6   4  -4  269.64    8.20
  -6   4  -4  262.03    8.14
   6  -4   4  251.61    8.19
  -4  -2   4  272.06    8.09
  -2   6   4  269.36    7.97
  -2   6   4  259.76    7.90
  -4  -2   4  250.73    8.01
   6  -4   4  262.94    8.14
  -1  -6  -4  100.55    3.87
  -6   7  -4  112.67    3.81
   7  -1  -4   99.11    4.04
   7  -1  -4  107.35    4.23
  -6   7  -4  105.14    3.70
   1   6   4  123.13    3.81
   6  -7   4   99.80    3.79
   6  -7   4  107.07    3.78
  -7   1   4   99.10    4.09
   1   6   4   99.28    3.96
  -7   1   4  101.14    4.14
  -4  -6  -4   81.17    3.67
  10  -4  -4   84.41    4.14
  -4  -6  -4   84.33    3.73
   6 -10   4   81.10    3.20
   4   6   4   83.68    3.88
   6 -10   4   82.57    3.25
 -10   4   4   76.82    4.01
  13  -7  -4   26.37    2.86
  -7  -6  -4   19.93    2.35
  -7  -6  -4   21.51    2.61
 -13   7   4   22.76    2.72
   7   6   4   18.72    2.31
   6 -13   4   22.78    1.81
  -7  -3  -4   91.03    4.18
  -7  -3  -4   91.80    4.17
  10  -7  -4   85.96    4.22
  10  -7  -4   99.50    4.58
   7   3   4   86.96    4.18
 -10   7   4   88.40    4.20
   3 -10   4   91.40    3.29
   3 -10   4   95.80    3.14
  -7   0  -4  173.63    6.02
   7  -7  -4  164.97    5.88
   7  -7  -4  174.62    5.89
  -7   0  -4  167.38    5.98
   7   0   4  179.05    6.01
   0  -7   4  167.74    5.16
   7   0   4  164.28    6.10
  -7   7   4  170.02    5.89
   0  -7   4  166.79    5.15
  -7   7   4  163.39    5.83
   3   4  -4  251.08    7.32
   4  -7  -4  240.57    7.59
  -7   3  -4  237.33    7.79
   4  -7  -4  247.28    7.58
  -7   3  -4  233.24    7.79
   3   4  -4  240.82    7.40
   7  -3   4  232.87    7.86
  -4   7   4  235.46    7.45
  -3  -4   4  253.86    7.46
  -4   7   4  250.93    7.74
   7  -3   4  245.65    7.81
  -3  -4   4  227.96    7.35
   6   1  -4  106.18    4.06
   1  -7  -4  108.61    4.12
  -7   6  -4  108.47    4.04
  -7   6  -4  109.86    4.07
   6   1  -4  109.02    4.22
   1  -7  -4  118.75    4.21
  -1   7   4  106.26    3.80
   7  -6   4  109.36    4.07
  -6  -1   4  108.63    4.14
   7  -6   4  104.82    4.09
  -1   7   4  109.28    3.73
  -6  -1   4  111.77    4.21
  -7   9  -4   50.10    2.34
  -2  -7  -4   51.58    2.74
   9  -2  -4   58.92    3.32
  -7   9  -4   51.69    2.50
  -2  -7  -4   53.60    2.82
  -9   2   4   54.96    3.08
  -9   2   4   49.47    2.99
   7  -9   4   55.75    2.62
   2   7   4   52.21    2.88
   7  -9   4   56.09    2.68
   2   7   4   53.72    2.46
  -5  -7  -4   51.33    3.18
  12  -5  -4   57.10    3.74
  -5  -7  -4   49.44    3.04
   7 -12   4   50.25    2.61
 -12   5   4   53.33    3.61
   5   7   4   48.40    3.27
   7 -12   4   51.50    2.65
  -8  -7  -4   14.97    2.40
  15  -8  -4   16.81    2.80
   7 -15   4   17.04    1.63
 -15   8   4   19.35    2.72
  12  -8  -4   34.87    3.05
  -8  -4  -4   43.06    3.11
   4 -12   4   38.70    1.93
 -12   8   4   37.91    3.12
   4 -12   4   37.64    2.11
  -8  -1  -4   99.38    4.46
  -8  -1  -4  105.29    4.50
   9  -8  -4   97.55    4.43
   9  -8  -4   98.69    4.28
   1  -9   4  100.83    3.55
   1  -9   4  101.44    3.40
   8   1   4  113.16    4.69
  -9   8   4  105.46    4.35
  -8   2  -4  116.95    4.59
   2   6  -4  116.56    3.59
  -8   2  -4  115.35    4.54
   2   6  -4  106.38    3.69
   6  -8  -4  118.46    4.31
   6  -8  -4  109.14    4.29
  -2  -6   4  106.23    3.84
   8  -2   4  113.31    4.48
  -6   8   4  109.21    4.13
  -2  -6   4  114.18    3.89
   8  -2   4  116.29    4.68
  -6   8   4  118.12    4.39
   5   3  -4   86.41    3.52
   5   3  -4   91.86    3.43
   3  -8  -4   85.14    3.49
  -8   5  -4   86.05    3.64
   3  -8  -4   88.82    3.61
  -8   5  -4   84.06    3.68
   8  -5   4   86.71    3.64
   8  -5   4   82.11    3.71
  -3   8   4   92.53    3.32
  -3   8   4   80.49    3.17
  -5  -3   4   86.30    3.47
  -5  -3   4   85.77    3.48
   8   0  -4   54.89    3.11
  -8   8  -4   49.73    2.62
   0  -8  -4   48.46    2.77
  -8   8  -4   56.52    2.70
   0  -8  -4   55.71    2.78
   8  -8   4   50.72    2.68
   0   8   4   53.80    2.33
  -8   0   4   56.34    3.01
   8  -8   4   50.36    2.80
  -8   0   4   50.57    2.92
   0   8   4   53.06    2.47
  -3  -8  -4   50.94    3.07
  -8  11  -4   49.87    2.54
  11  -3  -4   55.32    3.48
  -8  11  -4   52.03    2.33
  -3  -8  -4   54.05    2.94
   8 -11   4   58.69    2.91
   8 -11   4   52.58    2.73
 -11   3   4   49.71    3.36
   3   8   4   41.84    2.92
  -6  -8  -4   21.38    2.49
  14  -6  -4   19.17    2.78
   8 -14   4   20.58    1.98
 -14   6   4   21.45    2.81
  -9  -5  -4   22.22    2.66
  14  -9  -4   20.69    2.84
   9   5   4   19.75    2.60
 -14   9   4   18.71    2.66
   5 -14   4   20.32    1.63
  -9  -2  -4   35.59    3.04
  11  -9  -4   32.63    2.88
 -11   9   4   38.22    2.92
   2 -11   4   31.57    1.70
   2 -11   4   30.93    1.74
   9   2   4   35.50    3.03
   8  -9  -4   94.26    4.17
  -9   1  -4   97.71    4.40
   8  -9  -4   98.35    4.13
   9  -1   4  102.57    4.58
  -8   9   4   99.02    4.08
  -1  -8   4   94.77    3.43
  -1  -8   4   96.65    3.50
   4   5  -4   46.20    2.15
  -9   4  -4   45.14    2.81
   5  -9  -4   44.06    2.48
   5  -9  -4   46.83    2.47
  -5   9   4   38.00    2.41
  -5   9   4   42.40    2.22
  -4  -5   4   44.13    2.37
   9  -4   4   44.95    2.71
  -4  -5   4   45.35    2.36
   9  -4   4   43.23    2.88
  -9   7  -4   77.58    3.60
   2  -9  -4   77.36    3.52
   2  -9  -4   77.39    3.50
   7   2  -4   85.64    3.76
   9  -7   4   73.09    3.63
   9  -7   4   81.88    3.61
  -2   9   4   85.73    3.00
  -2   9   4   77.34    2.98
  -7  -2   4   80.11    3.62
  -7  -2   4   80.49    3.66
  10  -1  -4   55.05    3.50
  -1  -9  -4   50.95    2.87
  -9  10  -4   54.23    2.69
  -1  -9  -4   47.93    3.04
   1   9   4   52.00    2.62
 -10   1   4   55.48    3.40
   9 -10   4   56.70    2.90
   9 -10   4   57.16    3.04
   1   9   4   50.20    2.39
  13  -4  -4   25.76    3.04
  -4  -9  -4   21.12    2.36
 -13   4   4   19.32    2.52
   9 -13   4   18.96    2.01
 -10  -3  -4   19.14    2.52
  13 -10  -4   18.90    2.56
   3 -13   4   21.94    1.53
 -13  10   4   22.24    2.66
  10   3   4   24.64    2.75
  10 -10  -4   30.48    2.77
  10 -10  -4   28.98    2.47
 -10   0  -4   28.64    2.72
   0 -10   4   28.78    1.95
   0 -10   4   28.28    1.73
 -10  10   4   29.86    2.51
  10   0   4   30.01    2.82
   3   7  -4   23.21    1.46
 -10   3  -4   26.87    2.45
   7 -10  -4   27.60    2.23
   7 -10  -4   19.57    1.98
  10  -3   4   24.01    2.45
  -3  -7   4   25.37    1.86
  -3  -7   4   25.09    1.94
  -7  10   4   24.74    1.93
   4 -10  -4   80.12    3.60
 -10   6  -4   77.22    3.79
   6   4  -4   77.66    3.52
   4 -10  -4   78.23    3.43
  10  -6   4   77.94    3.72
  -6  -4   4   80.25    3.53
  10  -6   4   79.79    3.91
  -4  10   4   73.33    2.98
  -6  -4   4   75.25    3.52
  -4  10   4   73.50    3.02
   1 -10  -4   42.23    2.94
 -10   9  -4   45.97    2.77
   9   1  -4   46.29    3.21
   1 -10  -4   42.42    2.68
  10  -9   4   47.27    3.02
  -9  -1   4   46.06    3.04
  10  -9   4   44.40    2.80
  -1  10   4   47.99    2.10
  -2 -10  -4   57.00    3.43
  12  -2  -4   55.78    3.95
 -12   2   4   59.86    3.91
  10 -12   4   64.56    3.46
  -5 -10  -4   12.50    2.26
  15  -5  -4   15.89    2.76
  10 -15   4   19.66    2.16
 -15   5   4   21.50    2.91
  15 -11  -4   16.24    2.70
 -11  -4  -4   16.13    2.65
 -15  11   4   11.19    2.42
  12 -11  -4   19.48    2.50
 -11  -1  -4   20.45    2.58
   1 -12   4   19.81    1.55
  11   1   4   17.31    2.54
 -12  11   4   12.48    2.01
   9 -11  -4   94.72    4.35
 -11   2  -4   95.36    4.69
   9 -11  -4   92.53    4.23
  11  -2   4   96.62    4.85
  -2  -9   4  103.98    3.74
  -2  -9   4   89.92    3.74
  -9  11   4   99.63    4.18
   6 -11  -4   45.78    2.70
   5   6  -4   45.12    2.56
 -11   5  -4   44.25    3.05
   6 -11  -4   42.73    2.68
  -5  -6   4   43.04    2.64
  -5  -6   4   49.29    2.67
  11  -5   4   47.41    3.30
  -6  11   4   41.78    2.29
  -6  11   4   41.66    2.48
 -11   8  -4   79.55    3.90
   8   3  -4   82.37    3.91
   3 -11  -4   73.10    3.56
   3 -11  -4   69.80    3.58
  -3  11   4   77.93    2.86
  11  -8   4   72.66    3.97
  -8  -3   4   77.22    3.89
  11  -8   4   71.03    3.76
  -8  -3   4   82.69    3.89
   0 -11  -4   26.60    2.50
 -11  11  -4   29.03    2.41
  11   0  -4   29.53    2.96
  11 -11   4   31.06    2.77
  11 -11   4   24.38    2.38
 -11   0   4   27.64    2.72
  -3 -11  -4    9.33    2.02
  14  -3  -4   10.64    2.50
  11 -14   4   13.46    2.06
 -14   3   4   15.34    2.59
 -12  -2  -4   15.66    2.55
  14 -12  -4   17.11    2.69
  12   2   4   18.61    2.89
 -12   1  -4   28.39    2.99
  11 -12  -4   29.11    2.87
  12  -1   4   35.13    3.33
 -11  12   4   29.48    2.61
  -1 -11   4   31.50    2.36
 -12   4  -4   36.79    3.13
   8 -12  -4   39.94    2.63
   4   8  -4   35.95    1.88
   8 -12  -4   32.83    2.69
  -8  12   4   32.48    2.27
  -4  -8   4   34.30    2.41
  12  -4   4   38.56    3.30
  -4  -8   4   33.67    2.29
 -12   7  -4   52.55    3.38
   5 -12  -4   50.21    2.85
   7   5  -4   51.11    3.00
   5 -12  -4   45.65    3.03
  -7  -5   4   53.79    3.05
  12  -7   4   41.59    3.39
  -5  12   4   45.52    2.18
  -7  -5   4   46.67    3.05
   2 -12  -4   36.42    2.81
 -12  10  -4   40.91    3.00
  10   2  -4   39.55    3.23
  12 -10   4   40.29    3.31
 -10  -2   4   40.20    3.18
  -1 -12  -4   18.81    2.32
  13  -1  -4   17.09    2.62
  12 -13   4   22.63    2.57
 -13   1   4   18.70    2.69
  13 -13  -4   12.22    2.30
 -13   0  -4   20.95    2.80
   0 -13   4   19.49    1.75
  13   0   4   21.08    2.98
 -13   3  -4   23.89    2.87
  10 -13  -4   26.55    2.60
  -3 -10   4   29.19    2.27
  13  -3   4   32.50    3.28
 -13   6  -4   40.50    3.40
   7 -13  -4   31.42    2.54
  -6  -7   4   32.03    2.55
  13  -6   4   28.24    2.98
   4 -13  -4   28.80    2.38
 -13   9  -4   23.90    2.68
   9   4  -4   33.16    2.91
  13  -9   4   27.21    3.05
  -9  -4   4   28.81    2.72
  12   1  -4   17.61    2.67
   1 -13  -4   13.84    2.11
  13 -12   4   18.14    2.54
 -12  -1   4   16.40    2.46
  12 -14  -4    9.45    2.10
 -14   2  -4    9.43    2.28
  -2 -12   4    7.25    1.57
  14  -2   4    5.48    2.27
 -14   5  -4   26.07    2.93
   9 -14  -4   23.20    2.43
  14  -5   4   23.05    3.08
  -5  -9   4   26.65    2.36
   6 -14  -4   22.10    2.20
 -14   8  -4   21.56    2.65
  -8  -6   4   18.26    2.35
  14  -8   4   23.21    2.92
   3 -14  -4   16.01    2.00
 -11  -3   4   12.99    2.37
  14 -11   4   17.18    2.69
  11 -15  -4   12.87    2.22
 -15   4  -4    8.79    2.27
  15  -4   4    9.39    2.49
  -4 -11   4   13.95    2.00
   8 -15  -4   13.83    1.94
 -15   7  -4   12.99    2.44
  -7  -8   4   11.56    2.01
  15  -7   4   13.14    2.56
 -15  10  -4   10.65    2.23
   5 -15  -4    7.79    1.67
 -10  -5   4   13.48    2.35
  15 -10   4    6.82    2.20
   0  -1  -5    2.84    0.70
   0  -1  -5    4.00    0.84
  -1   1  -5    3.42    0.53
  -1   1  -5    3.71    0.60
   1   0  -5    3.26    0.62
   1   0  -5    4.69    0.68
   0   1   5    4.10    0.84
   1  -1   5    3.79    0.62
  -1   0   5    2.76    0.62
  -1   0   5    2.42    0.60
   0   1   5    3.12    0.75
   1  -1   5    2.64    0.57
  -2   0  -5  196.77    5.90
   2  -2  -5  192.50    5.85
  -2   0  -5  185.84    5.81
   0   2  -5  190.86    5.46
  -2   2   5  186.77    5.83
   2   0   5  181.83    5.84
   2   0   5  196.89    5.83
  -2   2   5  186.87    5.87
   0  -2   5  194.32    5.48
   0  -2   5  199.58    5.53
   3  -1  -5  216.55    6.58
  -1  -2  -5  209.08    6.54
   3  -1  -5  209.61    6.59
  -2   3  -5  194.85    6.18
  -2   3  -5  213.18    6.22
  -1  -2  -5  227.18    6.71
   2  -3   5  219.61    6.27
   1   2   5  222.61    6.72
   2  -3   5  221.91    6.26
   1   2   5  222.83    6.56
  -3   1   5  222.98    6.62
  -3   1   5  210.76    6.58
  -3  -1  -5  101.58    3.58
   4  -3  -5  100.75    3.66
   4  -3  -5  102.15    3.65
  -3  -1  -5   99.07    3.72
  -4   3   5  100.47    3.60
   3   1   5  102.57    3.60
   3   1   5   94.88    3.60
  -4   3   5  103.47    3.64
   1  -3  -5    4.64    0.97
   2   1  -5    4.34    0.79
  -3   2  -5    5.74    0.82
  -3   2  -5    4.17    0.84
   2   1  -5    4.85    0.76
   1  -3  -5    5.19    1.02
   3  -2   5    4.45    0.83
  -2  -1   5    5.47    0.80
  -1   3   5    5.57    0.93
  -1   3   5    5.52    1.02
  -2  -1   5    5.25    0.79
   3  -2   5    3.93    0.83
  -2  -3  -5   60.08    2.57
  -3   5  -5   59.89    1.99
   5  -2  -5   62.12    2.70
  -3   5  -5   65.35    2.06
   5  -2  -5   58.23    2.74
  -2  -3  -5   70.99    2.83
   3  -5   5   63.14    2.17
   2   3   5   63.63    2.58
   3  -5   5   60.70    2.16
  -5   2   5   61.86    2.73
   2   3   5   59.75    2.76
  -5   2   5   66.38    2.77
  -4  -2  -5    0.83    0.94
   6  -4  -5    1.78    0.93
   6  -4  -5   -0.26    0.88
  -4  -2  -5    0.15    0.86
  -6   4   5    1.59    0.96
   4   2   5    1.07    0.93
   4   2   5    0.95    0.85
  -6   4   5    1.15    0.91
   1   3  -5   16.46    0.88
   3  -4  -5   17.40    1.42
   3  -4  -5   16.18    1.35
  -4   1  -5   19.39    1.52
  -4   1  -5   15.20    1.30
  -3   4   5   16.79    1.42
  -1  -3   5   15.82    1.00
  -3   4   5   14.16    1.27
   4  -1   5   17.81    1.39
  -1  -3   5   15.62    1.04
   4  -1   5   19.83    1.57
   0  -4  -5   15.17    1.35
  -4   4  -5   14.64    1.19
  -4   4  -5   15.85    1.17
   4   0  -5   18.42    1.38
   4   0  -5   14.39    1.29
   0  -4  -5   14.66    1.47
   4  -4   5   16.44    1.32
   0   4   5   16.16    1.25
   4  -4   5   15.59    1.20
  -4   0   5   16.45    1.37
  -4   0   5   18.03    1.42
   0   4   5   16.94    1.48
   7  -3  -5   29.84    2.22
  -3  -4  -5   32.44    2.12
  -3  -4  -5   26.63    1.91
   7  -3  -5   30.91    2.12
   3   4   5   26.65    2.13
  -7   3   5   26.24    2.14
  -7   3   5   27.82    2.11
   4  -7   5   29.59    1.48
   3   4   5   30.05    1.90
   4  -7   5   28.11    1.47
  -5  -3  -5    4.80    1.29
  -5  -3  -5    7.34    1.37
   8  -5  -5    5.25    1.32
   8  -5  -5    5.93    1.25
   3  -8   5    5.36    0.71
  -8   5   5    6.12    1.28
   5   3   5    7.45    1.21
  -8   5   5    5.23    1.36
   3  -8   5    5.63    0.69
   5  -5  -5    6.71    1.13
   5  -5  -5    9.07    1.21
  -5   0  -5    9.47    1.36
  -5   0  -5    6.23    1.11
   5   0   5    7.34    1.19
  -5   5   5    7.49    1.15
   5   0   5    8.41    1.23
  -5   5   5   10.32    1.27
   3   2  -5   17.12    1.29
   2  -5  -5   15.99    1.45
   3   2  -5   16.67    1.29
  -5   3  -5   15.60    1.36
   2  -5  -5   18.62    1.54
  -5   3  -5   17.36    1.48
   5  -3   5   15.59    1.36
  -2   5   5   16.77    1.30
  -2   5   5   18.84    1.55
   5  -3   5   18.10    1.45
  -3  -2   5   17.98    1.32
  -3  -2   5   15.91    1.22
   6  -1  -5    0.83    0.97
  -5   6  -5    0.71    0.65
  -5   6  -5   -0.48    0.65
  -1  -5  -5    0.17    0.93
   6  -1  -5    1.54    0.89
  -1  -5  -5    0.80    0.82
   1   5   5    0.52    1.00
  -6   1   5    1.37    0.97
  -6   1   5    0.39    0.91
   5  -6   5    0.51    0.72
   1   5   5    0.94    0.77
   5  -6   5    0.63    0.75
  -4  -5  -5   27.89    2.18
   9  -4  -5   26.73    2.49
   9  -4  -5   31.30    2.57
  -4  -5  -5   31.22    2.20
   4   5   5   29.37    2.33
   5  -9   5   26.70    1.63
   4   5   5   27.42    2.00
  -9   4   5   30.00    2.39
   5  -9   5   26.63    1.65
  -6  -4  -5    5.33    1.38
  -6  -4  -5    5.55    1.49
  10  -6  -5    7.92    1.73
   6   4   5    8.76    1.64
   4 -10   5    5.39    0.84
   4 -10   5    5.61    0.93
 -10   6   5    7.19    1.67
   7  -6  -5   21.72    1.90
  -6  -1  -5   21.49    1.82
   7  -6  -5   25.01    1.98
  -6  -1  -5   26.01    2.06
   6   1   5   23.21    1.89
   6   1   5   27.79    2.26
  -7   6   5   21.69    1.89
  -7   6   5   20.25    1.84
   4  -6  -5    9.43    1.24
  -6   2  -5    7.61    1.22
   2   4  -5   10.22    0.84
   4  -6  -5    9.18    1.30
  -6   2  -5    8.03    1.28
   2   4  -5    9.87    0.88
   6  -2   5    8.32    1.22
   6  -2   5    7.95    1.27
  -4   6   5   11.59    1.44
  -2  -4   5    7.91    0.92
  -4   6   5    8.26    1.16
  -2  -4   5    7.83    0.87
   5   1  -5   53.13    2.45
   1  -6  -5   51.58    2.69
   1  -6  -5   54.69    2.63
  -6   5  -5   52.19    2.41
   5   1  -5   51.46    2.55
  -6   5  -5   48.04    2.35
  -5  -1   5   52.01    2.50
  -1   6   5   54.06    2.31
   6  -5   5   48.51    2.44
   6  -5   5   53.41    2.41
  -5  -1   5   53.89    2.51
  -1   6   5   50.93    2.37
   8  -2  -5   15.53    1.87
  -6   8  -5   17.81    1.38
  -2  -6  -5   23.69    1.87
  -6   8  -5   15.22    1.21
  -2  -6  -5   19.51    1.74
   8  -2  -5   17.09    1.81
   2   6   5   15.37    1.46
   6  -8   5   16.17    1.42
  -8   2   5   18.09    1.89
   2   6   5   17.57    1.80
   6  -8   5   17.55    1.42
  -8   2   5   16.75    1.78
  11  -5  -5    8.80    1.86
  -5  -6  -5    9.94    1.68
  -5  -6  -5    9.86    1.61
   6 -11   5    9.61    1.21
   6 -11   5    8.56    1.21
 -11   5   5    7.88    1.83
   5   6   5   10.88    1.83
  -7  -5  -5   -0.81    1.11
  12  -7  -5    0.83    1.45
  -7  -5  -5   -1.94    1.19
   5 -12   5   -0.89    0.90
 -12   7   5    1.09    1.52
   7   5   5    0.88    1.36
   5 -12   5   -0.07    0.76
  -7  -2  -5   30.96    2.51
   9  -7  -5   32.83    2.63
  -7  -2  -5   35.88    2.56
   9  -7  -5   30.07    2.44
  -9   7   5   34.03    2.55
   7   2   5   32.87    2.63
  -7   1  -5    3.19    1.15
   6  -7  -5    2.28    1.04
   6  -7  -5    4.68    1.13
  -7   1  -5    3.44    1.22
  -1  -6   5    4.12    0.74
  -6   7   5    4.53    1.11
   7  -1   5    4.21    1.23
  -6   7   5    5.34    1.14
  -1  -6   5    4.45    0.73
   7  -1   5    4.49    1.16
   3  -7  -5  121.81    4.48
  -7   4  -5  125.74    4.58
   3  -7  -5  132.72    4.56
  -7   4  -5  126.34    4.57
   4   3  -5  127.45    4.25
   4   3  -5  117.81    4.27
  -3   7   5  123.18    4.43
   7  -4   5  122.86    4.54
  -4  -3   5  124.61    4.33
   7  -4   5  125.11    4.65
  -4  -3   5  118.57    4.26
  -3   7   5  120.70    4.24
   7   0  -5   31.11    2.29
   0  -7  -5   25.35    2.09
  -7   7  -5   29.27    1.85
   0  -7  -5   25.48    2.07
   7   0  -5   31.74    2.11
  -7   7  -5   31.88    1.97
   0   7   5   27.95    1.75
   7  -7   5   29.76    1.96
   7  -7   5   29.02    1.98
  -7   0   5   26.98    2.14
   0   7   5   26.96    1.99
  -7   0   5   28.33    2.16
  -7  10  -5   20.39    1.62
  -3  -7  -5   25.20    2.13
  10  -3  -5   20.11    2.33
  -3  -7  -5   17.42    1.91
 -10   3   5   19.27    2.24
   7 -10   5   19.21    1.67
   7 -10   5   24.54    1.85
   3   7   5   17.54    2.03
  13  -6  -5   -0.29    1.60
  -6  -7  -5    1.81    1.36
  -6  -7  -5   -1.76    1.23
   6   7   5    0.40    1.48
   7 -13   5    0.94    1.08
 -13   6   5    2.32    1.65
  14  -8  -5    4.04    1.87
  -8  -6  -5    8.38    1.98
   6 -14   5    7.19    1.14
 -14   8   5    7.17    2.07
  -8  -3  -5    1.50    1.40
  11  -8  -5    2.17    1.45
 -11   8   5    1.99    1.44
  -8   0  -5   26.50    2.32
  -8   0  -5   22.63    2.19
   8  -8  -5   26.39    2.29
   8  -8  -5   27.02    2.18
   0  -8   5   28.33    1.53
   0  -8   5   28.82    1.46
   8   0   5   30.90    2.56
  -8   8   5   27.93    2.29
   5  -8  -5    6.33    1.21
  -8   3  -5    7.54    1.41
   5  -8  -5    6.68    1.19
  -8   3  -5    5.43    1.32
   3   5  -5    5.95    0.87
  -5   8   5   10.08    1.46
  -3  -5   5    7.49    1.07
  -5   8   5    6.49    1.16
   8  -3   5    6.56    1.42
  -3  -5   5    6.66    1.02
   8  -3   5    4.80    1.26
   6   2  -5    9.12    1.38
  -8   6  -5   10.69    1.46
   6   2  -5    9.74    1.29
  -8   6  -5    6.96    1.28
   2  -8  -5    8.19    1.38
   2  -8  -5   12.59    1.57
  -6  -2   5    9.84    1.41
   8  -6   5   10.01    1.39
   8  -6   5    7.20    1.44
  -6  -2   5    7.44    1.32
  -2   8   5    8.01    1.09
  -2   8   5   10.23    1.12
  -8   9  -5    5.76    1.17
  -1  -8  -5    8.44    1.39
  -8   9  -5    7.93    1.21
   9  -1  -5   10.16    1.83
  -1  -8  -5    3.84    1.29
   8  -9   5    7.71    1.24
  -9   1   5    7.17    1.48
   1   8   5    6.89    1.11
   1   8   5    5.97    1.31
   8  -9   5    4.46    1.22
  -9   1   5    6.66    1.48
  -4  -8  -5   -0.21    1.27
  12  -4  -5   -0.90    1.46
  -4  -8  -5    2.53    1.29
   4   8   5    1.66    1.39
   8 -12   5   -0.41    1.03
   8 -12   5   -1.44    0.99
 -12   4   5    0.11    1.47
  -7  -8  -5    0.07    1.61
  15  -7  -5    0.50    1.81
 -15   7   5   -0.93    1.70
   8 -15   5   -0.63    1.08
  13  -9  -5    0.45    1.62
  -9  -4  -5    2.24    1.63
 -13   9   5    4.63    1.74
   9   4   5    2.24    1.60
  10  -9  -5    7.76    1.73
  10  -9  -5    9.80    1.65
  -9  -1  -5    9.16    1.78
 -10   9   5    6.79    1.66
   1 -10   5    8.03    1.03
   9   1   5    9.50    1.87
  -9   2  -5    6.44    1.52
   7  -9  -5    7.07    1.39
   7  -9  -5    7.01    1.37
   9  -2   5    6.16    1.55
  -7   9   5    7.95    1.45
  -2  -7   5    5.68    1.02
  -7   9   5    8.63    1.38
  -2  -7   5    5.77    1.00
  -9   5  -5   14.53    1.74
   5   4  -5   12.68    1.34
   5   4  -5   14.22    1.53
   4  -9  -5   15.19    1.65
   4  -9  -5   14.71    1.68
   9  -5   5   14.59    1.71
  -5  -4   5   10.26    1.39
  -4   9   5   11.94    1.40
  -5  -4   5   13.88    1.53
   9  -5   5   12.21    1.79
  -4   9   5    9.23    1.23
   1  -9  -5    1.37    1.25
   8   1  -5    3.50    1.34
   1  -9  -5    5.83    1.34
  -9   8  -5    3.61    1.24
  -1   9   5    2.84    0.95
   9  -8   5    4.44    1.37
  -8  -1   5    3.68    1.30
  -1   9   5    3.37    0.88
  -8  -1   5    2.04    1.30
   9  -8   5    6.45    1.32
  -2  -9  -5    2.00    1.28
  11  -2  -5    1.01    1.53
  -2  -9  -5   -0.38    1.14
  -9  11  -5    0.06    0.90
   2   9   5    1.34    1.19
 -11   2   5    3.06    1.58
   9 -11   5   -0.07    1.15
   9 -11   5   -0.88    0.94
  -5  -9  -5    6.70    1.85
  14  -5  -5    5.91    2.09
 -14   5   5    7.73    2.06
   9 -14   5    7.40    1.54
 -10  -5  -5    4.98    1.90
  15 -10  -5    2.98    1.94
 -15  10   5    1.30    1.90
  12 -10  -5    2.27    1.58
 -10  -2  -5    2.24    1.58
  10   2   5    0.94    1.56
 -12  10   5    4.59    1.63
 -10   1  -5   17.97    2.20
   9 -10  -5   14.56    1.83
   9 -10  -5   16.29    1.99
  -1  -9   5   17.18    1.42
  -1  -9   5   16.44    1.33
  10  -1   5   19.92    2.39
  -9  10   5   11.07    1.76
 -10   4  -5   17.35    2.08
   6 -10  -5   17.80    1.80
   4   6  -5   16.97    1.40
   6 -10  -5   17.65    1.83
   4   6  -5   17.36    1.53
  -6  10   5   17.76    1.64
  -6  10   5   19.10    1.89
  -4  -6   5   15.75    1.57
  10  -4   5   17.97    2.09
  -4  -6   5   19.24    1.69
   3 -10  -5   -0.09    1.18
 -10   7  -5    1.47    1.27
   3 -10  -5    2.60    1.24
   7   3  -5    1.43    1.20
  10  -7   5   -0.72    1.22
  -7  -3   5    2.57    1.23
  -3  10   5    1.36    0.85
  10  -7   5    3.44    1.28
  -7  -3   5    1.20    1.16
  -3  10   5    0.60    0.82
   0 -10  -5    2.26    1.42
  10   0  -5    0.49    1.36
 -10  10  -5   -0.75    1.05
  10 -10   5    1.20    1.07
   0  10   5    1.04    0.91
   0  10   5    0.98    0.80
  10 -10   5    1.33    1.30
 -10   0   5   -1.30    1.26
  -3 -10  -5    0.97    1.47
  13  -3  -5    4.14    1.89
 -13   3   5   -1.70    1.48
  10 -13   5    2.96    1.34
  14 -11  -5    2.52    1.74
 -11  -3  -5    4.01    1.95
 -14  11   5    6.77    2.00
  11 -11  -5   -0.53    1.34
 -11   0  -5    1.79    1.61
 -11  11   5    1.61    1.39
  11   0   5    4.37    1.72
   0 -11   5    1.16    0.79
   0 -11   5    0.72    1.00
 -11   3  -5    0.04    1.37
   8 -11  -5    1.76    1.29
   8 -11  -5    2.79    1.29
  -3  -8   5    3.76    1.13
  -8  11   5    3.74    1.22
  -3  -8   5    1.93    1.00
  11  -3   5    0.70    1.45
   5 -11  -5    1.71    1.17
   5 -11  -5    1.38    1.28
   6   5  -5    2.78    1.13
 -11   6  -5    2.45    1.47
  -6  -5   5    1.29    1.13
  -6  -5   5    1.78    1.20
  -5  11   5    1.29    0.93
  11  -6   5    2.01    1.44
  -5  11   5    2.26    0.98
   9   2  -5    1.61    1.37
   2 -11  -5    1.36    1.34
   2 -11  -5    5.57    1.40
 -11   9  -5    4.31    1.43
  -2  11   5    3.46    0.84
  11  -9   5    2.46    1.49
  -2  11   5    1.16    0.56
  11  -9   5    2.84    1.31
  -9  -2   5    3.35    1.45
  12  -1  -5    4.73    1.82
  -1 -11  -5    4.76    1.64
  11 -12   5    7.88    1.76
 -12   1   5    5.69    1.84
  15  -4  -5    2.03    1.99
  -4 -11  -5    2.94    1.72
 -15   4   5    1.96    1.88
  11 -15   5    1.49    1.42
 -12  -1  -5    1.15    1.66
  13 -12  -5    1.60    1.70
  12   1   5    0.99    1.85
  10 -12  -5   -0.10    1.32
 -12   2  -5    3.02    1.63
  10 -12  -5    2.66    1.35
 -10  12   5    2.09    1.36
  12  -2   5    1.84    1.76
  -2 -10   5    2.52    1.14
   7 -12  -5    4.94    1.47
 -12   5  -5    3.22    1.71
   5   7  -5    4.08    1.25
   7 -12  -5    4.71    1.39
  -5  -7   5    3.97    1.33
  12  -5   5    6.06    1.82
  -7  12   5    5.06    1.17
  -5  -7   5    4.39    1.27
   8   4  -5   10.58    1.77
 -12   8  -5   11.00    1.91
   4 -12  -5    8.43    1.68
   4 -12  -5   11.58    1.73
  -8  -4   5    8.53    1.76
  -4  12   5    7.31    1.04
  -8  -4   5    9.12    1.70
  12  -8   5    9.11    1.90
   1 -12  -5   12.47    1.94
 -12  11  -5    8.60    1.80
  11   1  -5   11.14    2.17
  12 -11   5   10.69    2.10
 -11  -1   5   11.67    2.11
  14  -2  -5   -2.08    1.56
  -2 -12  -5   -0.68    1.62
 -14   2   5   -2.64    1.59
  12 -14   5    1.10    1.56
  12 -13  -5    6.84    1.92
 -13   1  -5    3.57    1.89
  13  -1   5    4.02    1.95
  -1 -12   5    2.42    1.24
   9 -13  -5    0.52    1.36
 -13   4  -5   -1.50    1.50
  13  -4   5   -0.06    1.59
  -4  -9   5    0.70    1.13
   6 -13  -5    4.40    1.46
 -13   7  -5    4.60    1.78
  13  -7   5    2.95    1.77
  -7  -6   5    5.52    1.62
  10   3  -5    3.84    1.74
 -13  10  -5    4.93    1.66
   3 -13  -5    3.61    1.49
 -10  -3   5    3.94    1.75
  13 -10   5    5.40    1.90
   0 -13  -5    1.90    1.67
  13   0  -5    0.93    1.73
 -13   0   5    2.63    1.80
  13 -13   5    4.61    1.86
  11 -14  -5    2.95    1.70
 -14   3  -5   -1.15    1.64
  -3 -11   5    0.68    1.24
  14  -3   5    2.19    1.83
   8 -14  -5    5.88    1.60
 -14   6  -5    2.13    1.78
  -6  -8   5    1.88    1.46
  14  -6   5    5.49    2.10
 -14   9  -5    0.76    1.51
   5 -14  -5   -0.78    1.24
  -9  -5   5    0.84    1.52
  14  -9   5    0.48    1.70
   2 -14  -5   -1.37    1.40
 -12  -2   5    0.95    1.71
  14 -12   5    0.17    1.63
 -15   5  -5    1.55    1.80
  10 -15  -5   -0.60    1.39
  15  -5   5    2.38    2.13
  -5 -10   5    2.00    1.36
   7 -15  -5    1.79    1.47
 -15   8  -5   -1.17    1.52
  -8  -7   5    1.75    1.57
  15  -8   5    0.41    1.91
   4 -15  -5    1.31    1.41
 -11  -4   5    0.40    1.64
  15 -11   5   -0.21    1.76
   0   0  -6   42.83    1.89
   0   0  -6   43.04    1.85
   0   0   6   44.02    1.90
   0   0   6   45.63    1.92
   2  -1  -6  177.39    5.53
  -1  -1  -6  173.58    5.54
   2  -1  -6  182.31    5.55
  -1  -1  -6  188.13    5.69
  -1   2  -6  179.01    5.24
  -1   2  -6  176.77    5.30
   1  -2   6  181.34    5.29
   1  -2   6  180.98    5.30
  -2   1   6  178.13    5.54
  -2   1   6  181.60    5.55
   1   1   6  178.82    5.55
   1  -2  -6   53.64    2.25
   1  -2  -6   43.99    2.15
  -2   1  -6   47.12    1.93
   1   1  -6   49.43    1.86
  -2   1  -6   45.46    2.02
   1   1  -6   46.81    1.80
   2  -1   6   45.71    1.97
  -1   2   6   50.83    2.16
   2  -1   6   49.04    1.98
  -1   2   6   48.98    2.27
  -1  -1   6   50.30    1.88
  -1  -1   6   47.13    1.84
   4  -2  -6    4.04    0.99
  -2  -2  -6    3.26    0.86
  -2  -2  -6    4.16    1.06
   4  -2  -6    4.10    0.98
   2  -4   6    2.47    0.50
  -4   2   6    2.30    0.85
   2  -4   6    3.95    0.53
  -4   2   6    2.52    0.93
   2   2   6    2.92    0.87
   2   2   6    3.55    1.00
   3  -3  -6   47.12    2.21
  -3   0  -6   48.29    2.21
   3  -3  -6   51.97    2.27
  -3   0  -6   49.12    2.31
  -3   3   6   48.20    2.22
  -3   3   6   46.21    2.20
   3   0   6   49.39    2.23
   3   0   6   47.36    2.25
   0  -3   6   48.76    1.65
   0  -3   6   49.18    1.62
   3   0  -6  143.42    4.61
  -3   3  -6  133.89    4.39
   3   0  -6  143.52    4.60
  -3   3  -6  140.46    4.44
   0  -3  -6  139.55    4.83
   0  -3  -6  146.82    4.76
  -3   0   6  143.44    4.60
   3  -3   6  137.62    4.45
   0   3   6  138.18    4.82
  -3   0   6  145.73    4.63
   0   3   6  146.66    4.67
   3  -3   6  146.10    4.46
   6  -3  -6   31.95    2.01
  -3  -3  -6   29.39    1.91
  -3  -3  -6   30.49    2.07
   6  -3  -6   30.36    2.13
  -6   3   6   27.21    2.06
   3   3   6   27.07    2.07
  -6   3   6   31.04    2.02
   3  -6   6   26.32    1.26
   3   3   6   34.31    1.92
   3  -6   6   28.86    1.27
  -4  -1  -6   26.74    1.90
   5  -4  -6   23.45    1.83
  -4  -1  -6   22.52    1.70
   5  -4  -6   22.98    1.74
  -5   4   6   18.59    1.58
   4   1   6   23.20    1.79
  -5   4   6   23.93    1.80
   4   1   6   22.00    1.74
   2   2  -6   59.61    2.20
   2  -4  -6   59.60    2.63
  -4   2  -6   62.14    2.55
  -4   2  -6   57.85    2.45
   2  -4  -6   58.05    2.60
   2   2  -6   57.18    2.20
   4  -2   6   64.27    2.56
  -2   4   6   60.67    2.71
  -2  -2   6   59.74    2.26
  -2   4   6   60.05    2.52
   4  -2   6   57.28    2.48
  -2  -2   6   60.75    2.25
  -1  -4  -6    1.04    0.81
  -1  -4  -6    1.06    1.00
   5  -1  -6    0.39    0.80
  -4   5  -6    0.21    0.57
  -4   5  -6   -0.09    0.60
   5  -1  -6    0.81    0.90
   4  -5   6   -0.09    0.67
   1   4   6    0.99    1.02
   1   4   6   -0.74    0.74
   4  -5   6    0.06    0.64
  -5   1   6    0.15    0.90
  -5   1   6    1.50    0.94
   8  -4  -6   38.39    2.47
  -4  -4  -6   40.45    2.43
  -4  -4  -6   40.75    2.47
   8  -4  -6   35.66    2.51
   4  -8   6   38.45    1.68
   4  -8   6   37.16    1.67
  -8   4   6   44.04    2.58
   4   4   6   41.34    2.31
  -8   4   6   42.08    2.64
   4   4   6   36.21    2.49
  -5  -2  -6   66.26    3.12
   7  -5  -6   65.89    3.20
   7  -5  -6   63.37    3.08
  -5  -2  -6   73.67    3.26
  -7   5   6   69.39    3.22
   5   2   6   69.79    3.23
  -7   5   6   67.13    3.13
   5   2   6   73.12    3.07
  -5   1  -6    4.66    1.04
  -5   1  -6    6.58    1.20
   4  -5  -6    5.71    1.08
   4  -5  -6    4.05    0.98
   5  -1   6    3.97    1.03
  -4   5   6    6.54    1.09
  -1  -4   6    4.77    0.68
  -1  -4   6    4.52    0.64
  -4   5   6    5.87    1.13
   5  -1   6    3.95    1.06
  -5   4  -6   47.95    2.19
  -5   4  -6   44.40    2.23
   4   1  -6   50.66    2.21
   4   1  -6   47.46    2.28
   1  -5  -6   48.54    2.53
   1  -5  -6   44.11    2.47
  -4  -1   6   49.93    2.29
   5  -4   6   48.87    2.28
   5  -4   6   48.65    2.31
  -1   5   6   48.88    2.32
  -1   5   6   53.18    2.34
  -4  -1   6   46.96    2.22
  -5   7  -6    2.48    0.63
   7  -2  -6    2.89    1.05
  -2  -5  -6    4.19    1.20
  -5   7  -6    2.32    0.70
   7  -2  -6    3.63    1.15
  -2  -5  -6    3.29    0.99
   2   5   6    3.25    1.21
  -7   2   6    2.32    1.12
   5  -7   6    2.73    0.80
   5  -7   6    3.12    0.80
  -7   2   6    2.45    1.10
   2   5   6    1.87    0.86
  -5  -5  -6    2.30    1.25
  10  -5  -6    3.42    1.45
  -5  -5  -6    5.57    1.39
   5   5   6    4.78    1.50
 -10   5   6    3.51    1.47
   5 -10   6    5.66    0.93
   5 -10   6    5.85    0.92
   9  -6  -6   17.97    1.91
  -6  -3  -6   15.91    1.86
  -6  -3  -6   18.04    1.87
   9  -6  -6   17.04    2.02
  -9   6   6   15.65    1.95
   6  -6  -6    2.87    1.07
  -6   0  -6    3.50    1.14
   6  -6  -6    3.36    1.08
  -6   0  -6    6.28    1.25
  -6   6   6    1.55    0.99
   6   0   6    1.11    1.03
  -6   6   6    3.26    1.08
   6   0   6    3.38    1.07
   3  -6  -6    6.91    1.12
  -6   3  -6    7.03    1.18
   3  -6  -6    4.50    1.10
  -6   3  -6    6.39    1.15
   3   3  -6    5.58    0.89
   3   3  -6    7.42    0.92
   6  -3   6    4.13    1.05
  -3  -3   6    5.82    0.92
  -3  -3   6    5.25    0.93
  -3   6   6    5.11    0.98
  -3   6   6    4.20    1.15
   6  -3   6    5.19    1.11
   0  -6  -6    7.24    1.35
   6   0  -6    6.86    1.17
  -6   6  -6    6.94    1.08
   6   0  -6    7.53    1.30
  -6   6  -6    6.30    0.98
   0  -6  -6    5.83    1.22
  -6   0   6    6.54    1.22
   6  -6   6    6.57    1.11
   6  -6   6    5.31    1.04
   0   6   6    7.43    1.24
   0   6   6    6.18    0.99
  -6   0   6    7.06    1.24
  -6   9  -6    5.32    0.74
   9  -3  -6    6.03    1.48
  -3  -6  -6    7.45    1.44
  -3  -6  -6    5.57    1.31
  -6   9  -6    6.62    0.88
   6  -9   6    6.29    1.06
   3   6   6    6.35    1.21
  -9   3   6    5.46    1.47
   3   6   6    7.15    1.56
   6  -9   6    6.04    1.05
  12  -6  -6    8.89    2.00
  -6  -6  -6    9.38    1.83
  -6  -6  -6    9.65    1.72
   6 -12   6   10.82    1.26
 -12   6   6   10.72    2.07
   6   6   6   10.17    1.94
   6 -12   6    8.13    1.19
  -7  -4  -6    4.25    1.45
  11  -7  -6    0.82    1.43
  -7  -4  -6    0.15    1.25
 -11   7   6    2.95    1.50
   7   4   6    1.73    1.48
   4 -11   6    4.45    0.77
  -7  -1  -6   14.52    1.83
   8  -7  -6   14.46    1.75
  -7  -1  -6    9.92    1.59
   8  -7  -6   12.33    1.59
   7   1   6   11.35    1.73
  -8   7   6   12.81    1.67
  -7   2  -6   12.20    1.54
   5  -7  -6   12.37    1.47
   2   5  -6   13.40    0.99
   2   5  -6   13.21    0.95
  -7   2  -6   10.66    1.48
   5  -7  -6   10.91    1.39
  -2  -5   6   13.40    1.09
   7  -2   6   15.70    1.65
  -5   7   6   12.50    1.58
  -2  -5   6   14.06    1.12
  -5   7   6   14.20    1.48
   7  -2   6   14.24    1.71
   2  -7  -6    3.86    1.28
   5   2  -6    3.51    0.94
  -7   5  -6    6.47    1.18
   5   2  -6    4.11    1.08
  -7   5  -6    3.94    1.09
   2  -7  -6    5.44    1.21
  -5  -2   6    5.62    1.12
  -5  -2   6    4.66    1.07
   7  -5   6    4.08    1.12
   7  -5   6    3.85    1.08
  -2   7   6    2.98    0.93
  -2   7   6    5.76    1.09
  -7   8  -6    3.58    0.95
  -7   8  -6    2.67    0.98
   8  -1  -6    4.86    1.36
  -1  -7  -6    6.09    1.28
   1   7   6    4.11    0.97
  -8   1   6    4.84    1.31
  -8   1   6    8.74    1.46
   7  -8   6    3.95    1.04
   1   7   6    4.35    1.25
   7  -8   6    2.26    1.01
  -4  -7  -6    3.13    1.28
  -4  -7  -6    4.73    1.52
  11  -4  -6    4.35    1.63
   4   7   6    3.11    1.48
   7 -11   6    2.61    1.07
 -11   4   6    5.57    1.68
   7 -11   6    3.76    1.04
  -7  -7  -6    3.50    1.72
  14  -7  -6    4.38    1.93
 -14   7   6    8.14    2.17
   7 -14   6    3.65    1.11
  -8  -5  -6   -1.13    1.42
  13  -8  -6   -0.54    1.52
   5 -13   6    0.75    0.77
   8   5   6    1.77    1.49
 -13   8   6    1.43    1.68
  -8  -2  -6   -0.57    1.21
  10  -8  -6    1.14    1.32
 -10   8   6   -1.57    1.25
   8   2   6   -1.23    1.22
   7  -8  -6    2.04    1.11
  -8   1  -6    2.64    1.22
   7  -8  -6    1.03    1.11
  -8   1  -6    1.46    1.16
  -7   8   6    2.29    1.13
   8  -1   6    2.13    1.25
   8  -1   6    2.83    1.33
  -7   8   6    0.34    1.03
  -1  -7   6    0.91    0.66
  -1  -7   6    0.82    0.67
  -8   4  -6   26.44    2.16
   4   4  -6   26.01    1.75
   4   4  -6   31.29    1.75
   4  -8  -6   27.55    2.09
   4  -8  -6   26.93    2.10
  -8   4  -6   28.11    2.14
  -4  -4   6   27.05    1.83
   8  -4   6   26.07    2.22
  -4   8   6   27.14    2.11
  -4   8   6   25.28    1.86
   8  -4   6   29.36    2.19
  -4  -4   6   29.17    1.88
  -8   7  -6   16.43    1.65
  -8   7  -6   16.69    1.67
   7   1  -6   18.09    1.89
   1  -8  -6   15.58    1.78
   1  -8  -6   23.94    2.07
   7   1  -6   15.10    1.66
   8  -7   6   19.95    1.83
  -7  -1   6   17.16    1.74
   8  -7   6   16.95    1.76
  -1   8   6   19.39    1.63
  -1   8   6   18.06    1.47
  -7  -1   6   13.81    1.67
  -8  10  -6   14.44    1.38
  10  -2  -6   16.72    2.21
  -2  -8  -6   17.42    1.91
  -2  -8  -6   18.39    1.92
  -8  10  -6   13.23    1.45
   8 -10   6   18.28    1.70
 -10   2   6   21.37    2.25
   8 -10   6   13.84    1.66
   2   8   6   14.49    1.81
  -5  -8  -6    8.32    1.82
  13  -5  -6   10.04    2.28
   8 -13   6    4.93    1.32
 -13   5   6    3.66    1.79
  -9  -6  -6   -1.62    1.63
  15  -9  -6    1.53    1.85
 -15   9   6    2.65    1.99
  12  -9  -6    8.47    1.97
  -9  -3  -6    6.27    1.71
 -12   9   6    2.58    1.67
  -9   0  -6    6.65    1.68
   9  -9  -6    7.38    1.55
   9  -9  -6    7.69    1.54
   9   0   6    5.46    1.64
   0  -9   6    8.87    0.97
   0  -9   6    8.19    0.88
  -9   9   6    7.12    1.58
   6  -9  -6   46.84    2.71
   3   6  -6   51.45    2.05
   6  -9  -6   50.80    2.73
  -9   3  -6   47.99    2.98
  -3  -6   6   49.73    2.34
   9  -3   6   48.96    3.09
  -6   9   6   45.88    2.81
  -3  -6   6   46.64    2.33
   9  -3   6   47.38    2.86
  -6   9   6   46.23    2.62
   3  -9  -6    7.04    1.48
   6   3  -6    8.01    1.27
  -9   6  -6    5.86    1.39
   6   3  -6    4.96    1.27
   3  -9  -6    6.09    1.36
   9  -6   6    7.50    1.41
  -3   9   6    6.32    1.14
  -3   9   6    5.09    1.10
  -6  -3   6    7.28    1.33
   9  -6   6    6.14    1.54
  -6  -3   6    5.30    1.29
   9   0  -6   17.72    2.12
  -9   9  -6   17.80    1.75
   0  -9  -6   17.38    2.01
   0  -9  -6   15.34    1.82
   9  -9   6   16.81    1.79
  -9   0   6   16.96    2.12
   0   9   6   15.14    1.43
  -9   0   6   18.26    2.04
   9  -9   6   17.18    1.89
   0   9   6   16.29    1.64
  -3  -9  -6    1.11    1.37
  -9  12  -6    0.25    0.94
  -3  -9  -6    0.27    1.16
  12  -3  -6   -0.33    1.49
   9 -12   6    2.46    1.26
 -12   3   6   -1.13    1.39
  -6  -9  -6    0.68    1.68
  15  -6  -6    0.17    1.81
 -15   6   6   -1.62    1.68
   9 -15   6    0.95    1.19
 -10  -4  -6    0.06    1.62
  14 -10  -6   -0.13    1.62
  10   4   6   -0.75    1.53
 -14  10   6    4.52    1.95
 -10  -1  -6    6.80    1.77
  11 -10  -6    7.01    1.78
  10   1   6   10.18    2.07
 -11  10   6    7.76    1.73
   8 -10  -6    6.37    1.52
   8 -10  -6    5.63    1.38
 -10   2  -6    6.77    1.70
  -2  -8   6    5.99    1.09
  10  -2   6    6.19    1.72
  -8  10   6    6.77    1.45
  -2  -8   6    6.64    1.06
   5   5  -6   14.45    1.57
   5 -10  -6   14.67    1.79
   5   5  -6   17.89    1.56
   5 -10  -6   15.63    1.84
 -10   5  -6   15.66    2.02
  -5  -5   6   19.02    1.76
  -5  10   6   17.00    1.76
  10  -5   6   13.74    1.99
  -5  10   6   15.50    1.57
  -5  -5   6   18.68    1.77
   2 -10  -6   11.42    1.69
   8   2  -6    6.54    1.52
   2 -10  -6    8.64    1.59
 -10   8  -6    9.55    1.59
  -8  -2   6    8.17    1.65
  -2  10   6    6.54    1.16
  10  -8   6    9.50    1.56
  -2  10   6   10.45    1.21
  -8  -2   6    9.39    1.64
  10  -8   6    7.52    1.59
 -10  11  -6    0.39    1.03
  -1 -10  -6    0.66    1.38
  11  -1  -6   -1.86    1.33
  -1 -10  -6    1.14    1.17
  10 -11   6    1.67    1.16
 -11   1   6   -0.73    1.44
  10 -11   6   -1.23    1.17
  14  -4  -6    2.15    1.87
  -4 -10  -6    0.33    1.50
 -14   4   6    2.88    1.85
  10 -14   6    1.86    1.34
 -11  -2  -6    2.89    1.86
  13 -11  -6    4.99    1.91
  11   2   6    8.55    2.04
 -13  11   6    7.09    2.06
  10 -11  -6   -0.91    1.19
  10 -11  -6    2.76    1.46
 -11   1  -6    1.93    1.60
  -1 -10   6    2.02    0.85
  -1 -10   6    2.30    0.97
  11  -1   6   -0.03    1.58
 -10  11   6    0.26    1.32
 -11   4  -6    1.40    1.52
   7 -11  -6    2.85    1.29
   7 -11  -6    2.40    1.34
   4   7  -6    3.54    0.86
  -4  -7   6    2.96    1.14
  11  -4   6    2.79    1.55
  -7  11   6    4.36    1.22
  -4  -7   6    3.22    1.06
   7   4  -6    3.04    1.33
 -11   7  -6    4.50    1.49
   4 -11  -6    4.48    1.39
   4 -11  -6    2.01    1.35
  -7  -4   6    2.97    1.26
  -4  11   6    3.05    1.01
  -4  11   6    2.34    0.94
  -7  -4   6    5.69    1.44
  11  -7   6   -0.08    1.30
   1 -11  -6    4.32    1.38
   1 -11  -6    5.13    1.61
 -11  10  -6    4.49    1.38
  10   1  -6    4.70    1.69
  11 -10   6    4.03    1.34
 -10  -1   6    5.43    1.68
  11 -10   6    6.45    1.67
  13  -2  -6    4.86    1.99
  -2 -11  -6    8.51    1.90
  11 -13   6    6.14    1.73
 -13   2   6    5.20    1.92
 -12   0  -6    8.68    2.11
  12 -12  -6    4.99    1.84
  12   0   6    6.06    2.12
 -12  12   6    9.10    1.86
   0 -12   6    5.01    1.15
 -12   3  -6    5.61    1.87
   9 -12  -6    5.55    1.55
   9 -12  -6    4.09    1.57
  -9  12   6    5.65    1.45
  12  -3   6    3.80    1.79
  -3  -9   6    2.51    1.13
   6 -12  -6    1.43    1.34
   6 -12  -6    1.29    1.28
 -12   6  -6    0.64    1.46
  12  -6   6    1.28    1.46
  -6  -6   6    1.24    1.14
  -6  12   6    1.15    0.96
  -6  -6   6    1.10    1.24
   9   3  -6    4.38    1.55
 -12   9  -6    4.31    1.58
   3 -12  -6    1.89    1.39
  12  -9   6    3.24    1.64
  -9  -3   6    3.98    1.58
  12   0  -6    2.77    1.78
   0 -12  -6    1.19    1.53
 -12   0   6    1.48    1.56
  12 -12   6    5.19    1.80
 -13   2  -6    0.25    1.72
  11 -13  -6    3.34    1.66
  -2 -11   6    0.52    1.12
  13  -2   6    1.44    1.84
   8 -13  -6    0.49    1.36
 -13   5  -6    3.54    1.76
  13  -5   6   -0.35    1.55
  -5  -8   6    0.61    1.23
 -13   8  -6    0.08    1.48
   5 -13  -6    1.56    1.38
  -8  -5   6    0.88    1.43
  13  -8   6    1.87    1.66
  11   2  -6   -0.63    1.45
   2 -13  -6    0.01    1.32
  13 -11   6   -2.07    1.42
 -11  -2   6    3.00    1.75
  10 -14  -6    4.14    1.65
 -14   4  -6    2.58    1.81
  14  -4   6    2.76    1.97
  -4 -10   6    1.45    1.21
 -14   7  -6    5.45    1.97
   7 -14  -6    6.00    1.59
  -7  -7   6    5.19    1.62
  14  -7   6    5.87    2.10
   4 -14  -6    2.71    1.52
 -14  10  -6    2.32    1.67
  14 -10   6    5.03    1.98
 -10  -4   6    2.14    1.64
 -15   6  -6    2.24    1.81
   9 -15  -6    2.63    1.62
  15  -6   6    3.18    1.91
  -6  -9   6    0.82    1.36
 -15   9  -6    2.84    1.74
   6 -15  -6    0.25    1.38
  -9  -6   6    0.89    1.60
  15  -9   6    2.16    1.97
   1  -1  -7  269.64    8.02
   0   1  -7  257.28    7.87
   0   1  -7  269.76    7.83
   1  -1  -7  259.08    8.01
  -1   0  -7  266.39    8.01
  -1   0  -7  267.57    7.95
  -1   1   7  253.03    7.98
   0  -1   7  275.00    7.87
   0  -1   7  270.03    7.90
  -1   1   7  277.33    8.06
   1   0   7  273.84    7.98
  -2  -1  -7  836.73   23.53
   3  -2  -7  804.11   23.47
  -2  -1  -7  819.59   23.44
   3  -2  -7  851.60   23.48
  -3   2   7  827.21   23.47
   2   1   7  788.69   23.52
   2   1   7  841.18   23.43
   1  -3   7  824.26   23.05
   1  -3   7  820.76   23.04
  -3   2   7  819.80   23.46
   2   0  -7  576.93   16.71
   2   0  -7  600.06   16.73
   0  -2  -7  564.84   16.86
   0  -2  -7  597.03   16.98
  -2   2  -7  572.69   16.59
  -2   2  -7  584.50   16.62
   2  -2   7  598.80   16.62
   0   2   7  572.97   16.94
  -2   0   7  599.84   16.71
  -2   0   7  581.08   16.71
   2  -2   7  582.73   16.64
   0   2   7  587.08   16.86
   5  -3  -7  265.20    8.54
  -3  -2  -7  272.64    8.58
  -3  -2  -7  262.64    8.46
   5  -3  -7  287.95    8.58
  -5   3   7  283.01    8.56
   3   2   7  276.58    8.46
   3   2   7  271.76    8.61
  -5   3   7  274.62    8.54
   1   2  -7  412.61   11.58
  -3   1  -7  393.72   11.83
   1   2  -7  410.00   11.55
   2  -3  -7  403.00   11.93
   2  -3  -7  400.03   12.00
  -3   1  -7  408.65   11.92
   3  -1   7  400.25   11.85
  -2   3   7  409.26   12.02
  -2   3   7  402.43   11.94
  -1  -2   7  420.74   11.60
  -1  -2   7  409.52   11.60
   3  -1   7  390.75   11.90
   4  -1  -7  567.47   16.43
  -1  -3  -7  554.96   16.40
   4  -1  -7  577.16   16.45
  -1  -3  -7  596.20   16.61
  -3   4  -7  542.65   15.99
  -3   4  -7  548.74   16.01
   1   3   7  567.51   16.38
   3  -4   7  565.47   16.09
   3  -4   7  565.93   16.06
  -4   1   7  574.70   16.44
  -4   1   7  555.23   16.41
   1   3   7  575.63   16.61
   7  -4  -7  186.33    6.63
  -4  -3  -7  203.04    6.66
  -4  -3  -7  193.87    6.52
   7  -4  -7  201.00    6.65
  -7   4   7  194.53    6.60
  -7   4   7  191.10    6.63
   4   3   7  194.86    6.68
   4   3   7  190.76    6.43
  -4   0  -7  209.74    6.80
   4  -4  -7  216.55    6.84
  -4   0  -7  218.75    6.92
  -4   4   7  214.12    6.81
   4   0   7  215.60    6.92
   0  -4   7  210.91    6.14
   4   0   7  219.09    6.83
  -4   4   7  210.02    6.84
   3   1  -7  668.02   19.02
   3   1  -7  660.68   19.03
   1  -4  -7  703.78   19.36
  -4   3  -7  644.95   19.01
   1  -4  -7  641.11   19.27
  -4   3  -7  661.47   19.05
  -1   4   7  652.52   19.21
  -1   4   7  675.92   19.24
   4  -3   7  677.16   19.04
  -3  -1   7  667.40   19.03
  -3  -1   7  684.11   19.05
   4  -3   7  646.70   19.06
   6  -2  -7  333.74   10.45
  -2  -4  -7  335.87   10.38
  -4   6  -7  341.57    9.70
  -2  -4  -7  331.67   10.29
   6  -2  -7  350.28   10.42
   4  -6   7  321.07    9.83
   2   4   7  329.86   10.20
   2   4   7  341.08   10.52
  -6   2   7  345.29   10.44
  -6   2   7  339.42   10.43
   4  -6   7  341.65    9.82
  -5  -4  -7  154.17    5.84
   9  -5  -7  168.05    6.34
  -5  -4  -7  162.29    5.94
   9  -5  -7  160.97    6.14
   4  -9   7  160.72    4.92
   4  -9   7  159.21    4.90
   5   4   7  160.46    6.08
  -9   5   7  163.72    6.06
  -5  -1  -7  380.13   11.38
  -5  -1  -7  367.73   11.30
   6  -5  -7  361.45   11.31
   6  -5  -7  365.29   11.27
  -6   5   7  367.82   11.29
  -6   5   7  365.17   11.29
   5   1   7  374.67   11.42
   5   1   7  363.06   11.23
   3  -5  -7  248.04    7.43
  -5   2  -7  221.72    7.38
   3  -5  -7  239.46    7.46
  -5   2  -7  232.78    7.36
   2   3  -7  229.31    6.92
   2   3  -7  240.57    6.93
  -2  -3   7  233.36    6.97
  -2  -3   7  237.98    6.99
   5  -2   7  225.23    7.42
  -3   5   7  225.49    7.47
   5  -2   7  235.49    7.34
  -3   5   7  230.94    7.32
   5   0  -7  347.69   10.24
   5   0  -7  337.31   10.26
   0  -5  -7  335.59   10.29
  -5   5  -7  331.35    9.99
   0  -5  -7  344.29   10.44
  -5   5  -7  332.53    9.96
   0   5   7  338.77   10.36
  -5   0   7  334.78   10.24
  -5   0   7  340.64   10.26
   5  -5   7  328.42   10.06
   5  -5   7  339.10   10.01
   0   5   7  328.07   10.11
  -3  -5  -7  152.35    5.45
  -3  -5  -7  156.54    5.52
   8  -3  -7  146.67    5.62
   8  -3  -7  161.68    5.62
   5  -8   7  146.54    4.84
   5  -8   7  152.34    4.83
  -8   3   7  147.27    5.60
   3   5   7  152.60    5.67
  -8   3   7  146.81    5.59
   3   5   7  151.71    5.29
  -6  -5  -7   93.06    4.22
  11  -6  -7   83.70    4.42
  -6  -5  -7   85.68    4.16
   5 -11   7   85.17    3.07
   6   5   7   86.86    4.41
 -11   6   7   91.29    4.47
   5 -11   7   89.69    3.17
  -6  -2  -7  152.71    5.71
   8  -6  -7  161.42    5.78
   8  -6  -7  156.70    5.84
  -6  -2  -7  156.43    5.80
  -8   6   7  158.68    5.79
   6   2   7  158.76    5.86
  -8   6   7  149.84    5.71
   6   2   7  162.17    5.67
  -6   1  -7  231.17    7.41
   5  -6  -7  229.82    7.34
   5  -6  -7  227.99    7.27
  -6   1  -7  219.34    7.33
  -5   6   7  219.66    7.21
  -1  -5   7  215.32    6.58
   6  -1   7  221.89    7.43
   6  -1   7  228.91    7.33
  -1  -5   7  226.40    6.61
  -5   6   7  223.41    7.32
   2  -6  -7  283.22    9.32
   4   2  -7  307.36    9.06
   4   2  -7  299.80    9.10
  -6   4  -7  292.55    9.17
  -6   4  -7  299.67    9.22
   2  -6  -7  323.48    9.46
  -2   6   7  308.97    9.29
  -4  -2   7  303.01    9.10
  -4  -2   7  284.09    9.05
   6  -4   7  298.32    9.29
  -2   6   7  284.51    9.14
   6  -4   7  304.98    9.21
   7  -1  -7  151.61    5.41
   7  -1  -7  157.01    5.59
  -1  -6  -7  156.78    5.50
  -6   7  -7  154.20    4.94
  -6   7  -7  157.23    5.00
  -1  -6  -7  148.58    5.34
   1   6   7  153.18    5.16
   6  -7   7  149.20    5.02
   1   6   7  146.10    5.50
  -7   1   7  154.45    5.50
  -7   1   7  145.74    5.42
   6  -7   7  147.38    5.08
  10  -4  -7  143.67    5.89
  -4  -6  -7  149.84    5.61
  -4  -6  -7  146.59    5.57
   4   6   7  149.21    5.80
 -10   4   7  145.93    5.84
   6 -10   7  142.46    4.82
   6 -10   7  137.41    4.77
  -7  -6  -7   48.39    3.51
  13  -7  -7   46.96    3.82
   7   6   7   49.96    3.65
 -13   7   7   53.36    3.82
   6 -13   7   53.66    2.31
  10  -7  -7   77.74    4.19
  -7  -3  -7   89.15    4.16
  -7  -3  -7   89.02    4.14
 -10   7   7   93.73    4.30
   7  -7  -7  198.75    7.21
   7  -7  -7  224.98    7.27
  -7   0  -7  220.83    7.39
  -7   0  -7  214.96    7.35
   7   0   7  220.01    7.26
   7   0   7  211.53    7.42
  -7   7   7  220.32    7.27
  -7   7   7  205.20    7.21
   4  -7  -7  216.26    6.95
   4  -7  -7  203.42    6.95
  -7   3  -7  208.80    7.00
   3   4  -7  220.68    6.47
   3   4  -7  207.13    6.48
  -7   3  -7  214.37    7.07
   7  -3   7  220.09    7.02
   7  -3   7  192.21    7.01
  -4   7   7  209.04    7.05
  -3  -4   7  211.88    6.55
  -3  -4   7  216.94    6.58
  -4   7   7  205.66    6.79
   1  -7  -7  196.00    6.82
   6   1  -7  204.38    6.79
   6   1  -7  201.20    6.65
  -7   6  -7  205.63    6.61
   1  -7  -7  199.88    6.89
  -7   6  -7  208.86    6.59
  -1   7   7  189.38    6.59
   7  -6   7  200.90    6.69
  -6  -1   7  195.11    6.70
   7  -6   7  204.16    6.61
  -1   7   7  206.24    6.51
  -6  -1   7  206.17    6.73
  -2  -7  -7  137.75    5.24
  -2  -7  -7  147.24    5.35
  -7   9  -7  134.18    4.66
   9  -2  -7  148.49    5.64
  -7   9  -7  134.98    4.57
   7  -9   7  136.97    4.79
   2   7   7  139.28    5.43
   2   7   7  134.33    4.93
  -9   2   7  142.98    5.54
   7  -9   7  138.08    4.88
  -5  -7  -7   79.07    3.98
  12  -5  -7   79.57    4.50
  -5  -7  -7   79.75    4.14
   7 -12   7   81.72    3.28
   5   7   7   74.42    4.26
   7 -12   7   82.76    3.27
 -12   5   7   77.37    4.32
  15  -8  -7   20.99    3.03
  -8  -7  -7   21.99    2.82
 -15   8   7   24.16    3.06
  12  -8  -7   50.79    3.67
  -8  -4  -7   53.64    3.52
 -12   8   7   50.85    3.56
   8   4   7   52.88    3.64
   9  -8  -7  115.67    5.07
  -8  -1  -7  122.50    5.17
   9  -8  -7  133.99    5.12
   8   1   7  127.39    5.39
  -9   8   7  129.07    5.11
  -8   2  -7  221.04    7.34
  -8   2  -7  209.98    7.26
   6  -8  -7  209.07    7.06
   6  -8  -7  205.36    7.12
   8  -2   7  200.06    7.34
  -2  -6   7  208.60    6.46
  -6   8   7  205.06    7.17
   8  -2   7  217.23    7.26
  -2  -6   7  210.13    6.46
  -6   8   7  216.66    7.04
   3  -8  -7  211.88    7.25
   5   3  -7  212.31    7.03
   5   3  -7  220.48    6.95
  -8   5  -7  206.28    7.21
   3  -8  -7  216.21    7.31
  -8   5  -7  218.43    7.24
   8  -5   7  207.63    7.29
  -5  -3   7  221.42    7.06
  -3   8   7  243.51    7.20
  -5  -3   7  209.29    7.02
  -3   8   7  212.93    6.97
   8  -5   7  219.47    7.25
  -8   8  -7  166.01    5.87
  -8   8  -7  165.25    5.81
   0  -8  -7  184.32    6.26
   8   0  -7  172.43    6.36
   0  -8  -7  177.23    6.25
  -8   0   7  175.21    6.26
   8  -8   7  167.79    6.02
   0   8   7  176.23    6.04
  -8   0   7  178.05    6.33
   8  -8   7  173.52    5.96
   0   8   7  170.05    5.77
  11  -3  -7   89.03    4.57
  -3  -8  -7   84.17    4.00
  -8  11  -7   86.73    3.08
  -8  11  -7   85.03    3.26
  -3  -8  -7   92.66    4.18
 -11   3   7   82.18    4.43
   3   8   7   79.35    4.18
   8 -11   7   89.39    3.65
   8 -11   7   87.77    3.57
  14  -6  -7   40.68    3.77
  -6  -8  -7   43.14    3.52
 -14   6   7   50.02    3.91
   8 -14   7   46.44    2.56
  14  -9  -7   40.21    3.66
  -9  -5  -7   44.40    3.59
   9   5   7   35.95    3.42
 -14   9   7   36.92    3.50
  11  -9  -7   51.79    3.49
  -9  -2  -7   53.67    3.53
 -11   9   7   52.80    3.40
   9   2   7   51.55    3.56
  -9   1  -7  248.94    8.59
   8  -9  -7  250.16    8.37
   8  -9  -7  244.60    8.46
  -8   9   7  245.24    8.32
  -1  -8   7  249.79    7.48
   9  -1   7  254.41    8.75
  -1  -8   7  250.51    7.47
   5  -9  -7  164.46    5.90
   5  -9  -7  163.52    5.86
   4   5  -7  169.79    5.34
   4   5  -7  163.93    5.41
  -9   4  -7  171.06    6.10
   9  -4   7  156.96    6.10
  -4  -5   7  158.29    5.47
  -5   9   7  164.62    5.66
   9  -4   7  159.32    5.97
  -4  -5   7  164.05    5.52
  -5   9   7  161.09    5.92
  -9   7  -7  132.36    4.98
   2  -9  -7  120.35    5.07
   2  -9  -7  125.80    5.06
   7   2  -7  142.86    5.14
   9  -7   7  121.90    5.03
  -2   9   7  129.15    4.67
  -2   9   7  132.74    4.64
   9  -7   7  132.43    4.97
  -7  -2   7  139.17    5.04
  -7  -2   7  128.04    5.01
  10  -1  -7   69.81    3.89
  -1  -9  -7   72.26    3.69
  -1  -9  -7   68.61    3.48
  -9  10  -7   65.04    3.01
   1   9   7   63.44    3.36
 -10   1   7   68.14    3.76
   9 -10   7   70.06    3.26
   9 -10   7   66.48    3.39
  13  -4  -7   31.16    3.30
  -4  -9  -7   28.90    2.79
   9 -13   7   30.48    2.36
 -13   4   7   25.90    2.97
  13 -10  -7   37.60    3.51
 -10  -3  -7   49.45    3.62
 -13  10   7   44.82    3.50
 -10   0  -7   83.92    4.29
  10 -10  -7   74.31    4.06
   0 -10   7   71.71    2.84
  10   0   7   80.94    4.36
 -10  10   7   77.88    3.96
   7 -10  -7   69.01    3.42
   7 -10  -7   68.79    3.54
 -10   3  -7   70.57    3.79
  -3  -7   7   71.60    2.93
  -7  10   7   67.95    3.29
  -3  -7   7   69.94    2.97
  10  -3   7   65.09    3.86
   6   4  -7  105.93    4.23
 -10   6  -7  104.19    4.49
   4 -10  -7  106.56    4.41
   4 -10  -7  103.28    4.48
  -4  10   7  102.02    3.98
  -6  -4   7  103.13    4.24
  -4  10   7  102.49    4.09
  10  -6   7  104.40    4.45
  10  -6   7  109.01    4.67
  -6  -4   7  100.59    4.17
   1 -10  -7  102.05    4.59
 -10   9  -7   99.61    4.20
   9   1  -7  102.29    4.62
   1 -10  -7  110.16    4.48
  10  -9   7   90.54    4.38
  10  -9   7  103.41    4.33
  -9  -1   7  103.33    4.60
  -1  10   7   95.48    3.91
  -9  -1   7  107.03    4.69
  -2 -10  -7   53.92    3.57
  12  -2  -7   49.93    3.79
 -12   2   7   44.14    3.61
  10 -12   7   54.70    3.18
  15  -5  -7   21.26    3.08
  -5 -10  -7   24.73    2.77
  10 -15   7   25.50    2.28
 -15   5   7   23.83    3.09
 -11  -4  -7   23.04    2.93
 -15  11   7   23.60    2.94
 -11  -1  -7   44.54    3.63
  12 -11  -7   45.42    3.56
 -12  11   7   48.25    3.46
  11   1   7   46.43    3.78
   9 -11  -7   75.39    3.92
   9 -11  -7   69.96    3.76
 -11   2  -7   78.88    4.14
  -2  -9   7   71.74    2.95
  -2  -9   7   77.60    3.08
  11  -2   7   63.37    4.17
  -9  11   7   79.55    3.70
   5   6  -7   75.50    3.05
   6 -11  -7   74.16    3.67
   6 -11  -7   75.73    3.67
 -11   5  -7   74.35    3.94
  11  -5   7   68.93    4.07
  -5  -6   7   72.46    3.33
  -5  -6   7   73.57    3.39
  -6  11   7   72.18    3.32
   8   3  -7   56.92    3.26
   3 -11  -7   59.67    3.30
 -11   8  -7   52.41    3.19
   3 -11  -7   51.24    3.21
  -8  -3   7   56.09    3.28
  -3  11   7   54.15    2.65
  11  -8   7   48.80    3.31
  -8  -3   7   55.40    3.16
  11  -8   7   55.29    3.21
   0 -11  -7   54.20    3.64
  11   0  -7   58.05    3.85
  11 -11   7   54.61    3.43
 -11   0   7   56.39    3.71
  11 -11   7   60.42    3.37
  -3 -11  -7   25.95    2.77
  14  -3  -7   28.36    3.30
 -14   3   7   29.52    3.13
  11 -14   7   27.55    2.56
 -12  -2  -7   25.83    3.15
  14 -12  -7   24.47    3.14
  11 -12  -7   33.22    3.07
 -12   1  -7   35.22    3.22
  12  -1   7   31.94    3.29
 -11  12   7   32.25    2.75
  -1 -11   7   33.94    2.12
   8 -12  -7   58.65    3.33
 -12   4  -7   51.35    3.67
   8 -12  -7   52.11    3.36
  12  -4   7   59.84    3.97
  -8  12   7   61.38    3.16
  -4  -8   7   53.51    2.92
  -4  -8   7   60.01    2.87
   5 -12  -7   71.94    3.89
   5 -12  -7   75.06    3.77
 -12   7  -7   73.68    4.03
   7   5  -7   74.46    3.66
  -7  -5   7   68.67    3.64
  12  -7   7   71.22    4.17
  -7  -5   7   81.36    3.70
  10   2  -7   60.79    3.86
 -12  10  -7   67.52    3.64
   2 -12  -7   62.30    3.74
 -10  -2   7   67.64    3.87
  12 -10   7   73.49    4.11
  -1 -12  -7   29.66    3.01
  13  -1  -7   29.56    3.14
  12 -13   7   33.77    3.00
 -13   1   7   29.39    3.13
  13 -13  -7   30.70    3.26
 -13   0  -7   31.93    3.44
  13   0   7   29.68    3.41
  10 -13  -7   27.73    2.81
 -13   3  -7   27.44    3.10
  13  -3   7   34.58    3.56
  -3 -10   7   32.06    2.26
 -13   6  -7   57.90    3.91
   7 -13  -7   65.81    3.65
  13  -6   7   61.59    4.18
  -6  -7   7   63.27    3.43
 -13   9  -7   56.15    3.64
   4 -13  -7   52.82    3.41
  13  -9   7   54.45    3.86
  -9  -4   7   60.78    3.59
   1 -13  -7   30.43    2.95
  12   1  -7   33.69    3.38
  13 -12   7   34.08    3.26
 -12  -1   7   37.61    3.36
 -14   2  -7   26.79    3.28
  12 -14  -7   23.37    2.85
  14  -2   7   23.63    3.15
  -2 -12   7   26.06    2.10
 -14   5  -7   44.54    3.80
   9 -14  -7   41.60    3.23
  14  -5   7   40.64    3.77
  -5  -9   7   47.20    2.92
 -14   8  -7   27.20    2.93
   6 -14  -7   34.10    2.81
  14  -8   7   40.29    3.72
  -8  -6   7   37.38    3.07
   3 -14  -7   36.96    3.00
  14 -11   7   25.31    3.04
 -11  -3   7   30.36    3.06
 -15   4  -7   24.34    3.26
  11 -15  -7   20.44    2.73
  15  -4   7   20.59    3.07
  -4 -11   7   22.34    2.22
   8 -15  -7   23.71    2.52
 -15   7  -7   21.89    2.85
  15  -7   7   29.39    3.43
  -7  -8   7   25.89    2.52
   5 -15  -7   29.15    2.70
  15 -10   7   23.23    3.02
 -10  -5   7   31.82    3.13
   0  -1  -8   24.85    1.83
   1   0  -8   29.73    1.66
  -1   1  -8   29.22    1.64
   0  -1  -8   29.04    1.94
   1   0  -8   27.49    1.67
  -1   1  -8   29.34    1.62
   0   1   8   30.45    1.97
  -1   0   8   27.01    1.67
   1  -1   8   27.18    1.66
   1  -1   8   31.45    1.64
   0   1   8   28.45    1.88
  -1   0   8   29.38    1.68
   0   2  -8   25.26    1.27
  -2   0  -8   27.64    1.83
  -2   0  -8   28.75    1.64
   0   2  -8   25.40    1.43
   2  -2  -8   28.69    1.75
   2  -2  -8   25.12    1.83
   2   0   8   25.49    1.73
   2   0   8   29.34    1.76
   0  -2   8   26.95    1.54
   0  -2   8   27.33    1.45
  -2   2   8   26.46    1.82
  -2   2   8   28.70    1.89
  -1  -2  -8   34.86    1.90
  -2   3  -8   35.55    1.55
  -1  -2  -8   36.57    2.22
   3  -1  -8   35.73    1.93
   3  -1  -8   31.44    1.80
  -2   3  -8   34.07    1.50
  -3   1   8   35.62    1.95
   2  -3   8   32.93    1.56
  -3   1   8   32.00    1.89
   1   2   8   38.55    1.96
   1   2   8   35.74    2.18
   2  -3   8   33.04    1.56
   4  -3  -8   85.70    3.34
   4  -3  -8   81.64    3.35
  -3  -1  -8   82.00    3.26
  -3  -1  -8   85.81    3.45
   3   1   8   82.79    3.42
  -4   3   8   85.86    3.35
   3   1   8   83.47    3.30
   1  -4   8   84.97    2.69
  -4   3   8   86.60    3.33
   1  -4   8   84.99    2.69
   2   1  -8    3.38    0.76
  -3   2  -8    2.44    0.85
   1  -3  -8    3.36    1.11
   1  -3  -8    4.32    1.11
   2   1  -8    2.73    0.77
  -3   2  -8    2.52    0.77
  -2  -1   8    2.98    0.78
   3  -2   8    3.08    0.91
   3  -2   8    2.33    0.82
  -1   3   8    2.45    1.02
  -1   3   8    2.65    1.01
  -2  -1   8    3.79    0.83
   5  -2  -8   16.05    1.51
  -3   5  -8   14.93    0.89
  -3   5  -8   14.98    0.86
   5  -2  -8   14.72    1.44
  -2  -3  -8   15.79    1.47
  -5   2   8   14.33    1.42
   3  -5   8   13.66    0.98
  -5   2   8   13.72    1.43
   2   3   8   13.54    1.57
   2   3   8   16.69    1.49
   3  -5   8   15.01    1.07
  -4  -2  -8    2.45    1.03
   6  -4  -8    3.29    1.12
  -4  -2  -8    1.12    1.10
   6  -4  -8    0.42    0.98
   4   2   8    2.02    1.07
  -6   4   8    2.08    0.99
   4   2   8    1.56    0.95
  -6   4   8    1.17    1.03
  -4   1  -8   25.08    1.72
   3  -4  -8   28.72    1.94
   3  -4  -8   24.09    1.83
   1   3  -8   25.54    1.27
  -4   1  -8   23.31    1.75
   4  -1   8   26.87    1.82
   4  -1   8   28.19    1.85
  -1  -3   8   24.71    1.31
  -1  -3   8   26.21    1.33
  -3   4   8   26.03    2.00
  -3   4   8   23.13    1.78
  -4   4  -8    5.32    0.89
   0  -4  -8    5.32    1.29
   0  -4  -8    3.79    1.08
   4   0  -8    4.09    1.00
  -4   4  -8    4.38    0.81
   4   0  -8    6.08    1.03
   0   4   8    6.43    1.10
   4  -4   8    4.19    0.87
   4  -4   8    7.55    0.98
   0   4   8    3.80    1.15
  -4   0   8    8.06    1.12
  -4   0   8    4.40    1.01
  -3  -4  -8    2.82    1.05
  -3  -4  -8    4.35    1.25
   7  -3  -8    5.25    1.29
   7  -3  -8    3.72    1.15
  -7   3   8    5.82    1.29
   4  -7   8    5.65    0.75
   3   4   8    5.62    1.36
   4  -7   8    3.30    0.71
   3   4   8    4.37    1.05
  -7   3   8    2.97    1.12
   8  -5  -8    1.09    1.11
  -5  -3  -8    1.10    1.04
   8  -5  -8    0.22    1.12
  -5  -3  -8    0.38    1.05
   5   3   8    0.40    0.97
  -8   5   8    2.52    1.24
  -8   5   8    1.84    1.11
   5   3   8    0.17    1.13
  -5   0  -8   15.77    1.65
  -5   0  -8   18.06    1.62
   5  -5  -8   17.34    1.66
   5  -5  -8   15.95    1.60
   0  -5   8   16.08    0.88
   5   0   8   16.70    1.61
  -5   5   8   17.20    1.65
  -5   5   8   14.13    1.52
   5   0   8   17.84    1.69
   3   2  -8    6.67    0.95
  -5   3  -8    7.19    1.08
   3   2  -8    6.52    0.94
  -5   3  -8    5.00    1.02
   2  -5  -8    5.03    1.25
   2  -5  -8    6.91    1.34
   5  -3   8    6.82    1.18
  -2   5   8    5.31    1.13
  -3  -2   8    6.42    0.98
  -3  -2   8    5.18    0.91
   5  -3   8    7.56    1.13
  -2   5   8    5.86    1.20
  -1  -5  -8   16.64    1.70
  -1  -5  -8   13.91    1.48
  -5   6  -8   15.87    1.26
   6  -1  -8   17.47    1.61
  -5   6  -8   16.77    1.23
   6  -1  -8   18.82    1.74
   1   5   8   16.35    1.49
   5  -6   8   18.76    1.36
   5  -6   8   15.55    1.32
   1   5   8   18.04    1.83
  -6   1   8   18.82    1.73
  -6   1   8   17.26    1.66
  -4  -5  -8    8.62    1.55
   9  -4  -8    8.59    1.62
  -4  -5  -8    6.74    1.47
   5  -9   8    7.34    0.96
   4   5   8    8.13    1.62
  -9   4   8    8.60    1.65
   5  -9   8    7.62    0.95
  -6  -4  -8    6.54    1.55
  -6  -4  -8    7.96    1.59
  10  -6  -8   10.07    1.86
 -10   6   8    7.68    1.71
   6   4   8    6.50    1.72
  -6  -1  -8   -1.65    0.92
   7  -6  -8   -0.81    0.97
  -6  -1  -8    0.27    1.04
   7  -6  -8   -0.25    0.99
   6   1   8    0.49    1.09
   6   1   8   -0.32    0.84
  -7   6   8    1.34    1.00
  -7   6   8    2.25    1.12
   4  -6  -8   26.05    2.01
  -6   2  -8   21.44    1.77
   2   4  -8   23.93    1.27
  -6   2  -8   27.08    2.01
   4  -6  -8   27.31    2.01
  -2  -4   8   25.25    1.42
  -4   6   8   24.62    1.96
   6  -2   8   26.13    1.95
   6  -2   8   24.50    2.06
  -4   6   8   23.68    1.86
  -2  -4   8   26.74    1.47
   5   1  -8   22.15    1.74
  -6   5  -8   19.95    1.62
   1  -6  -8   21.37    1.97
  -6   5  -8   20.17    1.65
   1  -6  -8   25.97    2.07
   5   1  -8   22.48    1.83
   6  -5   8   24.07    1.75
  -5  -1   8   22.78    1.74
  -5  -1   8   21.82    1.78
   6  -5   8   19.29    1.62
  -1   6   8   23.65    1.86
  -1   6   8   22.67    1.80
  -2  -6  -8   22.80    2.05
   8  -2  -8   19.20    2.06
  -6   8  -8   18.05    1.39
  -6   8  -8   18.55    1.26
  -2  -6  -8   18.51    1.89
  -8   2   8   20.51    2.03
   2   6   8   22.10    1.79
  -8   2   8   21.12    2.02
   6  -8   8   20.22    1.56
   2   6   8   20.87    2.14
   6  -8   8   19.94    1.50
  -5  -6  -8    7.26    1.62
  -5  -6  -8    2.92    1.43
  11  -5  -8    3.84    1.59
 -11   5   8    5.64    1.74
   5   6   8    2.57    1.57
   6 -11   8    4.02    0.94
   6 -11   8    5.18    0.97
  12  -7  -8    3.32    1.71
  -7  -5  -8    4.28    1.60
   7   5   8    5.80    1.82
 -12   7   8    6.42    1.79
   9  -7  -8   -0.18    1.12
   9  -7  -8   -0.56    1.11
  -7  -2  -8   -0.67    1.20
  -7  -2  -8   -0.98    1.15
  -9   7   8    1.10    1.28
   6  -7  -8   10.44    1.47
  -7   1  -8    9.55    1.49
  -7   1  -8   12.05    1.60
   6  -7  -8    9.52    1.40
  -6   7   8    9.59    1.52
   7  -1   8   11.41    1.52
  -1  -6   8   10.95    0.89
   7  -1   8    9.77    1.54
  -1  -6   8   11.10    0.90
  -6   7   8   13.48    1.57
   4   3  -8    6.38    1.04
   3  -7  -8    5.24    1.26
  -7   4  -8    7.84    1.27
   4   3  -8    7.27    1.07
   3  -7  -8    8.28    1.46
  -7   4  -8    8.28    1.32
  -3   7   8    5.94    1.29
  -4  -3   8    7.84    1.10
  -3   7   8    7.27    1.21
  -4  -3   8    7.13    1.08
   7  -4   8    6.66    1.23
   7  -4   8    7.87    1.34
  -7   7  -8   -0.06    0.89
   7   0  -8    0.79    1.12
   0  -7  -8    0.40    1.10
   7   0  -8    1.32    0.99
   0  -7  -8   -1.40    1.03
  -7   7  -8    0.36    0.82
  -7   0   8   -0.45    1.02
   7  -7   8    0.17    0.91
  -7   0   8   -0.73    1.03
   0   7   8   -0.27    0.87
   0   7   8    1.32    1.14
   7  -7   8   -0.13    0.86
  10  -3  -8    9.15    1.85
  -7  10  -8   10.14    1.03
  -3  -7  -8   11.56    1.73
  -7  10  -8    8.92    0.87
  -3  -7  -8   12.67    1.71
   7 -10   8    9.09    1.22
   7 -10   8    9.38    1.33
   3   7   8   10.10    1.83
 -10   3   8    9.51    1.83
  13  -6  -8   -0.41    1.56
  -6  -7  -8    0.19    1.51
   7 -13   8    1.60    0.94
 -13   6   8    1.54    1.76
   6   7   8    3.33    1.68
  -8  -6  -8    0.52    1.62
  14  -8  -8   -0.30    1.65
 -14   8   8    0.75    1.70
  -8  -3  -8    2.86    1.45
  11  -8  -8    3.82    1.58
 -11   8   8    1.27    1.50
   8   3   8    1.13    1.51
  -8   0  -8   21.84    2.20
   8  -8  -8   20.58    2.10
   8  -8  -8   27.22    2.29
  -8   8   8   22.05    2.10
   8   0   8   23.65    2.39
   5  -8  -8    0.09    0.98
  -8   3  -8   -1.28    1.02
  -8   3  -8   -0.68    1.01
   3   5  -8   -0.47    0.62
   3   5  -8    0.24    0.63
   5  -8  -8    1.14    1.05
  -5   8   8    0.36    1.02
   8  -3   8    1.96    1.11
  -5   8   8    0.05    1.12
   8  -3   8   -0.46    1.12
  -3  -5   8    1.23    0.82
  -3  -5   8   -0.31    0.74
  -8   6  -8   12.71    1.57
  -8   6  -8   11.54    1.49
   6   2  -8   14.76    1.53
   6   2  -8   15.37    1.69
   2  -8  -8   10.48    1.61
   2  -8  -8   11.57    1.67
  -2   8   8   14.75    1.55
  -6  -2   8   16.12    1.67
  -2   8   8   13.63    1.52
  -6  -2   8   12.22    1.50
   8  -6   8   13.19    1.63
   8  -6   8   15.43    1.66
  -8   9  -8   -0.07    0.87
   9  -1  -8    0.30    1.31
  -8   9  -8    1.20    0.94
  -1  -8  -8    1.45    1.31
   8  -9   8   -0.34    1.02
   8  -9   8    0.58    0.95
  -9   1   8    0.64    1.31
  -9   1   8   -0.65    1.19
   1   8   8    0.85    1.25
  12  -4  -8   -0.85    1.37
  -4  -8  -8   -0.74    1.17
  -4  -8  -8   -1.73    1.29
   8 -12   8    0.73    1.07
   8 -12   8    0.36    1.04
 -12   4   8    0.55    1.57
   4   8   8   -0.67    1.48
  -7  -8  -8    0.28    1.68
  15  -7  -8    3.74    2.04
 -15   7   8   -0.49    1.72
   8 -15   8    1.71    1.07
  13  -9  -8    5.04    1.92
  -9  -4  -8    6.12    1.88
 -13   9   8    3.13    1.79
   9   4   8    3.73    1.85
  -9  -1  -8    0.95    1.43
  10  -9  -8    4.50    1.56
   9   1   8    4.76    1.68
 -10   9   8    3.37    1.51
  -9   2  -8    9.03    1.65
   7  -9  -8    6.13    1.39
   7  -9  -8    4.31    1.38
  -2  -7   8    4.22    0.92
   9  -2   8    4.02    1.48
  -7   9   8    4.55    1.33
  -2  -7   8    4.79    0.93
   5   4  -8    2.70    1.00
   5   4  -8    2.13    0.90
  -9   5  -8    1.74    1.17
   4  -9  -8    1.39    1.21
   4  -9  -8    1.46    1.28
  -4   9   8    1.93    1.06
   9  -5   8    1.48    1.25
  -5  -4   8    1.81    1.00
   9  -5   8    3.08    1.18
  -5  -4   8    1.61    0.99
  -4   9   8    1.12    1.10
   1  -9  -8   -2.11    1.11
   1  -9  -8    0.22    1.33
   8   1  -8   -0.79    1.19
  -9   8  -8   -0.19    1.02
   9  -8   8    0.31    1.02
  -1   9   8    0.92    1.08
  -8  -1   8    0.75    1.17
  -1   9   8    0.63    0.88
   9  -8   8   -0.72    1.09
  -8  -1   8    2.33    1.21
  -2  -9  -8    3.64    1.45
  -2  -9  -8    6.20    1.74
  11  -2  -8    4.75    1.72
   9 -11   8    6.47    1.32
   9 -11   8    6.61    1.40
   2   9   8    4.25    1.52
 -11   2   8    7.41    1.80
  14  -5  -8   -1.03    1.59
  -5  -9  -8    0.37    1.57
 -14   5   8    0.65    1.75
   9 -14   8   -0.92    1.13
 -10  -5  -8   -0.24    1.72
  15 -10  -8   -1.08    1.81
 -15  10   8    4.40    1.95
 -10  -2  -8   -0.61    1.46
  12 -10  -8    2.36    1.58
 -12  10   8   -2.44    1.40
 -10   1  -8    1.15    1.43
   9 -10  -8    0.65    1.34
   9 -10  -8    0.78    1.22
  -1  -9   8    0.40    0.73
  -1  -9   8    0.64    0.71
  -9  10   8   -0.49    1.16
  10  -1   8    0.04    1.40
 -10   4  -8   -0.97    1.19
   6 -10  -8    0.82    1.17
   6 -10  -8    1.88    1.24
   4   6  -8    1.08    0.80
   4   6  -8    0.62    0.76
  -4  -6   8    1.20    0.98
  -4  -6   8    1.96    0.99
  10  -4   8    1.39    1.47
  -6  10   8    0.31    1.11
   3 -10  -8    4.71    1.56
 -10   7  -8    5.06    1.47
   3 -10  -8    5.76    1.58
   7   3  -8    5.07    1.39
  -7  -3   8    3.44    1.29
  -3  10   8    4.82    1.31
  -7  -3   8    3.99    1.31
  10  -7   8    6.23    1.44
  -3  10   8    6.76    1.28
  10  -7   8    4.16    1.44
   0 -10  -8    5.99    1.71
 -10  10  -8    4.51    1.28
  10   0  -8    4.24    1.71
  10 -10   8    1.50    1.39
  10 -10   8    3.38    1.29
 -10   0   8    2.81    1.45
   0  10   8    6.06    1.36
  -3 -10  -8    1.51    1.61
  13  -3  -8    2.15    1.69
 -13   3   8   -0.07    1.64
  10 -13   8   -0.12    1.25
  14 -11  -8   -0.60    1.72
 -11  -3  -8    2.52    1.82
 -14  11   8    0.74    1.69
  11   3   8    4.20    2.08
 -11   0  -8    0.01    1.56
  11 -11  -8    0.00    1.37
 -11  11   8    3.05    1.57
  11   0   8    2.16    1.76
   8 -11  -8    1.00    1.36
 -11   3  -8    1.11    1.53
   8 -11  -8    0.55    1.13
  -8  11   8    1.90    1.23
  -3  -8   8    1.74    0.99
  11  -3   8    1.38    1.46
  -3  -8   8    0.07    0.89
   6   5  -8    1.91    1.11
   5 -11  -8   -0.30    1.18
   5 -11  -8    0.29    1.21
 -11   6  -8    1.74    1.33
  -6  -5   8    2.22    1.12
  -6  -5   8    0.34    1.10
  11  -6   8    0.39    1.45
  -5  11   8    1.12    1.06
   2 -11  -8   12.63    1.94
   9   2  -8   15.03    2.07
   2 -11  -8   11.65    1.93
 -11   9  -8   12.89    1.87
  11  -9   8   13.35    2.03
  -9  -2   8   14.58    2.04
  11  -9   8   11.29    1.71
  -2  11   8    9.84    1.40
  12  -1  -8    0.82    1.58
  -1 -11  -8    1.87    1.65
  11 -12   8   -1.14    1.31
 -12   1   8    1.66    1.58
 -12  -1  -8    0.59    1.81
  13 -12  -8    0.41    1.65
 -13  12   8    3.22    1.72
  12   1   8    3.84    1.98
  10 -12  -8   -1.45    1.32
 -12   2  -8    3.10    1.68
 -10  12   8    1.74    1.35
  12  -2   8    3.94    1.84
  -2 -10   8    2.49    1.04
   7 -12  -8    9.46    1.79
   7 -12  -8    7.57    1.71
 -12   5  -8    7.34    1.83
   5   7  -8    9.43    1.16
  12  -5   8    8.17    2.04
  -7  12   8   11.01    1.62
  -5  -7   8   10.46    1.52
  -5  -7   8   10.54    1.56
   4 -12  -8   -0.51    1.30
   8   4  -8    2.35    1.33
   4 -12  -8    2.36    1.47
 -12   8  -8    0.43    1.29
  12  -8   8    0.15    1.44
  -8  -4   8    2.90    1.43
  -8  -4   8   -1.02    1.21
  11   1  -8    2.89    1.67
   1 -12  -8    3.44    1.67
 -11  -1   8    0.88    1.50
  12 -11   8    2.03    1.63
  14  -2  -8   -1.14    1.73
  -2 -12  -8    0.47    1.69
 -14   2   8   -0.12    1.68
  12 -14   8    1.65    1.54
 -13   1  -8    0.29    1.74
  12 -13  -8    0.60    1.72
  13  -1   8    0.03    1.75
   9 -13  -8    6.13    1.75
 -13   4  -8    3.89    1.84
  13  -4   8    4.25    2.00
  -4  -9   8    5.70    1.35
 -13   7  -8    1.37    1.56
   6 -13  -8    1.67    1.46
  -7  -6   8    2.51    1.46
  13  -7   8    3.20    1.75
   3 -13  -8   -1.61    1.36
  10   3  -8    1.22    1.54
 -13  10  -8   -1.56    1.30
  13 -10   8    0.54    1.58
 -10  -3   8    0.27    1.57
  13   0  -8    1.78    1.73
   0 -13  -8    1.26    1.75
 -13   0   8   -0.40    1.58
  13 -13   8    1.99    1.72
 -14   3  -8    4.91    2.11
  11 -14  -8    1.67    1.66
  14  -3   8    1.34    1.92
  -3 -11   8   -0.47    1.15
 -14   6  -8    0.09    1.59
   8 -14  -8   -0.34    1.43
  14  -6   8   -0.08    1.73
  -6  -8   8    0.84    1.35
 -14   9  -8   -0.25    1.53
   5 -14  -8    0.95    1.47
  14  -9   8    1.44    1.81
  -9  -5   8    0.73    1.52
   2 -14  -8    0.95    1.61
  14 -12   8    0.04    1.78
 -12  -2   8   -0.41    1.70
 -15   5  -8   -0.61    1.86
  10 -15  -8    0.18    1.52
  15  -5   8   -3.04    1.71
  -5 -10   8   -1.35    1.21
 -15   8  -8    1.18    1.74
   7 -15  -8    0.85    1.48
  -8  -7   8    0.80    1.52
  15  -8   8   -1.54    1.71
   0   0  -9    1.82    0.98
   0   0  -9   -0.12    0.84
   0   0   9    0.99    0.97
   0   0   9    0.23    0.91
   2  -1  -9    1.71    0.88
  -1  -1  -9    0.75    0.85
  -1   2  -9    1.00    0.74
  -1  -1  -9    0.51    1.01
   2  -1  -9    1.28    0.91
   1  -2   9    0.37    0.72
   1  -2   9    1.41    0.82
  -2   1   9    1.09    0.87
   1   1   9   -0.65    0.89
   1   1   9    1.05    0.97
  -2   1   9    0.77    0.90
   1   1  -9    7.62    0.88
   1  -2  -9    4.89    1.18
   1   1  -9    6.90    0.98
   1  -2  -9    4.85    1.27
  -2   1  -9    6.40    0.92
  -2   1  -9    5.62    1.05
  -1   2   9    7.64    1.17
  -1   2   9    8.86    1.30
  -1  -1   9    8.87    0.99
  -1  -1   9    7.23    0.96
   2  -1   9    8.17    1.05
   2  -1   9    9.30    1.15
  -2   4  -9   10.04    0.70
  -2   4  -9   11.66    0.79
   4  -2  -9   10.67    1.30
  -2  -2  -9   12.67    1.27
   4  -2  -9   10.43    1.33
  -4   2   9   12.62    1.30
   2  -4   9   13.50    0.95
  -4   2   9    9.21    1.25
   2   2   9   14.87    1.38
   2   2   9   11.66    1.51
  -3   0  -9  197.19    6.35
   3  -3  -9  202.40    6.44
   0   3  -9  189.99    5.82
  -3   0  -9  201.44    6.44
   3  -3  -9  197.42    6.45
   3   0   9  206.05    6.38
   3   0   9  197.58    6.47
   0  -3   9  194.27    5.94
  -3   3   9  194.16    6.39
   0  -3   9  203.62    5.91
  -3   3   9  205.81    6.50
  -3   3  -9   46.36    2.02
  -3   3  -9   46.92    2.06
   0  -3  -9   52.00    2.73
   0  -3  -9   48.61    2.55
   3   0  -9   49.20    2.24
   3   0  -9   48.99    2.28
   3  -3   9   47.93    2.10
  -3   0   9   52.01    2.28
  -3   0   9   49.57    2.28
   3  -3   9   49.29    2.15
   0   3   9   48.29    2.48
   0   3   9   49.82    2.58
  -3  -3  -9   26.23    2.04
   6  -3  -9   21.08    1.86
  -3  -3  -9   18.95    1.70
   6  -3  -9   23.63    1.89
   3   3   9   24.83    2.16
   3   3   9   20.86    1.69
  -6   3   9   18.80    1.77
  -6   3   9   19.56    1.71
   3  -6   9   19.74    1.12
   3  -6   9   21.30    1.16
  -4  -1  -9   73.60    3.10
   5  -4  -9   68.54    3.14
  -4  -1  -9   70.03    3.28
   5  -4  -9   76.15    3.21
  -5   4   9   69.64    3.17
  -5   4   9   72.02    3.13
   4   1   9   75.54    3.14
   4   1   9   69.74    3.22
   2   2  -9  185.49    5.72
  -4   2  -9  179.26    6.02
   2  -4  -9  195.96    6.28
  -4   2  -9  179.12    5.95
   2   2  -9  192.07    5.75
   2  -4  -9  175.04    6.19
  -2  -2   9  197.76    5.81
   4  -2   9  185.46    6.06
  -2  -2   9  178.16    5.75
  -2   4   9  192.37    6.17
  -2   4   9  188.03    6.30
   4  -2   9  192.74    6.02
  -4   5  -9   -0.01    0.64
   5  -1  -9    1.84    1.02
  -4   5  -9    0.34    0.61
   5  -1  -9    2.39    0.98
  -1  -4  -9    0.33    0.93
  -1  -4  -9    0.89    1.11
   4  -5   9    0.29    0.73
  -5   1   9    1.17    0.93
   4  -5   9    0.60    0.74
  -5   1   9    0.45    0.91
   1   4   9    0.91    0.87
   1   4   9    2.02    1.19
   8  -4  -9   15.82    1.95
   8  -4  -9   17.46    1.82
  -4  -4  -9   15.68    1.78
  -4  -4  -9   14.59    1.69
  -8   4   9   14.78    1.84
   4   4   9   19.26    2.09
   4  -8   9   13.54    1.06
  -8   4   9   12.99    1.63
   4  -8   9   14.34    1.09
   4   4   9   16.35    1.66
   7  -5  -9   27.48    2.18
  -5  -2  -9   26.58    2.19
  -5  -2  -9   22.86    1.98
   7  -5  -9   23.67    2.24
  -7   5   9   25.73    2.16
   5   2   9   27.35    2.32
  -7   5   9   21.09    1.93
   5   2   9   21.67    1.88
   4  -5  -9    8.52    1.32
   4  -5  -9    8.16    1.34
  -5   1  -9    8.02    1.25
  -5   1  -9    6.86    1.29
  -4   5   9    7.57    1.25
  -4   5   9    7.95    1.31
   5  -1   9    6.97    1.27
   5  -1   9    6.97    1.22
  -1  -4   9    9.21    0.84
  -1  -4   9    8.31    0.81
   1  -5  -9   14.89    1.67
  -5   4  -9   17.71    1.44
   4   1  -9   16.74    1.39
   1  -5  -9   16.79    1.78
   4   1  -9   16.26    1.44
  -5   4  -9   14.70    1.34
  -4  -1   9   16.31    1.41
   5  -4   9   15.58    1.38
  -4  -1   9   15.48    1.42
   5  -4   9   12.34    1.32
  -1   5   9   18.18    1.70
  -1   5   9   16.67    1.61
   7  -2  -9    9.09    1.51
  -2  -5  -9    7.61    1.29
  -5   7  -9    6.86    0.82
   7  -2  -9    5.79    1.24
   5  -7   9    5.65    0.94
   2   5   9    7.88    1.57
   5  -7   9    6.20    0.93
   2   5   9    4.45    1.08
  -7   2   9    4.69    1.23
  -7   2   9    9.32    1.42
  -5  -5  -9    2.69    1.43
  10  -5  -9    2.53    1.52
  -5  -5  -9    1.21    1.28
   5 -10   9    1.46    0.74
   5   5   9    1.18    1.45
   5 -10   9    4.17    0.81
 -10   5   9    4.57    1.61
  -6  -3  -9    2.50    1.33
   9  -6  -9    6.43    1.58
  -6  -3  -9    8.18    1.56
  -9   6   9    6.66    1.58
   6   3   9    6.34    1.68
   6  -6  -9    0.09    0.98
  -6   0  -9    1.15    1.10
   6  -6  -9    1.06    1.01
  -6   0  -9    1.67    1.07
  -6   6   9    3.08    1.10
   6   0   9   -0.18    1.06
  -6   6   9    2.18    1.11
   6   0   9    2.23    1.08
   3   3  -9   13.21    1.15
  -6   3  -9   13.21    1.47
   3  -6  -9   11.88    1.52
   3   3  -9   11.32    1.13
  -6   3  -9   10.90    1.38
   3  -6  -9   11.56    1.56
  -3   6   9   13.43    1.52
   6  -3   9   11.48    1.46
  -3  -3   9   11.96    1.17
   6  -3   9   11.96    1.38
  -3  -3   9   13.26    1.23
  -3   6   9   14.08    1.66
   0  -6  -9    2.07    1.09
   6   0  -9   -0.71    0.87
   0  -6  -9    1.86    1.16
  -6   6  -9    0.78    0.84
  -6   6  -9    0.55    0.79
   6   0  -9    1.06    1.04
   0   6   9    1.38    0.90
   6  -6   9    0.98    0.83
  -6   0   9    0.13    0.96
  -6   0   9    0.62    0.99
   6  -6   9    0.57    0.87
   0   6   9    0.23    1.12
  -3  -6  -9    2.04    1.24
  -3  -6  -9    3.03    1.30
   9  -3  -9    1.79    1.38
   3   6   9    2.96    1.51
   6  -9   9    0.96    0.89
  -9   3   9    4.42    1.49
   6  -9   9    4.33    0.92
  12  -6  -9    7.39    2.02
  -6  -6  -9    3.97    1.61
   6 -12   9    5.71    0.98
 -12   6   9    5.75    1.82
   6   6   9    8.68    1.97
   6 -12   9    4.97    0.93
  11  -7  -9    0.75    1.45
  -7  -4  -9    1.59    1.36
   7   4   9    2.46    1.55
 -11   7   9    0.64    1.45
   8  -7  -9    6.54    1.45
  -7  -1  -9    6.10    1.49
   8  -7  -9    3.44    1.33
  -7  -1  -9    5.29    1.39
  -8   7   9    5.14    1.45
   7   1   9    4.11    1.44
   5  -7  -9   -0.30    0.99
  -7   2  -9    0.72    1.07
   5  -7  -9    1.50    1.08
  -7   2  -9    0.58    1.04
   7  -2   9   -0.13    0.95
  -5   7   9    2.75    1.23
   7  -2   9    1.00    1.05
  -2  -5   9    1.14    0.70
  -5   7   9    0.43    1.00
  -2  -5   9    2.47    0.74
   2  -7  -9   33.63    2.51
  -7   5  -9   34.66    2.14
  -7   5  -9   30.89    2.13
   5   2  -9   35.22    2.14
   2  -7  -9   32.37    2.48
   5   2  -9   37.65    2.07
   7  -5   9   32.57    2.21
  -2   7   9   35.24    2.27
  -5  -2   9   32.79    2.10
  -5  -2   9   35.30    2.15
   7  -5   9   32.64    2.19
  -2   7   9   32.68    2.28
  -1  -7  -9   28.94    2.39
  -7   8  -9   29.10    1.82
   8  -1  -9   30.68    2.48
  -1  -7  -9   30.66    2.46
  -7   8  -9   28.99    1.85
   1   7   9   32.67    2.60
  -8   1   9   28.55    2.34
   7  -8   9   29.96    1.97
  -8   1   9   29.15    2.34
   1   7   9   27.32    2.04
   7  -8   9   31.92    2.09
  -4  -7  -9    4.93    1.58
  11  -4  -9    1.53    1.51
  -4  -7  -9   -0.30    1.22
 -11   4   9    2.15    1.55
   7 -11   9    2.28    1.03
   4   7   9    1.81    1.54
   7 -11   9    5.14    1.05
  14  -7  -9    2.28    1.81
  -7  -7  -9    2.45    1.83
   7 -14   9    1.72    0.94
 -14   7   9    0.23    1.78
  -8  -5  -9    4.21    1.76
  13  -8  -9    6.82    1.97
   8   5   9    3.84    1.85
 -13   8   9    3.19    1.82
  10  -8  -9    4.58    1.57
  -8  -2  -9    2.15    1.45
 -10   8   9    3.11    1.53
  -8   1  -9   22.81    2.15
   7  -8  -9   21.73    2.10
   7  -8  -9   23.26    2.12
   8  -1   9   30.60    2.60
  -1  -7   9   25.29    1.37
  -1  -7   9   25.60    1.36
  -7   8   9   25.33    2.22
   4   4  -9   10.75    1.20
  -8   4  -9    8.56    1.47
  -8   4  -9   12.35    1.60
   4  -8  -9   11.68    1.64
   4   4  -9   11.68    1.23
   4  -8  -9   15.21    1.80
   8  -4   9    8.76    1.53
  -4  -4   9   10.39    1.24
   8  -4   9   10.32    1.49
  -4  -4   9    9.55    1.21
  -4   8   9    8.07    1.46
  -4   8   9    8.84    1.42
  -8   7  -9   16.94    1.66
   7   1  -9   17.67    1.92
   1  -8  -9   18.95    2.10
  -8   7  -9   19.35    1.75
   1  -8  -9   18.23    2.08
  -7  -1   9   18.19    1.85
   8  -7   9   16.44    1.68
   8  -7   9   17.29    1.78
  -1   8   9   17.55    1.83
  -7  -1   9   16.00    1.81
  -1   8   9   17.69    1.65
  -2  -8  -9   11.65    1.81
  10  -2  -9    8.16    1.77
  -8  10  -9    8.97    1.20
  -8  10  -9   11.05    1.18
  -2  -8  -9    9.70    1.77
 -10   2   9   13.87    2.04
   8 -10   9    9.10    1.41
   2   8   9    8.83    1.76
   8 -10   9    7.52    1.32
  13  -5  -9    3.81    1.80
  -5  -8  -9    0.82    1.60
 -13   5   9    2.57    1.84
   8 -13   9    2.44    1.11
  -9  -6  -9   -0.05    1.61
  15  -9  -9   -2.07    1.68
 -15   9   9   -0.12    1.81
  12  -9  -9    5.44    1.80
  -9  -3  -9    4.10    1.69
   9   3   9    3.85    1.83
 -12   9   9    2.00    1.62
  -9   0  -9   11.31    1.90
   9  -9  -9   12.85    1.80
   9  -9  -9   13.02    1.94
   9   0   9   17.73    2.37
  -9   9   9   17.57    2.04
   6  -9  -9   17.31    1.98
   6  -9  -9   13.79    1.73
  -9   3  -9   17.42    1.95
   3   6  -9   14.26    1.10
   3   6  -9   13.98    1.09
  -6   9   9   20.02    1.99
  -3  -6   9   14.87    1.34
  -3  -6   9   15.84    1.41
   9  -3   9   15.96    2.04
   3  -9  -9    7.20    1.62
  -9   6  -9    6.30    1.44
   3  -9  -9    9.02    1.68
   6   3  -9    9.61    1.34
   6   3  -9    7.86    1.36
   9  -6   9    6.34    1.50
  -6  -3   9    6.37    1.36
  -3   9   9    6.97    1.31
  -6  -3   9    8.37    1.40
  -3   9   9    6.70    1.37
   9  -6   9    8.58    1.51
   0  -9  -9    3.00    1.37
   9   0  -9    4.51    1.55
   0  -9  -9    1.97    1.48
  -9   9  -9    2.15    1.16
   0   9   9    4.37    1.31
   9  -9   9    5.55    1.28
   9  -9   9    5.64    1.40
  -9   0   9    3.85    1.49
  -9   0   9    4.37    1.51
  -3  -9  -9   -0.63    1.45
  -3  -9  -9    0.60    1.30
  12  -3  -9    2.46    1.68
   3   9   9   -0.51    1.33
   9 -12   9    0.49    1.11
 -12   3   9   -0.72    1.52
  15  -6  -9   -1.63    1.69
  -6  -9  -9    2.33    1.80
 -15   6   9    2.25    1.90
   9 -15   9    0.05    1.14
  14 -10  -9    3.38    1.82
 -10  -4  -9    4.24    1.91
 -14  10   9    0.70    1.83
  10   4   9    0.32    1.73
  11 -10  -9    1.06    1.49
 -10  -1  -9    2.63    1.68
 -11  10   9    2.37    1.52
  10   1   9    3.19    1.64
   8 -10  -9    0.19    1.12
 -10   2  -9    1.49    1.48
   8 -10  -9   -0.88    1.24
  -2  -8   9    0.10    0.76
  -2  -8   9    1.69    0.85
  -8  10   9   -2.11    1.13
  10  -2   9   -0.54    1.39
 -10   5  -9   -0.85    1.21
   5   5  -9    0.22    0.90
   5 -10  -9   -0.45    1.20
   5   5  -9    1.94    0.88
   5 -10  -9    0.44    1.22
  -5  -5   9    1.18    1.00
  10  -5   9    1.22    1.38
  -5  10   9    0.60    1.12
  -5  -5   9    0.22    0.99
   2 -10  -9    1.25    1.45
   8   2  -9    1.72    1.24
   2 -10  -9    0.37    1.34
 -10   8  -9   -0.73    1.15
  10  -8   9    0.16    1.27
  -8  -2   9    0.09    1.17
  10  -8   9    0.43    1.08
  -8  -2   9    1.12    1.20
  -2  10   9    1.94    1.14
  -1 -10  -9    3.23    1.71
  11  -1  -9    5.77    1.83
  -1 -10  -9    4.74    1.54
  10 -11   9    7.00    1.40
  10 -11   9    1.93    1.38
 -11   1   9    5.92    1.73
  14  -4  -9   -2.00    1.60
  -4 -10  -9    3.62    1.84
  10 -14   9    2.56    1.41
 -14   4   9    1.13    1.76
  13 -11  -9    2.61    1.73
 -11  -2  -9    4.36    1.92
 -13  11   9    1.98    1.73
  10 -11  -9    0.60    1.49
 -11   1  -9    1.61    1.51
  11  -1   9    1.55    1.72
 -10  11   9    1.56    1.42
  -1 -10   9    0.43    0.82
   4   7  -9   13.39    1.18
 -11   4  -9    9.72    1.95
   7 -11  -9   16.01    1.98
   7 -11  -9   12.72    1.98
  -4  -7   9   13.56    1.56
  -7  11   9   13.11    1.80
  11  -4   9   15.40    2.22
  -4  -7   9   14.03    1.54
   4 -11  -9   -0.66    1.30
 -11   7  -9   -0.26    1.28
   7   4  -9   -0.10    1.12
   4 -11  -9    2.12    1.41
  -7  -4   9   -0.37    1.08
  -7  -4   9   -0.73    1.15
  11  -7   9    0.05    1.37
  -4  11   9    0.92    1.09
   1 -11  -9    3.61    1.52
   1 -11  -9    3.65    1.60
  10   1  -9    7.19    1.80
 -11  10  -9    4.99    1.45
  11 -10   9    3.17    1.38
 -10  -1   9    5.37    1.71
  11 -10   9    2.47    1.50
  13  -2  -9    0.74    1.68
  -2 -11  -9    2.28    1.70
  11 -13   9   -0.10    1.31
 -13   2   9    1.22    1.65
 -12   0  -9   -2.05    1.61
  12 -12  -9   -2.22    1.50
  12   0   9   -0.54    1.64
 -12  12   9    0.84    1.57
   9 -12  -9    1.98    1.36
 -12   3  -9    1.36    1.62
   9 -12  -9   -0.87    1.25
  12  -3   9    2.03    1.75
  -3  -9   9   -0.80    0.97
  -9  12   9    2.71    1.39
 -12   6  -9    2.25    1.57
   6 -12  -9    3.30    1.50
   6 -12  -9    3.33    1.50
  12  -6   9    2.22    1.65
  -6  -6   9    2.77    1.22
  -6  -6   9    2.51    1.27
  -6  12   9    2.36    1.23
 -12   9  -9    1.05    1.36
   3 -12  -9    0.44    1.41
   9   3  -9   -0.89    1.30
  12  -9   9    0.99    1.53
  -9  -3   9    0.58    1.37
   0 -12  -9    0.36    1.69
  12   0  -9   -0.99    1.49
  12 -12   9   -1.81    1.35
 -12   0   9    0.02    1.55
 -13   2  -9   -1.07    1.74
  11 -13  -9   -0.34    1.43
  -2 -11   9    0.68    1.03
  13  -2   9   -1.49    1.59
   8 -13  -9    1.03    1.41
 -13   5  -9    5.50    1.92
  -5  -8   9    1.16    1.21
  13  -5   9   -0.05    1.69
 -13   8  -9    3.16    1.65
   5 -13  -9    4.85    1.63
  13  -8   9    4.84    1.96
  -8  -5   9    4.92    1.61
  11   2  -9    5.19    1.86
   2 -13  -9    5.79    1.83
 -11  -2   9    6.43    1.85
  13 -11   9    7.38    1.94
  10 -14  -9   -0.32    1.49
 -14   4  -9    0.66    1.83
  -4 -10   9    2.34    1.22
  14  -4   9    2.94    1.98
 -14   7  -9   -1.51    1.58
   7 -14  -9    4.61    1.65
  14  -7   9    5.51    2.12
  -7  -7   9   -0.04    1.37
   4 -14  -9    4.76    1.86
  14 -10   9    3.11    1.89
 -10  -4   9    3.77    1.74
   9 -15  -9    0.62    1.60
 -15   6  -9   -1.82    1.71
  15  -6   9    3.11    1.99
  -6  -9   9    1.91    1.45
   6 -15  -9    0.07    1.48
 -15   9  -9    0.38    1.68
  15  -9   9    1.62    1.87
  -9  -6   9    0.21    1.52
  -1   0 -10   97.80    3.68
   1  -1 -10  104.13    3.80
   0   1 -10   98.82    3.57
   0   1 -10  103.76    3.64
   1  -1 -10   98.14    3.76
  -1   0 -10  105.02    3.79
   0  -1  10  105.83    3.65
   0  -1  10  101.97    3.68
  -1   1  10  105.24    3.79
  -1   1  10  100.24    3.80
   1   0  10  105.73    3.75
   1   0  10   97.33    3.76
  -2  -1 -10  155.79    5.38
   3  -2 -10  170.01    5.45
  -1   3 -10  160.61    4.91
   3  -2 -10  173.55    5.51
  -1   3 -10  160.89    4.93
   2   1  10  160.38    5.41
   1  -3  10  163.17    5.09
  -3   2  10  150.95    5.35
   2   1  10  161.58    5.55
   1  -3  10  159.50    5.06
  -3   2  10  171.40    5.45
  -2   2 -10  354.49   10.59
   0  -2 -10  361.04   10.99
   2   0 -10  358.50   10.68
   2   0 -10  355.71   10.66
  -2   2 -10  335.34   10.55
   0  -2 -10  371.03   10.96
  -2   0  10  368.98   10.69
   0   2  10  368.01   10.91
   0   2  10  364.67   11.01
   2  -2  10  368.57   10.60
  -2   0  10  362.90   10.69
   2  -2  10  355.23   10.62
  -3  -2 -10  222.82    7.39
  -3  -2 -10  234.14    7.59
   5  -3 -10  229.54    7.42
   5  -3 -10  229.79    7.50
   2  -5  10  224.04    6.72
   3   2  10  218.48    7.32
  -5   3  10  235.60    7.46
  -5   3  10  227.04    7.44
   3   2  10  235.86    7.61
   2  -5  10  235.32    6.70
  -3   1 -10  407.75   12.15
   1   2 -10  411.39   11.86
   2  -3 -10  391.42   12.34
   1   2 -10  414.26   11.94
   2  -3 -10  420.69   12.35
  -3   1 -10  406.87   12.22
   3  -1  10  397.59   12.23
  -2   3  10  411.38   12.32
   3  -1  10  412.06   12.15
  -1  -2  10  424.59   11.93
  -1  -2  10  415.42   11.95
  -2   3  10  421.84   12.41
  -3   4 -10  317.93    9.37
   4  -1 -10  324.61    9.84
  -1  -3 -10  334.03   10.10
  -1  -3 -10  317.07    9.90
   4  -1 -10  319.48    9.79
  -3   4 -10  311.20    9.39
   3  -4  10  310.67    9.46
   1   3  10  326.43    9.86
  -4   1  10  329.66    9.80
  -4   1  10  317.62    9.80
   1   3  10  318.68   10.07
   3  -4  10  328.27    9.44
  -4  -3 -10  119.67    4.62
  -4  -3 -10  108.06    4.42
   7  -4 -10  110.94    4.51
   7  -4 -10  116.53    4.53
  -7   4  10  118.93    4.51
   4   3  10  107.89    4.30
   3  -7  10  108.12    3.48
   3  -7  10  111.34    3.45
   4   3  10  117.02    4.70
  -7   4  10  114.30    4.54
   4  -4 -10   53.01    2.74
  -4   0 -10   56.03    2.82
  -4   0 -10   52.86    2.59
   4  -4 -10   51.99    2.60
   0  -4  10   52.89    2.01
  -4   4  10   51.84    2.60
   0  -4  10   54.49    1.98
  -4   4  10   54.41    2.74
   4   0  10   53.34    2.57
   3   1 -10  468.67   13.46
   1  -4 -10  476.78   13.91
   1  -4 -10  462.60   13.84
  -4   3 -10  456.86   13.45
  -4   3 -10  445.77   13.46
   3   1 -10  454.44   13.43
  -3  -1  10  465.03   13.46
  -1   4  10  452.40   13.80
  -3  -1  10  448.29   13.45
  -1   4  10  462.61   13.81
   4  -3  10  474.65   13.48
   4  -3  10  447.56   13.50
   6  -2 -10  215.16    7.13
   6  -2 -10  218.50    7.24
  -2  -4 -10  211.83    7.14
  -4   6 -10  217.39    6.38
  -6   2  10  213.30    7.17
   4  -6  10  213.52    6.53
   2   4  10  224.03    7.47
  -6   2  10  222.64    7.21
   2   4  10  217.66    7.08
   4  -6  10  213.87    6.59
  -5  -4 -10   70.66    3.64
  -5  -4 -10   73.00    3.67
   9  -5 -10   74.08    3.85
  -9   5  10   74.44    3.77
   5   4  10   70.21    3.90
   6  -5 -10  143.97    5.22
   6  -5 -10  136.68    5.29
  -5  -1 -10  149.96    5.39
  -5  -1 -10  141.91    5.21
  -6   5  10  148.72    5.31
  -6   5  10  144.33    5.28
   5   1  10  142.12    5.19
   2   3 -10  293.27    8.60
  -5   2 -10  289.08    9.02
   2   3 -10  289.54    8.57
  -5   2 -10  296.85    9.11
   3  -5 -10  298.99    9.20
   3  -5 -10  277.96    9.19
   5  -2  10  273.64    9.08
   5  -2  10  296.94    9.05
  -3   5  10  295.80    9.12
  -2  -3  10  285.66    8.65
  -2  -3  10  299.31    8.68
  -3   5  10  295.22    9.31
   0  -5 -10  195.77    6.76
   5   0 -10  196.00    6.40
   0  -5 -10  188.52    6.57
   5   0 -10  199.25    6.46
  -5   5 -10  200.33    6.15
  -5   5 -10  191.45    6.11
   0   5  10  201.83    6.51
   5  -5  10  190.20    6.22
  -5   0  10  192.50    6.40
  -5   0  10  181.69    6.36
   5  -5  10  190.50    6.14
   0   5  10  200.98    6.73
   8  -3 -10   90.40    4.06
  -3  -5 -10   89.78    4.05
  -3  -5 -10   85.07    3.85
  -8   3  10   90.08    3.93
   5  -8  10   81.05    3.09
  -8   3  10   86.57    3.97
   3   5  10   88.90    3.66
   3   5  10   85.27    4.10
   5  -8  10   83.68    3.05
  -6  -5 -10   46.28    3.29
  11  -6 -10   48.74    3.53
 -11   6  10   51.16    3.50
   6   5  10   49.83    3.54
  -6  -2 -10  137.60    5.41
   8  -6 -10  146.16    5.39
   8  -6 -10  132.13    5.43
  -6  -2 -10  142.12    5.42
   6   2  10  140.32    5.61
  -8   6  10  137.47    5.38
   5  -6 -10  177.06    6.15
   5  -6 -10  173.50    6.23
  -6   1 -10  185.17    6.27
  -6   1 -10  180.79    6.21
  -1  -5  10  177.63    5.42
   6  -1  10  184.12    6.19
  -1  -5  10  182.22    5.43
   6  -1  10  172.15    6.26
  -5   6  10  183.30    6.20
  -5   6  10  175.61    6.24
   4   2 -10   72.84    2.99
   2  -6 -10   70.10    3.45
  -6   4 -10   76.48    3.16
   4   2 -10   83.36    3.06
  -6   4 -10   69.99    3.12
   2  -6 -10   71.30    3.49
  -4  -2  10   70.24    3.00
  -2   6  10   75.95    3.35
  -4  -2  10   79.47    3.07
   6  -4  10   76.27    3.14
   6  -4  10   72.83    3.20
  -2   6  10   71.20    3.36
  -6   7 -10  119.85    3.95
   7  -1 -10  113.31    4.58
   7  -1 -10  115.18    4.46
  -1  -6 -10  110.30    4.59
  -6   7 -10  110.03    3.89
  -1  -6 -10  112.69    4.66
  -7   1  10  114.97    4.51
   1   6  10  111.06    4.28
   1   6  10  105.37    4.62
   6  -7  10  106.87    4.06
   6  -7  10  118.44    4.07
  -7   1  10  116.48    4.50
  -4  -6 -10   48.82    3.17
  -4  -6 -10   51.46    3.17
  10  -4 -10   41.26    3.26
   6 -10  10   48.47    2.25
 -10   4  10   45.29    3.29
   6 -10  10   49.11    2.19
   4   6  10   46.12    3.39
  -7  -6 -10   32.36    3.12
  13  -7 -10   33.69    3.35
 -13   7  10   39.62    3.44
   7   6  10   38.79    3.47
  -7  -3 -10   61.52    3.56
  10  -7 -10   58.19    3.66
   7   3  10   61.28    3.75
 -10   7  10   61.98    3.63
  -7   0 -10  132.23    5.24
  -7   0 -10  140.34    5.25
   7  -7 -10  124.34    5.08
   7  -7 -10  129.57    5.22
  -7   7  10  131.11    5.14
   7   0  10  139.24    5.42
   7   0  10  139.25    5.40
   3   4 -10   86.59    3.12
   4  -7 -10   82.88    3.82
   4  -7 -10   86.68    3.79
  -7   3 -10   88.70    3.76
   3   4 -10   87.69    3.12
  -7   3 -10   88.32    3.75
  -3  -4  10   87.03    3.22
  -3  -4  10   89.97    3.26
  -4   7  10   90.73    3.72
   7  -3  10   82.34    3.77
   7  -3  10   87.79    3.71
  -4   7  10   86.08    3.91
  -7   6 -10   87.00    3.38
   1  -7 -10   72.11    3.76
   1  -7 -10   82.89    3.83
   6   1 -10   77.59    3.36
   6   1 -10   79.60    3.53
  -7   6 -10   83.46    3.33
   7  -6  10   72.98    3.39
  -6  -1  10   74.87    3.42
  -1   7  10   76.48    3.41
  -1   7  10   77.56    3.59
   7  -6  10   85.69    3.38
  -6  -1  10   79.45    3.44
   9  -2 -10   57.05    3.51
  -2  -7 -10   60.75    3.37
  -7   9 -10   68.82    2.60
  -2  -7 -10   62.86    3.45
   2   7  10   60.17    3.62
   7  -9  10   63.33    2.77
   7  -9  10   58.70    2.85
  -9   2  10   64.87    3.56
  -5  -7 -10   48.76    3.40
  12  -5 -10   47.81    3.72
   7 -12  10   47.60    2.38
   5   7  10   51.71    3.71
   7 -12  10   46.21    2.34
 -12   5  10   53.06    3.71
  15  -8 -10   10.46    2.52
  -8  -7 -10   12.85    2.44
 -15   8  10    8.48    2.33
  -8  -4 -10   43.37    3.40
  12  -8 -10   47.18    3.65
 -12   8  10   46.56    3.53
   8   4  10   53.27    3.83
   9  -8 -10   42.80    3.05
  -8  -1 -10   45.36    3.13
   8   1  10   40.09    3.02
  -9   8  10   40.22    2.95
   6  -8 -10  118.38    4.90
   6  -8 -10  127.72    4.89
  -8   2 -10  127.96    5.01
  -6   8  10  121.92    4.76
  -2  -6  10  120.26    4.05
   8  -2  10  126.58    4.87
  -2  -6  10  119.69    4.06
   8  -2  10  116.36    4.96
   5   3 -10   67.69    2.86
   3  -8 -10   66.06    3.38
  -8   5 -10   65.68    3.12
   5   3 -10   59.03    2.87
  -8   5 -10   58.55    3.06
   3  -8 -10   68.03    3.45
  -5  -3  10   61.78    2.90
  -3   8  10   66.52    3.24
  -5  -3  10   60.98    2.89
   8  -5  10   63.80    3.10
   8  -5  10   64.10    3.26
  -3   8  10   64.80    3.13
  -8   8 -10  123.47    4.54
   0  -8 -10  123.13    5.17
  -8   8 -10  122.56    4.55
   0  -8 -10  120.29    5.09
   8   0 -10  126.38    5.06
   0   8  10  129.46    5.10
   8  -8  10  126.17    4.66
   8  -8  10  123.83    4.74
  -8   0  10  124.18    4.98
  -8   0  10  125.09    5.01
  -3  -8 -10   59.09    3.49
  11  -3 -10   59.93    3.91
  -3  -8 -10   66.26    3.74
   8 -11  10   71.30    3.03
   8 -11  10   60.06    3.00
 -11   3  10   62.43    3.89
   3   8  10   63.99    3.91
  -6  -8 -10   25.97    2.94
  14  -6 -10   30.93    3.38
 -14   6  10   26.62    3.01
   8 -14  10   26.68    2.03
  14  -9 -10   13.70    2.50
  -9  -5 -10   10.12    2.27
 -14   9  10   14.92    2.54
   9   5  10   17.76    2.72
  -9  -2 -10   44.12    3.28
  11  -9 -10   43.16    3.35
 -11   9  10   41.17    3.19
  -9   1 -10   94.87    4.52
   8  -9 -10   90.28    4.32
   8  -9 -10   92.99    4.23
   9  -1  10   99.20    4.69
  -1  -8  10   92.06    3.13
  -1  -8  10   91.64    3.16
  -8   9  10   92.07    4.17
   4   5 -10   90.17    3.40
   5  -9 -10   93.81    4.24
   5  -9 -10   95.17    4.19
   4   5 -10   89.50    3.35
  -9   4 -10   91.48    4.16
  -5   9  10   94.98    3.99
   9  -4  10   97.82    4.18
   9  -4  10   88.78    4.25
  -4  -5  10   91.12    3.59
  -4  -5  10   93.78    3.60
   7   2 -10  100.43    4.32
   2  -9 -10  102.22    4.62
   2  -9 -10  100.67    4.56
  -9   7 -10  105.81    4.26
  -2   9  10  102.31    4.25
   9  -7  10  107.28    4.31
   9  -7  10   99.94    4.36
  -7  -2  10  101.82    4.28
  -7  -2  10  102.81    4.30
  10  -1 -10   42.89    3.36
  -9  10 -10   39.39    2.28
  -1  -9 -10   41.19    3.12
   1   9  10   37.53    2.97
   9 -10  10   39.46    2.47
 -10   1  10   37.86    3.05
   9 -10  10   42.15    2.69
  -4  -9 -10   34.52    3.15
  13  -4 -10   33.39    3.45
 -13   4  10   29.13    3.09
   9 -13  10   33.54    2.42
 -10  -3 -10   22.00    2.76
  13 -10 -10   20.68    2.80
 -13  10  10   19.80    2.69
  10   3  10   21.40    2.90
 -10   0 -10   41.21    3.33
  10 -10 -10   37.83    3.20
 -10  10  10   43.95    3.10
  10   0  10   43.37    3.55
   7 -10 -10   77.90    4.01
 -10   3 -10   82.78    4.13
   7 -10 -10   79.64    3.89
  -3  -7  10   75.25    3.09
  10  -3  10   79.96    4.25
  -3  -7  10   78.77    3.18
  -7  10  10   78.55    3.78
 -10   6 -10   80.87    3.94
   6   4 -10   76.94    3.53
   4 -10 -10   86.59    4.13
   4 -10 -10   75.02    4.00
  10  -6  10   79.62    3.85
  -4  10  10   80.73    3.62
  -6  -4  10   84.67    3.70
  -6  -4  10   84.21    3.64
  10  -6  10   84.32    4.16
 -10   9 -10   64.86    3.28
   1 -10 -10   60.17    3.58
   9   1 -10   64.69    3.66
   1 -10 -10   61.14    3.77
  -9  -1  10   64.07    3.59
  -1  10  10   69.48    3.33
  10  -9  10   64.25    3.30
  10  -9  10   65.35    3.55
  12  -2 -10   23.04    2.80
  -2 -10 -10   22.52    2.62
 -12   2  10   24.50    2.77
  10 -12  10   25.02    2.28
 -11  -1 -10   31.64    3.26
  12 -11 -10   41.30    3.69
 -12  11  10   37.53    3.21
   9 -11 -10   26.66    2.68
 -11   2 -10   33.24    2.99
  -9  11  10   28.39    2.58
  11  -2  10   31.18    3.06
  -2  -9  10   32.68    1.79
  -2  -9  10   28.04    1.85
   5   6 -10   35.23    2.03
   6 -11 -10   43.06    3.04
 -11   5 -10   41.08    3.22
   6 -11 -10   37.09    2.93
  -6  11  10   43.57    2.77
  -5  -6  10   40.53    2.42
  11  -5  10   40.21    3.25
  -5  -6  10   39.02    2.45
 -11   8 -10   41.51    2.99
   8   3 -10   47.07    3.02
   3 -11 -10   44.31    3.19
   3 -11 -10   41.91    3.28
  -8  -3  10   45.72    2.97
  11  -8  10   47.16    3.37
  -3  11  10   44.85    2.69
  -8  -3  10   49.82    3.10
  11  -8  10   47.36    2.98
  11   0 -10   28.72    2.93
   0 -11 -10   22.01    2.71
  11 -11  10   26.75    2.59
 -11   0  10   31.47    2.92
  14  -3 -10   12.89    2.64
  -3 -11 -10   18.86    2.67
  11 -14  10   16.00    2.11
 -14   3  10   21.25    2.95
  14 -12 -10   13.27    2.57
 -12  -2 -10   19.38    2.87
  12   2  10   18.91    3.06
  11 -12 -10   25.24    2.87
 -12   1 -10   27.25    3.10
 -11  12  10   28.84    2.74
  12  -1  10   22.70    2.94
   8 -12 -10   43.09    3.29
   8 -12 -10   45.62    3.18
 -12   4 -10   44.48    3.45
  12  -4  10   42.95    3.49
  -8  12  10   40.61    2.88
  -4  -8  10   40.90    2.55
   5 -12 -10   30.38    2.85
   5 -12 -10   34.45    2.87
 -12   7 -10   31.43    2.90
  12  -7  10   27.09    2.84
  -5  12  10   36.35    2.61
  -7  -5  10   38.33    2.77
  -7  -5  10   41.46    2.72
   2 -12 -10   24.94    2.74
 -12  10 -10   25.28    2.37
  10   2 -10   24.65    2.66
  12 -10  10   23.58    2.61
 -10  -2  10   20.14    2.43
  13  -1 -10   18.89    2.80
  -1 -12 -10   15.50    2.46
  12 -13  10   18.75    2.30
 -13   1  10   11.34    2.33
 -13   0 -10   17.14    2.77
  13 -13 -10   15.06    2.51
  13   0  10   17.10    2.78
 -13   3 -10   19.72    2.67
  10 -13 -10   20.91    2.55
  -3 -10  10   23.04    1.81
  13  -3  10   15.99    2.71
 -13   6 -10   16.29    2.43
   7 -13 -10   19.74    2.38
  13  -6  10   18.50    2.73
  -6  -7  10   19.77    2.05
   4 -13 -10   45.65    3.41
 -13   9 -10   40.75    3.24
  13  -9  10   34.03    3.28
  -9  -4  10   37.99    3.06
   1 -13 -10   13.61    2.41
  12   1 -10   17.76    2.51
 -12  -1  10   10.89    2.23
  13 -12  10   12.44    2.28
  12 -14 -10   12.50    2.34
 -14   2 -10    9.66    2.48
  14  -2  10   13.97    2.79
 -14   5 -10   14.58    2.47
   9 -14 -10   24.29    2.71
  14  -5  10   17.29    2.82
  -5  -9  10   22.09    2.11
   6 -14 -10   19.27    2.37
 -14   8 -10   21.26    2.72
  -8  -6  10   18.45    2.28
  14  -8  10   18.46    2.80
   3 -14 -10   18.98    2.54
  14 -11  10   18.23    2.79
 -11  -3  10   19.34    2.65
 -15   7 -10   11.16    2.39
   8 -15 -10   11.15    2.19
  15  -7  10   21.78    3.13
  -7  -8  10   14.16    2.07
   1   0 -11   75.39    3.04
  -1   1 -11   70.99    2.97
  -1   1 -11   71.87    2.98
   0  -1 -11   73.61    3.19
   0  -1 -11   76.70    3.25
   1   0 -11   74.30    2.99
   1  -1  11   71.05    3.03
  -1   0  11   76.58    3.04
  -1   0  11   73.36    3.01
   0   1  11   73.82    3.21
   1  -1  11   76.88    2.99
   0   1  11   69.97    3.23
   0   2 -11   98.09    3.31
   2  -2 -11   92.00    3.68
   0   2 -11   95.09    3.37
  -2   0 -11   93.21    3.54
   2  -2 -11   97.31    3.73
   0  -2  11   91.53    3.42
  -2   2  11   98.06    3.73
   2   0  11   87.09    3.57
   2   0  11   96.65    3.64
   0  -2  11  100.12    3.42
  -2   2  11   86.27    3.63
  -2   3 -11  312.11    9.38
   3  -1 -11  307.36    9.62
  -2   3 -11  321.20    9.32
  -1  -2 -11  326.36    9.95
  -1  -2 -11  304.23    9.74
   3  -1 -11  317.17    9.68
  -3   1  11  329.01    9.68
   1   2  11  318.86    9.90
  -3   1  11  312.06    9.65
   2  -3  11  318.58    9.38
   1   2  11  323.61    9.77
   2  -3  11  308.31    9.38
   4  -3 -11  241.49    7.70
   4  -3 -11  234.19    7.72
  -3  -1 -11  246.33    7.83
  -3  -1 -11  236.40    7.64
   1  -4  11  235.96    7.18
  -4   3  11  236.25    7.69
   3   1  11  239.91    7.81
   3   1  11  241.69    7.64
   1  -4  11  245.66    7.15
  -4   3  11  237.47    7.69
  -3   2 -11  306.89    9.53
   2   1 -11  311.87    9.49
  -3   2 -11  316.93    9.61
   2   1 -11  329.17    9.54
   1  -3 -11  321.21    9.95
   1  -3 -11  303.49    9.87
  -1   3  11  317.05    9.90
  -1   3  11  324.97    9.94
  -2  -1  11  319.65    9.53
  -2  -1  11  322.46    9.52
   3  -2  11  323.90    9.67
   3  -2  11  319.24    9.57
  -2  -3 -11  119.06    4.63
   5  -2 -11  123.73    4.64
  -3   5 -11  125.94    3.92
   5  -2 -11  130.00    4.75
  -2  -3 -11  137.95    4.96
   3  -5  11  128.88    4.09
  -5   2  11  126.14    4.67
   2   3  11  131.70    4.97
   2   3  11  129.16    4.63
  -5   2  11  125.23    4.67
  -4  -2 -11  135.72    5.27
  -4  -2 -11  135.35    5.14
   6  -4 -11  144.34    5.28
   6  -4 -11  143.29    5.18
  -6   4  11  141.44    5.23
  -6   4  11  142.10    5.19
   4   2  11  141.79    5.11
   2  -6  11  138.89    4.30
   2  -6  11  144.68    4.24
   4   2  11  143.70    5.37
   1   3 -11  279.41    8.21
   3  -4 -11  281.30    8.79
   3  -4 -11  280.73    8.84
   1   3 -11  271.42    8.09
  -4   1 -11  270.58    8.71
  -4   1 -11  271.59    8.63
  -3   4  11  283.46    8.77
  -1  -3  11  271.00    8.23
  -3   4  11  272.99    8.81
   4  -1  11  276.87    8.64
  -1  -3  11  287.35    8.24
  -4   4 -11  121.42    4.10
   4   0 -11  118.33    4.29
   0  -4 -11  125.11    4.73
   0  -4 -11  117.68    4.60
   4   0 -11  120.90    4.32
  -4   4 -11  117.53    4.06
   4  -4  11  120.34    4.10
   4  -4  11  116.80    4.14
  -4   0  11  121.78    4.31
   0   4  11  122.12    4.70
  -4   0  11  117.69    4.30
   0   4  11  117.17    4.48
  -3  -4 -11   55.70    2.97
   7  -3 -11   57.03    2.94
   7  -3 -11   51.90    3.04
  -3  -4 -11   63.41    3.24
   3   4  11   52.58    2.80
  -7   3  11   57.03    3.04
   4  -7  11   57.19    2.24
   4  -7  11   57.99    2.19
   3   4  11   57.33    3.32
  -7   3  11   50.27    2.90
  -5  -3 -11   71.85    3.56
   8  -5 -11   70.38    3.51
   8  -5 -11   66.76    3.60
  -5  -3 -11   66.36    3.52
  -8   5  11   73.45    3.64
   5   3  11   69.95    3.74
  -5   0 -11  121.91    4.59
   5  -5 -11  114.75    4.57
   5  -5 -11  115.83    4.48
  -5   0 -11  117.29    4.47
  -5   5  11  121.43    4.58
   0  -5  11  118.72    3.67
   0  -5  11  113.91    3.67
  -5   5  11  115.69    4.51
   5   0  11  120.03    4.47
   2  -5 -11  101.17    4.11
   3   2 -11   98.02    3.50
   2  -5 -11   97.98    4.08
   3   2 -11   97.31    3.49
  -5   3 -11   93.99    3.71
  -5   3 -11   97.89    3.68
   5  -3  11   93.50    3.76
  -3  -2  11   95.25    3.54
  -2   5  11   91.13    3.90
  -2   5  11   94.43    4.01
   5  -3  11   97.80    3.70
  -3  -2  11  101.60    3.56
  -1  -5 -11   30.15    2.33
  -5   6 -11   28.05    1.64
   6  -1 -11   31.52    2.26
  -5   6 -11   32.54    1.68
   6  -1 -11   27.70    2.08
  -1  -5 -11   32.66    2.45
   5  -6  11   27.28    1.72
   5  -6  11   26.76    1.79
  -6   1  11   31.86    2.20
   1   5  11   29.66    2.10
  -6   1  11   28.58    2.16
   1   5  11   35.15    2.64
   9  -4 -11   75.73    3.86
  -4  -5 -11   64.72    3.54
  -4  -5 -11   67.64    3.61
   4   5  11   71.51    3.96
  -9   4  11   63.83    3.58
   5  -9  11   68.83    2.57
   5  -9  11   68.72    2.64
  10  -6 -11   38.99    3.20
  -6  -4 -11   32.11    2.75
 -10   6  11   35.02    2.84
   6   4  11   35.15    3.06
   7  -6 -11   86.60    3.97
  -6  -1 -11   86.21    3.97
   7  -6 -11   86.05    3.86
  -6  -1 -11   82.64    3.88
   6   1  11   88.65    3.83
  -7   6  11   81.64    3.82
  -7   6  11   88.56    3.87
  -6   2 -11   79.58    3.50
   4  -6 -11   81.59    3.57
   4  -6 -11   71.92    3.60
  -6   2 -11   77.90    3.45
   2   4 -11   81.78    2.80
  -4   6  11   80.28    3.67
  -2  -4  11   75.82    2.89
  -4   6  11   81.60    3.53
   6  -2  11   77.78    3.52
   6  -2  11   83.05    3.48
  -2  -4  11   83.68    2.95
   5   1 -11  118.16    4.34
   1  -6 -11  108.06    4.64
   5   1 -11  120.82    4.30
  -6   5 -11  112.23    4.16
   1  -6 -11  109.85    4.67
  -6   5 -11  114.08    4.22
   6  -5  11  118.79    4.22
   6  -5  11  110.52    4.24
  -5  -1  11  117.82    4.31
  -1   6  11  119.16    4.51
  -1   6  11  119.15    4.61
  -5  -1  11  112.26    4.29
   8  -2 -11   76.75    3.81
  -6   8 -11   83.37    2.86
  -2  -6 -11   74.46    3.68
   6  -8  11   74.87    3.09
  -8   2  11   80.82    3.71
   2   6  11   76.35    4.01
   6  -8  11   75.52    3.04
  -8   2  11   72.84    3.69
  -5  -6 -11   42.56    3.15
  -5  -6 -11   45.29    3.17
  11  -5 -11   45.77    3.47
   6 -11  11   44.06    2.07
   6 -11  11   43.23    2.09
   5   6  11   50.99    3.58
 -11   5  11   43.81    3.26
  -7  -5 -11   22.76    2.56
  12  -7 -11   35.41    3.23
 -12   7  11   26.66    2.83
   7   5  11   24.45    2.83
  -7  -2 -11   45.92    3.07
   9  -7 -11   40.73    3.08
  -9   7  11   38.80    2.96
   7   2  11   42.40    3.25
   6  -7 -11   48.35    2.92
  -7   1 -11   46.01    2.90
   6  -7 -11   44.44    2.76
  -7   1 -11   48.20    2.93
  -1  -6  11   47.25    1.93
  -6   7  11   50.39    2.87
  -6   7  11   54.40    2.99
  -1  -6  11   48.96    1.96
   7  -1  11   42.37    2.95
   7  -1  11   54.69    2.87
   4   3 -11   93.25    3.31
   3  -7 -11   86.62    3.92
   4   3 -11   82.88    3.31
  -7   4 -11   85.82    3.64
  -7   4 -11   86.33    3.61
   3  -7 -11   83.97    3.88
  -4  -3  11   84.28    3.34
  -4  -3  11   87.67    3.39
  -3   7  11   86.41    3.70
  -3   7  11   78.82    3.81
   7  -4  11   83.49    3.61
   7  -4  11   77.53    3.65
   0  -7 -11   89.19    4.13
  -7   7 -11   94.77    3.52
   0  -7 -11   70.30    3.87
   7   0 -11   91.59    4.02
  -7   7 -11   91.71    3.52
   0   7  11   87.37    3.73
   0   7  11   89.91    4.13
   7  -7  11   85.79    3.65
   7  -7  11   94.48    3.64
  -7   0  11   83.76    3.88
  -7   0  11   96.57    3.97
  -3  -7 -11   77.15    3.98
  -3  -7 -11   83.58    4.06
  10  -3 -11   82.03    4.30
   3   7  11   83.95    4.39
   7 -10  11   77.31    3.19
   7 -10  11   78.09    3.31
 -10   3  11   87.03    4.21
  -6  -7 -11   26.10    2.89
  13  -6 -11   21.18    2.76
   7 -13  11   20.70    1.57
 -13   6  11   20.61    2.74
   6   7  11   22.03    2.79
  -8  -6 -11   15.08    2.54
  14  -8 -11   16.32    2.69
   8   6  11   16.01    2.68
 -14   8  11   16.26    2.56
  11  -8 -11   18.33    2.40
  -8  -3 -11   23.20    2.54
 -11   8  11   18.10    2.36
   8   3  11   21.19    2.60
   8  -8 -11   84.36    4.24
  -8   0 -11   83.05    4.21
   8  -8 -11   90.68    4.14
  -8   8  11   95.77    4.26
   8   0  11   89.21    4.37
   5  -8 -11   58.86    3.37
  -8   3 -11   66.53    3.41
   3   5 -11   70.46    2.49
   5  -8 -11   64.01    3.31
   8  -3  11   61.44    3.45
  -5   8  11   60.78    3.23
   8  -3  11   67.87    3.31
  -3  -5  11   63.74    2.68
  -3  -5  11   66.70    2.71
  -5   8  11   63.76    3.75
   6   2 -11   70.41    3.19
   2  -8 -11   62.25    3.48
  -8   6 -11   62.08    3.32
  -8   6 -11   63.39    3.09
   2  -8 -11   68.42    3.56
   6   2 -11   63.62    2.98
  -2   8  11   58.50    3.16
   8  -6  11   60.80    3.11
  -6  -2  11   69.51    3.16
  -6  -2  11   62.69    3.10
   8  -6  11   57.88    3.13
  -2   8  11   63.56    3.25
  -8   9 -11   70.43    3.07
   9  -1 -11   75.03    3.94
  -1  -8 -11   82.98    3.97
  -1  -8 -11   70.07    3.92
  -8   9 -11   72.98    3.08
   8  -9  11   74.98    3.28
   1   8  11   76.19    4.00
  -9   1  11   75.73    3.87
   8  -9  11   73.18    3.38
  -4  -8 -11   13.88    2.12
  -4  -8 -11    8.46    1.83
  12  -4 -11   11.59    2.31
 -12   4  11    9.66    2.07
   4   8  11   12.04    2.21
   8 -12  11   13.72    1.54
  -7  -8 -11   12.10    2.47
  15  -7 -11   12.45    2.62
 -15   7  11   10.62    2.44
  13  -9 -11   22.48    2.89
  -9  -4 -11   26.27    2.89
 -13   9  11   28.40    3.05
   9   4  11   23.31    3.00
  10  -9 -11   44.66    3.33
  -9  -1 -11   44.68    3.38
 -10   9  11   47.42    3.35
   7  -9 -11   67.26    3.49
  -9   2 -11   64.88    3.67
   7  -9 -11   60.00    3.53
  -2  -7  11   64.17    2.57
   9  -2  11   65.79    3.78
  -2  -7  11   64.53    2.57
  -7   9  11   61.86    3.38
   4  -9 -11   78.02    3.83
   4  -9 -11   70.28    3.64
  -9   5 -11   69.43    3.51
   5   4 -11   70.55    3.00
   5   4 -11   69.75    3.08
  -4   9  11   62.08    3.31
  -5  -4  11   71.51    3.16
  -5  -4  11   66.08    3.12
   9  -5  11   71.47    3.48
   9  -5  11   67.40    3.63
   1  -9 -11   73.43    3.92
   8   1 -11   69.77    3.64
   1  -9 -11   64.06    3.69
  -9   8 -11   65.41    3.23
  -8  -1  11   65.24    3.51
   9  -8  11   63.75    3.24
  -1   9  11   70.11    3.51
  -8  -1  11   66.44    3.43
   9  -8  11   63.51    3.42
  -2  -9 -11   18.05    2.31
  -2  -9 -11   20.51    2.34
  11  -2 -11   22.29    2.63
  -9  11 -11   18.19    1.55
   9 -11  11   18.50    1.84
 -11   2  11   21.06    2.42
   9 -11  11   19.77    2.00
   2   9  11   20.33    2.42
  14  -5 -11   16.30    2.78
  -5  -9 -11   19.78    2.64
   9 -14  11   18.33    1.88
 -14   5  11   14.36    2.52
  12 -10 -11   32.78    3.31
 -10  -2 -11   28.00    2.97
  10   2  11   29.63    3.19
 -12  10  11   31.46    3.03
   9 -10 -11   15.37    2.17
 -10   1 -11   23.63    2.58
  -1  -9  11   20.92    1.38
  -1  -9  11   22.03    1.34
  10  -1  11   18.27    2.46
  -9  10  11   21.38    2.28
 -10   4 -11  108.49    4.79
   4   6 -11  110.00    3.65
   6 -10 -11   93.49    4.54
   6 -10 -11  103.32    4.72
  -6  10  11  101.52    4.44
  -4  -6  11  105.74    4.02
  -4  -6  11  107.36    4.00
  10  -4  11  107.87    4.94
 -10   7 -11   39.79    2.78
   3 -10 -11   33.74    2.92
   3 -10 -11   37.18    2.93
   7   3 -11   38.66    2.60
  -3  10  11   37.90    2.62
  -7  -3  11   36.83    2.60
  -7  -3  11   36.64    2.67
  10  -7  11   38.47    2.66
  10  -7  11   34.86    2.83
  10   0 -11   35.36    3.06
   0 -10 -11   34.09    3.07
 -10  10 -11   34.13    2.39
   0 -10 -11   30.74    2.80
  10 -10  11   35.20    2.58
   0  10  11   33.09    2.71
  10 -10  11   36.94    2.80
 -10   0  11   35.34    2.96
  -3 -10 -11    9.79    2.19
  13  -3 -11   10.45    2.31
  10 -13  11   10.98    1.74
 -13   3  11    6.82    2.02
  14 -11 -11    4.66    2.15
 -11  -3 -11   11.31    2.42
 -14  11  11   10.96    2.32
  11   3  11    9.81    2.42
 -11   0 -11   25.23    2.88
  11 -11 -11   22.85    2.61
 -11  11  11   21.96    2.54
  11   0  11   19.74    2.72
 -11   3 -11   24.13    2.70
   8 -11 -11   20.11    2.23
   8 -11 -11   22.26    2.50
  -8  11  11   21.73    2.30
  -3  -8  11   24.23    1.77
  -3  -8  11   23.52    1.71
  11  -3  11   26.62    2.75
   6   5 -11   15.97    1.70
   5 -11 -11   18.69    2.29
   5 -11 -11   19.12    2.29
 -11   6 -11   19.58    2.26
  -5  11  11   16.08    1.89
  -6  -5  11   16.38    1.80
  11  -6  11   16.34    2.25
  -6  -5  11   14.41    1.74
   9   2 -11   32.49    2.76
   2 -11 -11   31.31    2.82
   2 -11 -11   36.74    3.09
 -11   9 -11   31.04    2.58
  -2  11  11   30.77    2.48
  -9  -2  11   30.97    2.73
  11  -9  11   33.34    2.59
  11  -9  11   33.21    2.85
  -1 -11 -11   11.75    2.29
  12  -1 -11    9.13    2.17
 -12   1  11    8.18    2.07
  11 -12  11    9.65    1.88
 -12  -1 -11    8.99    2.28
  13 -12 -11   14.01    2.44
 -13  12  11   13.10    2.27
  10 -12 -11   14.07    2.25
 -12   2 -11    9.78    2.25
  12  -2  11   15.83    2.57
  -2 -10  11   12.21    1.29
 -10  12  11   11.00    1.97
   7 -12 -11   28.79    2.81
 -12   5 -11   30.18    2.88
   7 -12 -11   34.39    2.92
  12  -5  11   31.49    3.15
  -7  12  11   32.82    2.65
  -5  -7  11   30.01    2.36
   8   4 -11   18.83    2.16
   4 -12 -11   26.71    2.71
 -12   8 -11   25.32    2.52
  12  -8  11   25.29    2.77
  -8  -4  11   24.92    2.42
  -8  -4  11   21.08    2.21
   1 -12 -11   17.39    2.50
  11   1 -11   21.47    2.61
 -11  -1  11   17.70    2.45
  12 -11  11   21.99    2.54
  -2 -12 -11   15.00    2.70
  14  -2 -11   17.73    2.84
 -14   2  11   15.12    2.60
  12 -14  11   15.64    2.25
 -13   1 -11   16.10    2.74
  12 -13 -11   14.10    2.40
  13  -1  11   12.46    2.63
   9 -13 -11   20.50    2.54
 -13   4 -11   30.75    3.21
  13  -4  11   21.23    2.86
  -4  -9  11   21.70    1.95
   6 -13 -11   21.16    2.50
 -13   7 -11   19.78    2.53
  -7  -6  11   19.05    2.18
  13  -7  11   21.84    2.87
   3 -13 -11   14.31    2.33
 -10  -3  11   10.67    2.09
  13 -10  11   16.70    2.53
  13   0 -11   13.46    2.71
   0 -13 -11   10.00    2.26
  13 -13  11   15.42    2.51
 -13   0  11   13.52    2.39
 -14   3 -11   12.30    2.57
  11 -14 -11   11.88    2.37
  14  -3  11   11.46    2.65
  -3 -11  11   10.79    1.49
 -14   6 -11   21.52    2.77
   8 -14 -11   24.41    2.74
  14  -6  11   20.96    3.07
  -6  -8  11   19.96    2.20
   5 -14 -11   18.02    2.45
 -14   9 -11   20.39    2.61
  14  -9  11   19.87    2.83
  -9  -5  11   18.09    2.39
   2 -14 -11   10.72    2.21
 -12  -2  11   14.37    2.43
  14 -12  11   10.93    2.33
 -15   8 -11   11.63    2.42
   7 -15 -11   15.24    2.39
  15  -8  11    8.19    2.47
  -8  -7  11   10.41    2.05
   0   0 -12   74.11    3.10
   0   0 -12   64.49    2.94
   0   0  12   69.91    3.09
   0   0  12   67.15    3.03
   2  -1 -12   39.59    2.29
   2  -1 -12   42.83    2.37
  -1  -1 -12   42.27    2.39
  -1  -1 -12   42.51    2.56
  -1   2 -12   36.20    2.01
  -1   2 -12   43.39    2.13
  -2   1  12   40.70    2.30
   1  -2  12   39.29    2.19
   1   1  12   43.24    2.49
   1  -2  12   41.22    2.25
   1   1  12   39.77    2.53
  -2   1  12   41.29    2.35
   1   1 -12   43.16    2.29
   1  -2 -12   44.36    2.59
   1  -2 -12   44.06    2.63
  -2   1 -12   41.61    2.28
   1   1 -12   45.13    2.20
  -1   2  12   44.42    2.64
   2  -1  12   44.55    2.34
  -1  -1  12   46.94    2.24
  -1  -1  12   44.07    2.25
   2  -1  12   43.65    2.35
  -1   2  12   48.27    2.64
   4  -2 -12    1.07    1.01
   4  -2 -12    1.04    0.94
  -2   4 -12    1.28    0.65
  -2   4 -12    1.10    0.67
  -2  -2 -12    0.81    0.96
  -2  -2 -12    1.39    1.18
  -4   2  12    0.67    0.99
   2   2  12   -0.22    1.03
  -4   2  12    1.08    0.93
   2   2  12    1.23    1.01
   2  -4  12    0.98    0.73
   2  -4  12    0.78    0.78
  -3   0 -12    0.73    0.89
   0   3 -12    0.85    0.63
   3  -3 -12   -0.13    1.02
   3  -3 -12   -0.60    1.07
   0   3 -12    2.62    0.78
  -3   0 -12   -0.12    1.10
   0  -3  12    0.33    0.83
  -3   3  12    0.96    1.07
   3   0  12    1.12    0.98
  -3   3  12    1.06    1.12
   3   0  12   -0.44    0.98
   0  -3  12    1.86    0.83
   3   0 -12   29.68    1.92
  -3   3 -12   32.04    1.79
  -3   3 -12   31.77    1.80
   3   0 -12   29.98    1.97
   0  -3 -12   29.31    2.36
   0  -3 -12   28.93    2.29
   0   3  12   29.35    2.15
  -3   0  12   28.14    1.94
  -3   0  12   27.16    1.89
   0   3  12   30.27    2.42
   3  -3  12   31.99    1.85
   3  -3  12   26.81    1.81
  -3  -3 -12   25.38    2.16
   6  -3 -12   22.64    1.96
  -3  -3 -12   23.80    2.04
   6  -3 -12   28.95    2.24
   3   3  12   19.31    1.76
   3  -6  12   23.41    1.43
   3  -6  12   25.15    1.38
  -6   3  12   22.17    1.93
  -6   3  12   27.86    2.17
   3   3  12   25.43    2.30
  -4  -1 -12  117.14    4.67
   5  -4 -12  122.99    4.72
  -4  -1 -12  113.20    4.54
   5  -4 -12  122.18    4.61
   4   1  12  122.28    4.57
   1  -5  12  122.43    3.86
   4   1  12  117.75    4.73
  -5   4  12  124.67    4.63
   1  -5  12  117.57    3.89
  -5   4  12  122.67    4.59
  -4   2 -12   81.60    3.36
   2  -4 -12   82.59    3.69
   2  -4 -12   84.95    3.69
   2   2 -12   79.93    3.03
   2   2 -12   80.60    3.08
  -4   2 -12   80.67    3.29
  -2  -2  12   81.69    3.09
  -2  -2  12   83.56    3.11
  -2   4  12   84.28    3.65
  -2   4  12   78.84    3.59
   4  -2  12   88.60    3.35
  -4   5 -12   22.63    1.45
   5  -1 -12   28.33    2.07
  -4   5 -12   21.79    1.47
   5  -1 -12   22.70    1.85
  -1  -4 -12   23.38    2.01
  -1  -4 -12   30.01    2.35
   1   4  12   28.79    2.37
   4  -5  12   19.00    1.53
  -5   1  12   20.45    1.85
   1   4  12   25.84    2.02
   4  -5  12   24.36    1.61
  -5   1  12   23.79    1.92
  -4  -4 -12    4.67    1.48
   8  -4 -12    6.30    1.54
  -4  -4 -12    6.65    1.50
   4  -8  12    7.77    0.81
   4   4  12    8.13    1.74
   4  -8  12    8.04    0.91
  -8   4  12    5.46    1.48
   7  -5 -12   15.08    1.78
  -5  -2 -12   10.21    1.74
  -5  -2 -12   13.33    1.79
   7  -5 -12   10.68    1.68
   5   2  12   14.72    1.65
  -7   5  12   11.00    1.59
   5   2  12   10.32    1.72
  -7   5  12    9.19    1.62
  -5   1 -12   32.29    2.12
   1   4 -12   35.33    1.56
   4  -5 -12   31.11    2.41
   1   4 -12   32.18    1.34
  -5   1 -12   31.38    2.25
   4  -5 -12   33.85    2.34
   5  -1  12   33.36    2.15
  -1  -4  12   30.28    1.64
  -4   5  12   31.19    2.30
  -4   5  12   31.61    2.38
  -1  -4  12   34.56    1.69
   1  -5 -12   26.15    2.29
   4   1 -12   27.80    1.87
  -5   4 -12   29.57    1.90
   1  -5 -12   25.76    2.25
   4   1 -12   29.11    1.93
  -5   4 -12   26.03    1.81
   5  -4  12   26.51    1.89
  -1   5  12   25.54    2.22
  -4  -1  12   29.93    1.93
  -1   5  12   26.83    2.11
  -4  -1  12   28.00    1.90
   5  -4  12   27.59    1.93
  -2  -5 -12   53.02    2.99
   7  -2 -12   57.08    3.10
   7  -2 -12   49.57    2.79
  -5   7 -12   54.24    2.07
  -7   2  12   48.92    2.89
   5  -7  12   54.23    2.38
   2   5  12   49.58    3.29
   2   5  12   50.52    2.75
   5  -7  12   52.61    2.32
  -7   2  12   52.45    2.94
  -5  -5 -12    1.99    1.48
  10  -5 -12    2.95    1.61
  -5  -5 -12    2.44    1.45
   5   5  12    0.75    1.56
   5 -10  12    2.97    0.75
   5 -10  12    3.13    0.74
 -10   5  12    2.69    1.49
  -6  -3 -12   16.57    2.10
   9  -6 -12   12.45    1.92
   6   3  12   21.39    2.42
  -9   6  12   16.98    2.16
   6  -6 -12   20.48    2.16
  -6   0 -12   19.65    1.99
   6  -6 -12   19.26    1.92
  -6   0 -12   24.00    2.18
   6   0  12   22.80    1.99
   0  -6  12   17.60    1.11
  -6   6  12   20.09    1.96
   0  -6  12   16.02    1.14
  -6   6  12   16.65    1.84
  -6   3 -12   16.56    1.67
   3  -6 -12   17.77    1.87
   3   3 -12   17.67    1.45
  -6   3 -12   18.10    1.71
   3  -6 -12   22.43    2.04
   3   3 -12   18.37    1.49
  -3   6  12   17.96    1.84
  -3   6  12   17.48    1.88
  -3  -3  12   20.73    1.55
   6  -3  12   18.37    1.71
  -3  -3  12   17.29    1.45
   6  -3  12   16.96    1.72
  -6   6 -12   29.80    1.89
   0  -6 -12   29.38    2.53
   0  -6 -12   28.40    2.33
   6   0 -12   30.09    2.13
  -6   6 -12   33.52    1.95
   6   0 -12   32.50    2.30
   6  -6  12   31.41    2.05
   6  -6  12   30.71    1.97
   0   6  12   27.06    2.19
  -6   0  12   29.73    2.28
   0   6  12   36.26    2.73
  -6   0  12   28.92    2.19
  -3  -6 -12   -0.07    1.18
  -3  -6 -12    0.76    1.28
   9  -3 -12   -0.01    1.37
   6  -9  12    0.11    0.84
   3   6  12    0.39    1.51
   6  -9  12   -0.46    0.77
  -9   3  12    1.98    1.33
  12  -6 -12   11.74    2.27
  -6  -6 -12   10.03    2.02
 -12   6  12    9.69    2.11
   6   6  12    9.49    2.13
   6 -12  12    8.56    1.00
  -7  -4 -12    9.98    1.96
  11  -7 -12    6.91    1.85
   7   4  12    9.49    2.18
 -11   7  12    7.37    1.84
   8  -7 -12   10.99    1.73
  -7  -1 -12   11.37    1.85
   8  -7 -12   11.17    1.83
  -8   7  12   11.37    1.84
   5  -7 -12   26.58    2.20
  -7   2 -12   27.79    2.31
   5  -7 -12   28.75    2.44
  -7   2 -12   26.97    2.23
   7  -2  12   24.94    2.24
  -2  -5  12   26.00    1.60
   7  -2  12   24.93    2.07
  -5   7  12   23.44    2.23
  -5   7  12   27.01    2.26
  -2  -5  12   26.24    1.60
   5   2 -12    2.83    1.01
  -7   5 -12    1.59    1.02
   2  -7 -12    2.26    1.34
  -7   5 -12    1.98    1.08
   2  -7 -12    3.24    1.36
   5   2 -12    1.87    1.04
   7  -5  12    1.62    1.06
  -5  -2  12    0.14    0.92
  -5  -2  12   -0.16    0.96
  -2   7  12    0.63    1.09
   7  -5  12    1.94    1.08
  -2   7  12    0.09    1.17
  -1  -7 -12    6.65    1.60
  -1  -7 -12    5.74    1.56
  -7   8 -12    7.26    1.13
   8  -1 -12    8.47    1.63
  -7   8 -12    8.31    1.14
  -8   1  12    6.23    1.42
   7  -8  12    8.04    1.27
   7  -8  12    6.24    1.30
  -8   1  12    6.25    1.51
   1   7  12    5.46    1.64
  -4  -7 -12    0.41    1.35
  11  -4 -12   -2.78    1.31
  -4  -7 -12    1.39    1.45
   4   7  12    0.44    1.56
   7 -11  12   -1.52    0.88
   7 -11  12    0.17    0.87
 -11   4  12    0.21    1.45
  14  -7 -12    2.17    1.93
  -7  -7 -12    2.37    1.85
 -14   7  12    6.12    2.06
  13  -8 -12    4.64    1.92
  -8  -5 -12    3.79    1.80
 -13   8  12    2.74    1.80
   8   5  12    3.29    1.99
  -8  -2 -12   -0.08    1.36
  10  -8 -12    1.73    1.45
   8   2  12    2.28    1.57
 -10   8  12   -0.01    1.38
  -8   1 -12    4.41    1.46
   7  -8 -12    0.72    1.29
   7  -8 -12    3.68    1.33
  -7   8  12    2.11    1.38
  -1  -7  12    2.35    0.71
   8  -1  12    1.17    1.32
  -1  -7  12    2.80    0.72
  -8   4 -12    6.93    1.47
   4  -8 -12    6.68    1.61
   4  -8 -12    8.04    1.64
   4   4 -12    9.27    1.14
   4   4 -12    5.71    1.06
   8  -4  12    5.40    1.41
  -4  -4  12    4.65    1.10
  -4  -4  12    6.48    1.15
  -4   8  12    2.83    1.32
   8  -4  12    5.57    1.37
   7   1 -12    7.57    1.53
   1  -8 -12    7.25    1.70
  -8   7 -12    7.58    1.42
   1  -8 -12    9.17    1.82
  -8   7 -12    8.30    1.38
  -1   8  12    6.12    1.56
  -7  -1  12    7.45    1.51
  -7  -1  12    6.12    1.36
   8  -7  12    6.18    1.37
   8  -7  12    8.55    1.40
  -8  10 -12   21.46    1.68
  -2  -8 -12   26.25    2.67
  -2  -8 -12   27.48    2.59
  10  -2 -12   26.53    2.68
   8 -10  12   26.44    2.13
   2   8  12   27.54    2.71
   8 -10  12   24.11    1.98
 -10   2  12   26.83    2.65
  -5  -8 -12    3.83    1.78
  13  -5 -12    5.64    2.03
 -13   5  12    4.81    1.89
   8 -13  12    3.80    1.15
  12  -9 -12    9.06    2.13
  -9  -3 -12    8.09    2.00
   9   3  12    8.66    2.21
 -12   9  12    8.59    1.96
   9  -9 -12   10.14    1.91
  -9   0 -12   10.36    1.94
  -9   9  12   10.82    1.91
   9   0  12    6.45    1.84
   6  -9 -12   13.03    1.93
  -9   3 -12   13.21    1.97
   6  -9 -12   15.69    1.99
  -6   9  12   14.93    1.94
  -3  -6  12   17.42    1.46
  -3  -6  12   17.01    1.42
   9  -3  12   16.38    2.11
   6   3 -12   14.80    1.69
   3  -9 -12   14.45    2.04
   3  -9 -12   13.60    1.94
  -9   6 -12   15.39    1.83
  -3   9  12   11.36    1.73
   9  -6  12   17.29    1.88
   9  -6  12   13.63    1.87
  -6  -3  12   16.67    1.80
  -6  -3  12   13.96    1.63
   0  -9 -12    6.64    1.81
   0  -9 -12    7.26    1.73
   9   0 -12    4.72    1.57
  -9   9 -12    5.79    1.25
   9  -9  12    5.74    1.33
   9  -9  12    7.65    1.52
  -9   0  12    5.17    1.63
   0   9  12    6.36    1.61
  -3  -9 -12    8.41    2.08
  12  -3 -12    5.57    1.91
   3   9  12    5.84    1.82
 -12   3  12    5.10    1.87
   9 -12  12    6.51    1.45
  14 -10 -12    0.39    1.84
 -10  -4 -12   -1.82    1.58
  10   4  12    1.45    1.86
 -14  10  12    0.34    1.77
  11 -10 -12    4.01    1.80
 -10  -1 -12    4.03    1.78
 -11  10  12    2.19    1.66
 -10   2 -12    1.05    1.48
   8 -10 -12    1.98    1.33
   8 -10 -12    3.05    1.44
  -2  -8  12    1.73    0.85
  -2  -8  12    1.05    0.80
  10  -2  12    2.01    1.59
  -8  10  12    0.04    1.29
   5 -10 -12    3.15    1.48
   5 -10 -12    2.45    1.48
 -10   5 -12    2.03    1.45
   5   5 -12    2.34    0.98
   5   5 -12    5.11    1.02
  10  -5  12    2.63    1.50
  -5  -5  12    3.55    1.22
  -5  10  12    4.24    1.41
  -5  -5  12    2.18    1.07
   8   2 -12   13.55    1.87
 -10   8 -12   13.91    1.83
   2 -10 -12   11.43    1.99
   2 -10 -12   15.13    2.22
  -8  -2  12   13.43    1.82
  10  -8  12   13.29    1.91
  -8  -2  12   12.40    1.85
  10  -8  12   11.05    1.68
  -2  10  12   15.37    1.93
  11  -1 -12    9.77    2.11
  -1 -10 -12   10.04    2.13
  -1 -10 -12    7.21    1.66
  10 -11  12    3.78    1.50
   1  10  12    5.96    1.73
 -11   1  12    4.82    1.75
  -4 -10 -12    3.69    1.95
  14  -4 -12    0.92    1.72
 -14   4  12    1.81    1.81
  10 -14  12    1.73    1.30
 -11  -2 -12    1.97    1.82
  13 -11 -12    1.59    1.73
 -13  11  12   -0.25    1.65
  11   2  12   -1.08    1.73
 -11   1 -12    5.30    1.85
  10 -11 -12    1.37    1.70
 -10  11  12    3.87    1.60
  11  -1  12    0.80    1.72
   7 -11 -12   14.51    2.13
 -11   4 -12   14.24    2.22
   7 -11 -12   14.30    2.04
  -4  -7  12   16.77    1.60
  -4  -7  12   14.81    1.59
  11  -4  12   12.63    2.21
  -7  11  12   12.98    1.90
 -11   7 -12    8.21    1.82
   4 -11 -12    9.84    1.95
   7   4 -12    6.47    1.42
   4 -11 -12    5.91    1.71
  -4  11  12    6.94    1.55
  -7  -4  12    7.32    1.50
  11  -7  12    8.15    1.88
  -7  -4  12    6.75    1.59
  10   1 -12    2.14    1.55
   1 -11 -12    6.26    1.94
  11 -10  12    3.69    1.57
 -10  -1  12    5.02    1.67
  11 -10  12    2.13    1.32
  -2 -11 -12    0.32    1.72
  13  -2 -12    3.01    1.90
 -13   2  12    2.05    1.73
  11 -13  12   -0.02    1.44
  12 -12 -12    4.55    1.92
 -12   0 -12    3.82    1.94
 -12  12  12    3.04    1.67
 -12   3 -12   11.19    2.24
   9 -12 -12    6.09    1.90
  12  -3  12   12.84    2.40
  -3  -9  12    8.52    1.27
  -9  12  12    6.27    1.72
 -12   6 -12    3.48    1.77
   6 -12 -12    6.52    1.78
   6 -12 -12    1.45    1.58
  -6  -6  12    1.76    1.27
  12  -6  12    1.10    1.63
  -6  12  12    0.66    1.28
   9   3 -12    3.41    1.47
   3 -12 -12    2.33    1.68
 -12   9 -12    2.65    1.48
  -9  -3  12    0.97    1.46
  12  -9  12    4.96    1.75
  12   0 -12   -0.36    1.58
   0 -12 -12   -0.13    1.71
 -12   0  12    0.94    1.58
  12 -12  12    0.60    1.49
  11 -13 -12    3.00    1.82
 -13   2 -12   -0.29    1.71
  13  -2  12    4.43    2.12
  -2 -11  12    1.35    0.95
   8 -13 -12   -0.18    1.51
 -13   5 -12   -1.36    1.60
  -5  -8  12   -0.67    1.10
  13  -5  12    2.58    1.81
   5 -13 -12    2.51    1.69
 -13   8 -12    4.20    1.73
  -8  -5  12    1.36    1.44
  13  -8  12    1.69    1.76
   2 -13 -12    1.22    1.65
 -11  -2  12    1.07    1.64
  13 -11  12    0.76    1.59
 -14   4 -12    0.48    1.74
  10 -14 -12   -0.90    1.57
  14  -4  12    0.99    1.98
  -4 -10  12   -0.76    1.10
 -14   7 -12    1.72    1.80
   7 -14 -12    1.54    1.64
  14  -7  12   -0.63    1.73
  -7  -7  12   -1.60    1.29
   4 -14 -12    4.78    2.02
 -10  -4  12    4.07    1.78
  14 -10  12    2.41    1.88
   0   1 -13    7.09    1.27
  -1   0 -13    8.68    1.45
  -1   0 -13   10.19    1.39
   1  -1 -13    9.83    1.40
   1  -1 -13   10.42    1.37
   0   1 -13    8.68    1.22
  -1   1  13   10.31    1.43
  -1   1  13    9.54    1.47
   1   0  13    8.67    1.43
   0  -1  13    9.08    1.33
   1   0  13    9.18    1.35
   0  -1  13   10.33    1.32
   3  -2 -13   17.82    1.70
  -2  -1 -13   16.25    1.60
  -1   3 -13   17.88    1.46
  -2  -1 -13   18.53    1.82
   3  -2 -13   20.02    1.78
   1  -3  13   19.13    1.49
   1  -3  13   20.24    1.54
   2   1  13   17.28    1.76
  -3   2  13   15.96    1.62
  -3   2  13   23.87    1.91
   2   1  13   17.80    1.70
  -2   2 -13   22.44    1.75
   0  -2 -13   18.89    1.84
  -2   2 -13   21.98    1.75
   0  -2 -13   22.64    1.93
   2   0 -13   20.51    1.65
   2   0 -13   22.23    1.77
   0   2  13   17.83    1.75
   0   2  13   23.30    2.04
   2  -2  13   24.30    1.88
   2  -2  13   18.66    1.54
  -2   0  13   21.18    1.75
  -2   0  13   23.94    1.84
   5  -3 -13   42.50    2.61
  -3  -2 -13   48.51    2.84
  -3  -2 -13   42.66    2.61
   5  -3 -13   50.83    2.62
  -5   3  13   44.94    2.58
   2  -5  13   43.56    2.05
   3   2  13   50.97    2.62
   3   2  13   42.11    2.83
  -5   3  13   46.70    2.64
   2  -5  13   45.94    2.01
   1   2 -13   32.40    1.92
   2  -3 -13   26.24    2.12
   2  -3 -13   30.19    2.36
   1   2 -13   31.43    1.75
  -3   1 -13   33.44    2.18
  -3   1 -13   32.37    2.02
   3  -1  13   31.31    2.16
   3  -1  13   30.38    2.07
  -2   3  13   30.64    2.32
  -2   3  13   29.60    2.33
  -1  -2  13   30.89    1.89
  -1  -2  13   29.36    1.82
  -1  -3 -13   40.09    2.71
   4  -1 -13   42.35    2.28
   4  -1 -13   41.36    2.39
  -3   4 -13   39.74    1.98
  -3   4 -13   34.93    1.87
  -1  -3 -13   42.71    2.59
   3  -4  13   36.38    2.01
   3  -4  13   39.51    2.02
   1   3  13   43.37    2.56
  -4   1  13   33.80    2.24
  -4   1  13   40.40    2.35
   1   3  13   41.50    2.80
   7  -4 -13   -0.37    1.16
  -4  -3 -13    3.49    1.31
   7  -4 -13    1.76    1.15
  -4  -3 -13    0.90    1.16
  -7   4  13    0.49    1.17
   4   3  13    1.77    1.09
   4   3  13    2.16    1.40
   3  -7  13    1.38    0.69
  -7   4  13    2.02    1.19
   3  -7  13    1.94    0.65
  -4   0 -13   29.48    2.20
   4  -4 -13   23.22    1.98
  -4   0 -13   17.74    1.71
   0   4 -13   20.85    1.06
   4  -4 -13   27.97    2.23
   0  -4  13   20.06    1.54
  -4   4  13   21.59    1.92
  -4   4  13   23.76    1.99
   0  -4  13   21.29    1.50
   4   0  13   24.65    2.02
   4   0  13   24.39    1.98
   1  -4 -13    2.71    1.22
  -4   3 -13    3.33    1.06
   1  -4 -13    5.29    1.41
  -4   3 -13    3.65    0.98
   3   1 -13    4.45    1.01
   3   1 -13    5.13    1.05
  -1   4  13    5.23    1.33
  -1   4  13    6.37    1.44
  -3  -1  13    3.81    1.04
  -3  -1  13    4.70    1.04
   4  -3  13    4.00    1.04
  -4   6 -13   23.48    1.32
   6  -2 -13   22.37    1.97
  -2  -4 -13   24.60    2.25
  -2  -4 -13   23.20    2.05
   6  -2 -13   24.42    2.10
   4  -6  13   25.73    1.62
  -6   2  13   26.39    2.20
   2   4  13   29.46    2.58
  -6   2  13   26.50    2.12
   2   4  13   22.37    1.98
  -5  -4 -13    6.69    1.56
  -5  -4 -13    5.27    1.66
   9  -5 -13    4.79    1.66
   5   4  13    9.18    1.91
  -9   5  13    5.00    1.60
  -5  -1 -13    2.96    1.24
  -5  -1 -13    1.02    1.29
   6  -5 -13    5.26    1.29
   6  -5 -13    4.49    1.38
   5   1  13    1.15    1.25
  -6   5  13    4.17    1.22
  -6   5  13    1.44    1.23
   5   1  13    4.35    1.23
   1  -6  13    3.18    0.71
   1  -6  13    4.11    0.74
   3  -5 -13   29.66    2.35
   2   3 -13   26.54    1.64
  -5   2 -13   30.05    2.07
   3  -5 -13   25.72    2.16
   2   3 -13   25.35    1.55
  -5   2 -13   25.20    2.05
  -3   5  13   26.92    2.27
  -2  -3  13   24.85    1.69
   5  -2  13   25.21    2.03
  -2  -3  13   27.57    1.75
  -3   5  13   23.07    2.04
  -5   5 -13   55.66    2.54
   0  -5 -13   58.48    3.28
  -5   5 -13   62.31    2.61
   5   0 -13   57.27    2.86
   5   0 -13   61.09    2.82
   0  -5 -13   59.61    3.21
   0   5  13   51.92    3.22
   5  -5  13   55.77    2.68
  -5   0  13   54.90    2.84
   5  -5  13   58.10    2.59
  -5   0  13   59.92    2.85
   0   5  13   52.46    2.94
   8  -3 -13   11.43    1.81
  -3  -5 -13   12.00    1.72
  -3  -5 -13   13.42    1.88
   5  -8  13   11.61    1.23
   5  -8  13   11.96    1.14
  -8   3  13   11.07    1.76
   3   5  13    9.98    1.95
  -8   3  13   10.71    1.62
  11  -6 -13    9.08    2.01
  -6  -5 -13   10.76    2.07
 -11   6  13    8.43    1.94
   6   5  13   12.73    2.27
   8  -6 -13    1.13    1.36
  -6  -2 -13    0.20    1.27
   6   2  13    1.80    1.39
  -8   6  13   -1.06    1.27
  -6   1 -13   53.70    2.96
   5  -6 -13   51.49    3.04
  -6   1 -13   50.14    2.85
   5  -6 -13   50.65    2.89
  -1  -5  13   46.90    2.09
  -1  -5  13   48.70    2.08
   6  -1  13   50.53    2.81
  -5   6  13   46.94    2.77
  -5   6  13   43.57    2.89
  -6   4 -13    7.69    1.27
  -6   4 -13    9.74    1.36
   2  -6 -13    6.32    1.50
   4   2 -13    8.97    1.25
   4   2 -13    9.37    1.22
   2  -6 -13    8.14    1.54
  -4  -2  13    6.15    1.16
   6  -4  13    7.59    1.28
  -4  -2  13    9.34    1.27
  -2   6  13    9.83    1.62
   6  -4  13    6.14    1.31
  -2   6  13    8.91    1.57
  -1  -6 -13   35.84    2.82
  -6   7 -13   37.60    2.03
  -6   7 -13   40.76    2.04
   7  -1 -13   42.63    2.75
  -1  -6 -13   33.02    2.75
   6  -7  13   36.82    2.22
  -7   1  13   39.47    2.69
   6  -7  13   38.25    2.13
   1   6  13   40.09    3.08
  -7   1  13   41.25    2.59
  -4  -6 -13    9.85    1.84
  10  -4 -13    8.17    1.94
  -4  -6 -13    8.11    1.86
 -10   4  13    8.04    1.80
   6 -10  13    6.72    1.03
   4   6  13    8.77    2.09
   6 -10  13    8.06    1.10
  13  -7 -13    4.39    1.96
  -7  -6 -13    2.45    1.74
 -13   7  13    2.96    1.81
   7   6  13    2.89    1.97
  -7  -3 -13   11.04    2.00
  10  -7 -13    8.20    1.95
 -10   7  13   11.26    2.00
   7   3  13   13.57    2.22
   7  -7 -13   41.66    2.83
   7  -7 -13   42.13    3.02
  -7   0 -13   48.05    2.97
  -7   7  13   48.16    3.02
   0  -7  13   42.42    1.70
   4  -7 -13    9.22    1.62
   3   4 -13   12.72    1.20
   3   4 -13   16.30    1.30
  -7   3 -13   12.72    1.67
   4  -7 -13   17.05    2.01
  -7   3 -13   15.43    1.78
  -3  -4  13   11.38    1.29
  -3  -4  13   13.52    1.35
   7  -3  13   14.76    1.68
  -4   7  13   17.41    2.06
   7  -3  13   12.51    1.76
  -4   7  13   14.85    1.78
   6   1 -13    7.59    1.37
  -7   6 -13    3.90    1.12
   1  -7 -13    4.62    1.51
   6   1 -13    5.56    1.23
   1  -7 -13    4.79    1.56
  -7   6 -13    4.52    1.16
  -1   7  13    5.20    1.48
   7  -6  13    4.79    1.17
  -6  -1  13    8.48    1.46
  -6  -1  13    4.78    1.22
   7  -6  13    3.36    1.20
  -1   7  13    6.67    1.57
   9  -2 -13    0.26    1.44
  -7   9 -13    1.78    0.82
  -2  -7 -13    5.82    1.72
  -7   9 -13    0.00    0.37
   7  -9  13    1.96    1.06
   7  -9  13    3.14    1.00
  -9   2  13    1.07    1.40
   2   7  13    1.71    1.62
  12  -5 -13    3.77    1.82
  -5  -7 -13    2.56    1.62
   5   7  13    3.17    1.77
 -12   5  13    5.10    1.87
   7 -12  13    3.78    1.03
  -8  -4 -13    3.75    1.79
  12  -8 -13    4.22    1.91
   8   4  13    7.53    2.14
 -12   8  13    6.80    1.91
   9  -8 -13   10.49    1.95
  -8  -1 -13   11.35    1.94
   8   1  13    9.43    2.07
  -9   8  13   11.84    1.91
   6  -8 -13   10.05    1.70
  -8   2 -13    8.43    1.67
   6  -8 -13    7.69    1.61
  -6   8  13    9.35    1.70
   8  -2  13   12.15    1.91
  -2  -6  13    9.49    1.10
  -2  -6  13    8.14    1.04
   5   3 -13    5.09    1.19
  -8   5 -13    4.32    1.32
   5   3 -13    5.54    1.14
   3  -8 -13    5.41    1.55
   3  -8 -13    6.26    1.56
  -5  -3  13    4.57    1.20
  -5  -3  13    3.32    1.13
   8  -5  13    5.39    1.46
   8  -5  13    5.81    1.37
  -3   8  13    4.39    1.44
   0  -8 -13    1.25    1.37
   0  -8 -13   -0.16    1.47
  -8   8 -13    0.37    0.98
   8   0 -13    2.33    1.39
  -8   8 -13    1.72    1.02
   8  -8  13   -0.03    1.09
   0   8  13   -0.14    1.43
  -8   0  13    0.98    1.24
  -8   0  13    0.10    1.11
   8  -8  13    0.46    1.00
  -3  -8 -13    9.96    2.02
  11  -3 -13    6.01    1.85
  -3  -8 -13    9.51    1.88
   8 -11  13    7.81    1.28
 -11   3  13    8.50    1.86
   3   8  13   10.67    2.15
   8 -11  13    9.34    1.43
  -6  -8 -13    3.34    1.89
  14  -6 -13    0.77    1.89
 -14   6  13    1.53    1.73
   8 -14  13    2.84    1.01
  -9  -5 -13    0.24    1.74
  14  -9 -13    0.58    1.79
   9   5  13    1.46    2.02
 -14   9  13    1.37    1.88
  -9  -2 -13    1.85    1.64
  11  -9 -13    5.35    1.82
 -11   9  13    5.41    1.76
   9   2  13    5.21    2.01
   8  -9 -13    7.35    1.76
  -9   1 -13    6.07    1.70
   9  -1  13    6.24    1.75
  -1  -8  13    7.63    0.89
  -8   9  13    9.69    1.81
  -1  -8  13    8.15    0.90
   5  -9 -13    1.13    1.35
   4   5 -13    1.14    0.80
   5  -9 -13   -1.38    1.19
   4   5 -13    1.18    0.83
  -9   4 -13    1.97    1.35
  -4  -5  13    0.62    0.98
  -4  -5  13    1.04    1.02
  -5   9  13   -0.41    1.23
   9  -4  13    0.45    1.24
   9  -4  13    1.59    1.33
   2  -9 -13    6.34    1.76
   2  -9 -13    5.84    1.77
   7   2 -13    6.45    1.48
  -9   7 -13    4.13    1.35
   9  -7  13    6.89    1.49
  -7  -2  13    6.42    1.52
   9  -7  13    5.48    1.51
  -7  -2  13    7.68    1.48
  -2   9  13    9.00    1.67
  -9  10 -13    7.81    1.26
  10  -1 -13    6.76    1.76
  -1  -9 -13    5.99    1.90
 -10   1  13    6.71    1.78
   9 -10  13    8.58    1.62
   9 -10  13    8.13    1.38
   1   9  13    8.49    1.90
  13  -4 -13    4.02    1.87
  -4  -9 -13    4.18    2.01
   9 -13  13    5.47    1.34
 -13   4  13    5.94    1.99
 -10  -3 -13    0.97    1.79
  13 -10 -13    2.04    1.77
 -13  10  13    2.23    1.79
  10   3  13    0.69    1.95
 -10   0 -13    4.18    1.75
  10 -10 -13    2.50    1.63
 -10  10  13    4.01    1.66
   7 -10 -13    7.55    1.69
 -10   3 -13    4.79    1.69
   7 -10 -13    8.46    1.79
  -3  -7  13    7.49    1.13
  10  -3  13    5.24    1.81
  -3  -7  13    6.83    1.17
  -7  10  13    7.23    1.67
   4 -10 -13   16.54    2.21
   6   4 -13   13.68    1.59
 -10   6 -13   18.53    2.08
   4 -10 -13   15.77    2.22
  -4  10  13   17.03    2.01
  10  -6  13   18.51    2.31
  10  -6  13   20.90    2.18
  -6  -4  13   16.80    1.89
  -6  -4  13   18.96    1.90
   1 -10 -13    5.64    1.81
   1 -10 -13    1.75    1.52
   9   1 -13    4.38    1.58
 -10   9 -13    2.33    1.18
  10  -9  13    2.96    1.31
  10  -9  13    3.95    1.54
  -9  -1  13    2.90    1.50
  -1  10  13    2.69    1.46
  -2 -10 -13    2.66    1.84
  12  -2 -13    2.42    1.78
  10 -12  13    6.11    1.53
 -12   2  13    4.99    1.91
 -11  -1 -13   -0.32    1.74
  12 -11 -13    2.55    1.67
  11   1  13    2.79    2.01
 -12  11  13    1.40    1.58
 -11   2 -13    5.29    1.81
   9 -11 -13    2.48    1.62
  11  -2  13    4.92    1.88
  -2  -9  13    2.90    0.90
  -2  -9  13    3.00    0.89
  -9  11  13    2.60    1.54
   5   6 -13    3.99    0.96
   6 -11 -13    3.31    1.54
 -11   5 -13    6.84    1.82
   6 -11 -13    2.34    1.51
  11  -5  13    8.20    1.94
  -5  -6  13    3.17    1.23
  -5  -6  13    4.45    1.20
  -6  11  13    2.23    1.43
   3 -11 -13   10.98    2.06
   8   3 -13   16.97    2.06
 -11   8 -13   16.79    2.11
   3 -11 -13   18.21    2.48
  -8  -3  13   18.43    2.01
  -8  -3  13   18.70    2.15
  11  -8  13   17.73    2.34
  -3  11  13   17.20    2.00
  11   0 -13    4.31    1.79
   0 -11 -13    4.17    1.96
  11 -11  13    4.11    1.62
 -11   0  13    7.27    1.94
  14  -3 -13   -0.09    1.75
  -3 -11 -13    0.87    1.87
  11 -14  13    2.96    1.45
 -14   3  13    3.36    1.89
  11 -12 -13    3.04    1.80
 -12   1 -13   -0.48    1.68
 -11  12  13    0.73    1.53
  12  -1  13    1.64    1.87
 -12   4 -13   10.69    2.15
   8 -12 -13    8.94    1.99
  -8  12  13    9.18    1.85
  -4  -8  13   12.76    1.55
  12  -4  13   10.90    2.30
   5 -12 -13    6.26    1.87
 -12   7 -13    3.82    1.69
   5 -12 -13    4.52    1.68
  -7  -5  13    5.53    1.47
  -5  12  13    2.35    1.46
  12  -7  13    3.43    1.74
  10   2 -13    3.78    1.64
   2 -12 -13    1.54    1.71
  12 -10  13    2.33    1.68
 -10  -2  13    3.03    1.63
  13  -1 -13    1.40    1.82
  -1 -12 -13    1.04    1.86
 -13   1  13   -0.14    1.62
  12 -13  13   -0.86    1.53
  10 -13 -13    7.07    2.00
 -13   3 -13    2.60    1.83
  13  -3  13    1.65    1.91
  -3 -10  13    5.42    1.18
 -13   6 -13    2.12    1.78
   7 -13 -13    2.41    1.66
  13  -6  13    1.05    1.85
  -6  -7  13    3.77    1.40
   4 -13 -13    3.89    1.92
 -13   9 -13    0.90    1.53
  13  -9  13    3.16    1.94
  -9  -4  13    3.83    1.65
   1 -13 -13    4.84    2.06
  13 -12  13    2.24    1.77
 -12  -1  13    5.67    1.94
 -14   5 -13    2.08    1.92
   9 -14 -13    3.54    1.82
  14  -5  13   -0.06    1.85
  -5  -9  13    0.89    1.26
 -14   8 -13    0.65    1.70
   6 -14 -13    3.22    1.83
  -8  -6  13    1.99    1.58
  14  -8  13    3.70    2.01
   3 -14 -13    1.14    1.81
  14 -11  13    3.02    1.99
 -11  -3  13   -0.12    1.62
   0  -1 -14  371.47   11.37
   0  -1 -14  368.89   11.33
   1   0 -14  363.53   11.19
   1   0 -14  357.21   11.16
  -1   1 -14  359.74   11.14
  -1   1 -14  370.28   11.15
  -1   0  14  349.44   11.16
   0   1  14  382.21   11.35
  -1   0  14  385.66   11.22
   1  -1  14  372.93   11.14
   1  -1  14  357.06   11.18
   0   1  14  366.23   11.37
   0   2 -14  343.69   10.42
   0   2 -14  352.00   10.49
  -2   0 -14  347.58   10.77
   2  -2 -14  348.84   10.80
  -2   0 -14  348.05   10.70
   2  -2 -14  336.50   10.79
   2   0  14  328.91   10.75
  -2   2  14  359.49   10.84
   0  -2  14  329.07   10.50
  -2   2  14  340.28   10.79
   0  -2  14  355.59   10.51
   2   0  14  381.00   10.79
   3  -1 -14  158.37    5.51
  -1  -2 -14  154.93    5.72
   3  -1 -14  158.99    5.47
  -1  -2 -14  156.00    5.61
  -2   3 -14  157.52    5.24
  -2   3 -14  156.55    5.16
  -3   1  14  164.41    5.50
   2  -3  14  153.68    5.21
   1   2  14  160.34    5.85
  -3   1  14  158.74    5.52
   1   2  14  157.97    5.60
   2  -3  14  149.20    5.24
   4  -3 -14  109.99    4.50
   4  -3 -14  112.41    4.37
  -3  -1 -14  107.11    4.31
  -3  -1 -14  117.72    4.54
  -1   4 -14  111.39    3.67
   3   1  14  119.41    4.39
   1  -4  14  110.69    3.99
  -4   3  14  112.82    4.45
  -4   3  14  113.80    4.49
   3   1  14  113.02    4.55
   1  -4  14  115.82    3.94
   1  -3 -14  315.64    9.90
   2   1 -14  310.49    9.44
   2   1 -14  303.64    9.44
   1  -3 -14  295.19    9.80
  -3   2 -14  314.31    9.52
  -3   2 -14  314.30    9.53
  -1   3  14  313.43    9.85
   3  -2  14  310.37    9.50
  -2  -1  14  306.99    9.49
   3  -2  14  304.97    9.57
  -2  -1  14  317.67    9.44
  -1   3  14  291.73    9.83
  -3   5 -14  174.41    5.35
   5  -2 -14  170.07    6.01
  -3   5 -14  177.90    5.46
  -2  -3 -14  167.32    6.15
  -2  -3 -14  175.20    6.35
   5  -2 -14  173.64    6.16
   2   3  14  182.62    6.18
   2   3  14  176.09    6.45
   3  -5  14  161.25    5.55
  -5   2  14  178.06    6.10
  -5   2  14  171.79    6.12
   3  -5  14  173.51    5.51
  -4  -2 -14  180.15    6.57
  -4  -2 -14  187.53    6.70
   6  -4 -14  194.16    6.75
   6  -4 -14  193.64    6.59
   4   2  14  191.09    6.82
  -6   4  14  185.45    6.57
   2  -6  14  175.88    5.78
   4   2  14  189.14    6.53
  -6   4  14  179.26    6.60
   2  -6  14  185.70    5.69
  -4   1 -14  411.24   12.51
   3  -4 -14  413.45   12.71
   1   3 -14  413.52   12.01
   3  -4 -14  404.43   12.77
   1   3 -14  420.05   12.14
  -4   1 -14  402.58   12.58
  -1  -3  14  406.24   12.16
   4  -1  14  418.12   12.53
  -3   4  14  404.03   12.68
  -3   4  14  423.66   12.79
   4  -1  14  399.74   12.59
  -1  -3  14  424.19   12.14
  -4   4 -14  276.43    8.79
   0  -4 -14  290.72    9.53
  -4   4 -14  304.30    8.87
   4   0 -14  294.88    9.05
   0  -4 -14  280.24    9.40
   4   0 -14  293.51    9.11
   0   4  14  289.99    9.49
   4  -4  14  289.91    8.85
   4  -4  14  273.31    8.90
  -4   0  14  292.58    9.05
   0   4  14  285.66    9.31
  -4   0  14  282.44    9.06
  -3  -4 -14  196.77    7.15
   7  -3 -14  201.71    7.10
  -3  -4 -14  176.98    6.86
  -7   3  14  199.49    7.05
   3   4  14  209.49    7.40
   4  -7  14  191.04    6.19
  -7   3  14  207.11    7.02
   4  -7  14  200.65    6.11
  -5  -3 -14  111.40    4.89
   8  -5 -14  106.02    4.81
  -5  -3 -14  108.01    4.68
  -8   5  14  108.00    4.79
   5   3  14  110.28    5.02
   5  -5 -14  371.08   12.29
  -5   0 -14  388.78   12.17
   5  -5 -14  390.43   12.24
  -5   0 -14  405.40   12.35
   5   0  14  402.07   12.19
   5   0  14  395.81   12.36
   0  -5  14  399.13   11.44
  -5   5  14  382.53   12.21
  -5   5  14  387.63   12.27
   0  -5  14  397.02   11.45
   2  -5 -14  173.93    6.53
  -5   3 -14  185.05    6.15
   3   2 -14  180.32    5.94
   3   2 -14  192.42    6.01
  -5   3 -14  176.85    6.17
   2  -5 -14  179.84    6.57
  -2   5  14  180.88    6.50
  -3  -2  14  175.88    6.00
  -3  -2  14  193.43    6.03
   5  -3  14  182.15    6.14
  -2   5  14  179.61    6.52
  -1  -5 -14  239.13    8.26
  -5   6 -14  234.92    7.48
  -5   6 -14  260.56    7.51
   6  -1 -14  249.35    8.06
  -1  -5 -14  237.63    8.38
   6  -1 -14  243.17    8.14
  -6   1  14  242.82    8.03
   1   5  14  243.21    8.12
   1   5  14  245.58    8.48
  -6   1  14  237.13    8.06
   5  -6  14  239.34    7.66
   5  -6  14  239.18    7.57
  -4  -5 -14   82.11    4.24
   9  -4 -14   85.54    4.31
  -4  -5 -14   86.79    4.31
   4   5  14   87.19    4.62
   5  -9  14   87.71    3.12
  -9   4  14   92.77    4.37
  10  -6 -14   90.56    4.81
  -6  -4 -14  100.29    4.77
 -10   6  14  100.30    4.82
   6   4  14  107.02    5.11
  -6  -1 -14  142.47    5.45
   7  -6 -14  127.26    5.26
   7  -6 -14  133.82    5.47
   6   1  14  127.15    5.45
  -7   6  14  136.44    5.39
   4  -6 -14  252.22    8.42
   2   4 -14  262.80    7.63
  -6   2 -14  252.78    8.25
   2   4 -14  247.59    7.48
  -6   2 -14  243.56    8.27
   4  -6 -14  240.76    8.49
  -4   6  14  249.86    8.38
   6  -2  14  246.83    8.18
  -2  -4  14  258.66    7.69
  -4   6  14  238.94    8.45
  -2  -4  14  246.74    7.69
   1  -6 -14  178.11    6.56
  -6   5 -14  171.42    5.90
   5   1 -14  179.59    6.10
   1  -6 -14  171.81    6.51
   5   1 -14  177.53    6.04
  -6   5 -14  192.10    6.01
   6  -5  14  155.37    5.96
  -1   6  14  171.59    6.34
  -5  -1  14  179.47    6.04
  -1   6  14  168.74    6.46
  -5  -1  14  170.81    6.07
   6  -5  14  183.31    6.00
  -2  -6 -14   77.34    4.11
   8  -2 -14   94.76    4.25
  -6   8 -14   84.45    3.03
   2   6  14   76.79    4.41
   6  -8  14   85.49    3.31
   6  -8  14   80.46    3.36
  -8   2  14   86.93    3.92
  -8   2  14   86.42    4.01
  -5  -6 -14   48.36    3.62
  11  -5 -14   52.16    3.79
   6 -11  14   50.97    2.34
   5   6  14   54.28    3.96
 -11   5  14   56.46    3.70
   6 -11  14   53.10    2.25
  -7  -5 -14   52.75    3.80
  12  -7 -14   51.73    3.84
 -12   7  14   50.82    3.68
   7   5  14   55.66    4.17
  -7  -2 -14   78.41    4.23
   9  -7 -14   78.84    4.22
   7   2  14   86.25    4.50
  -9   7  14   79.35    4.21
   6  -7 -14  150.70    5.99
   6  -7 -14  149.14    5.87
  -7   1 -14  152.97    5.88
  -1  -6  14  161.70    4.96
  -6   7  14  153.76    5.92
   7  -1  14  162.94    5.89
  -1  -6  14  152.32    4.91
  -7   4 -14   78.31    3.58
   3  -7 -14   77.10    3.94
  -7   4 -14   77.22    3.53
   4   3 -14   77.10    3.20
   4   3 -14   77.33    3.18
   3  -7 -14   76.21    3.88
   7  -4  14   81.68    3.57
  -4  -3  14   74.44    3.28
  -4  -3  14   83.58    3.34
   7  -4  14   73.64    3.62
  -3   7  14   71.54    4.16
  -3   7  14   77.31    3.78
   0  -7 -14  160.05    6.29
   7   0 -14  162.99    6.01
  -7   7 -14  153.41    5.41
   0  -7 -14  153.71    6.20
  -7   7 -14  159.65    5.46
  -7   0  14  151.57    5.86
   7  -7  14  166.22    5.56
   7  -7  14  152.84    5.61
   0   7  14  158.69    6.26
  -7   0  14  165.37    5.90
  -3  -7 -14   63.08    3.90
  10  -3 -14   70.54    4.01
  -3  -7 -14   72.10    4.09
   7 -10  14   74.22    3.03
   3   7  14   71.81    4.35
 -10   3  14   74.39    3.98
   7 -10  14   68.40    3.09
  -6  -7 -14   35.13    3.29
  13  -6 -14   34.48    3.44
 -13   6  14   29.39    3.06
   6   7  14   36.31    3.63
  14  -8 -14   18.38    2.97
  -8  -6 -14   21.67    2.97
   8   6  14   23.14    3.14
 -14   8  14   20.44    2.84
  11  -8 -14   87.35    4.77
  -8  -3 -14   90.20    4.76
   8   3  14   87.52    4.89
 -11   8  14   86.82    4.65
  -8   0 -14   51.53    3.47
   8  -8 -14   55.48    3.56
  -8   8  14   56.54    3.41
   5  -8 -14  119.42    4.98
  -8   3 -14  111.45    4.85
   5  -8 -14  112.21    5.05
   3   5 -14  124.08    4.00
   8  -3  14  114.24    4.76
  -5   8  14  123.66    4.91
   8  -3  14  112.06    4.92
  -3  -5  14  117.47    4.20
  -3  -5  14  118.05    4.21
   6   2 -14   66.32    3.32
   2  -8 -14   67.68    3.78
  -8   6 -14   68.23    3.33
   2  -8 -14   71.28    3.91
   8  -6  14   66.99    3.48
  -2   8  14   66.32    3.59
  -6  -2  14   68.89    3.37
  -6  -2  14   65.08    3.26
   8  -6  14   69.28    3.33
   9  -1 -14  111.33    5.05
  -8   9 -14  109.29    4.11
  -1  -8 -14  118.50    5.23
  -8   9 -14  110.45    4.15
  -1  -8 -14  119.66    5.27
   8  -9  14  113.67    4.36
   8  -9  14  110.38    4.50
   1   8  14  113.44    5.21
  -9   1  14  108.22    4.92
  -4  -8 -14   40.62    3.50
  12  -4 -14   35.92    3.36
 -12   4  14   42.02    3.54
   4   8  14   44.66    3.73
   8 -12  14   39.98    2.42
  13  -9 -14   24.73    3.09
  -9  -4 -14   18.88    2.72
 -13   9  14   29.17    3.10
   9   4  14   22.20    3.16
  10  -9 -14   62.74    4.04
  -9  -1 -14   65.41    4.04
 -10   9  14   69.91    4.02
   9   1  14   64.47    4.27
   7  -9 -14   76.01    4.15
  -9   2 -14   74.86    4.08
   7  -9 -14   77.25    4.03
  -7   9  14   84.66    4.04
  -2  -7  14   81.38    3.01
   9  -2  14   78.42    4.27
  -2  -7  14   76.88    3.00
   4  -9 -14   85.88    4.36
   5   4 -14   80.53    3.45
   5   4 -14   80.09    3.48
  -9   5 -14   95.49    4.16
   4  -9 -14   88.93    4.32
  -5  -4  14   89.42    3.69
   9  -5  14   83.20    3.97
   9  -5  14   86.97    4.19
  -5  -4  14   85.33    3.72
  -4   9  14   91.21    4.15
   1  -9 -14  101.32    5.10
  -9   8 -14  109.25    4.40
   8   1 -14  115.70    4.80
   1  -9 -14  103.73    5.04
   9  -8  14  111.25    4.49
  -1   9  14  107.09    4.88
  -8  -1  14  106.47    4.79
   9  -8  14  106.78    4.60
  -8  -1  14  109.94    4.64
  -2  -9 -14   48.55    3.67
  11  -2 -14   47.41    3.62
 -11   2  14   42.19    3.48
   9 -11  14   46.17    2.92
   2   9  14   46.97    3.57
  14  -5 -14   28.02    3.33
  -5  -9 -14   25.21    3.06
 -14   5  14   30.02    3.30
   9 -14  14   32.93    2.29
  12 -10 -14   51.71    3.97
 -10  -2 -14   48.23    3.87
  10   2  14   48.57    4.12
 -12  10  14   52.59    3.90
 -10   1 -14   45.12    3.54
   9 -10 -14   45.42    3.47
  10  -1  14   47.09    3.64
  -9  10  14   52.26    3.39
 -10   4 -14  135.72    5.69
   6 -10 -14  126.97    5.74
   4   6 -14  142.73    4.55
   6 -10 -14  138.99    5.78
   4   6 -14  132.17    4.49
  -4  -6  14  140.29    4.97
  10  -4  14  138.92    5.93
  -6  10  14  135.05    5.57
  -4  -6  14  147.44    4.97
   7   3 -14  120.39    4.76
   3 -10 -14  104.96    5.14
 -10   7 -14  122.49    4.89
   3 -10 -14  110.11    5.20
  -7  -3  14  118.18    4.81
  10  -7  14  112.90    5.08
  10  -7  14  110.65    4.82
  -3  10  14  106.33    4.82
  -7  -3  14  112.59    4.66
   0 -10 -14   59.35    4.07
   0 -10 -14   55.25    3.76
  10   0 -14   55.80    3.67
  10 -10  14   56.40    3.14
 -10   0  14   55.77    3.76
  10 -10  14   58.15    3.45
   0  10  14   52.59    3.61
  13  -3 -14   33.66    3.42
  -3 -10 -14   29.51    3.22
  10 -13  14   33.64    2.67
 -13   3  14   31.41    3.31
 -11  -3 -14   23.09    3.03
  14 -11 -14   12.54    2.63
  11   3  14   17.79    3.03
 -14  11  14   19.29    2.70
 -11   0 -14   37.20    3.42
  11 -11 -14   39.84    3.50
 -11  11  14   37.51    3.25
   8 -11 -14   66.48    4.14
 -11   3 -14   60.30    4.00
  11  -3  14   70.20    4.36
  -8  11  14   67.86    3.83
  -3  -8  14   68.08    2.91
  -3  -8  14   68.97    3.09
   5 -11 -14   81.32    4.34
   5 -11 -14   77.88    4.29
 -11   6 -14   77.52    4.08
   6   5 -14   69.92    3.56
  -6  -5  14   75.95    3.64
  11  -6  14   68.12    4.19
  -6  -5  14   78.10    3.57
  -5  11  14   69.28    3.78
   2 -11 -14   47.53    3.55
   9   2 -14   46.52    3.25
 -11   9 -14   47.08    3.10
   2 -11 -14   51.08    3.72
  -2  11  14   47.21    3.14
  11  -9  14   46.77    3.41
  -9  -2  14   44.84    3.34
  11  -9  14   44.76    3.01
  -1 -11 -14   24.06    2.97
  12  -1 -14   27.25    3.05
 -12   1  14   29.98    3.08
  11 -12  14   27.26    2.64
  13 -12 -14   14.31    2.66
 -12  -1 -14   18.12    2.84
  12   1  14   17.45    3.06
 -13  12  14   18.18    2.64
 -12   2 -14   42.92    3.69
  10 -12 -14   43.25    3.72
 -10  12  14   36.37    3.22
  -2 -10  14   41.88    2.11
  12  -2  14   41.06    3.65
   7 -12 -14   32.02    3.03
 -12   5 -14   42.32    3.42
  12  -5  14   38.93    3.48
  -5  -7  14   41.48    2.60
  -7  12  14   34.71    2.90
 -12   8 -14   47.67    3.39
   4 -12 -14   45.51    3.68
  12  -8  14   51.31    3.71
  -8  -4  14   50.86    3.29
  11   1 -14   22.48    2.70
   1 -12 -14   26.26    3.04
  12 -11  14   26.29    2.72
 -11  -1  14   24.64    2.79
  12 -13 -14   24.68    2.97
 -13   1 -14   18.15    2.84
 -13   4 -14   40.51    3.65
   9 -13 -14   32.75    3.26
  -4  -9  14   36.83    2.44
  13  -4  14   37.20    3.73
 -13   7 -14   24.26    2.75
   6 -13 -14   25.43    2.85
  -7  -6  14   27.97    2.49
  13  -7  14   28.06    3.21
   3 -13 -14   20.04    2.78
 -10  -3  14   16.11    2.29
  13 -10  14   17.71    2.60
 -14   3 -14   22.94    3.02
  14  -3  14   24.12    3.33
   8 -14 -14   21.77    2.76
 -14   6 -14   18.71    2.71
  14  -6  14   23.40    3.18
  -6  -8  14   18.68    2.08
   5 -14 -14   14.79    2.44
  14  -9  14   18.07    2.79
  -9  -5  14   16.95    2.30
   0   0 -15    0.45    1.06
   0   0 -15    0.91    1.07
   0   0  15    2.27    1.14
   0   0  15    1.10    1.08
   2  -1 -15   -0.03    1.07
  -1  -1 -15    0.32    1.15
  -1   2 -15    0.89    0.94
   2  -1 -15    0.09    1.05
  -1   2 -15    0.73    0.96
  -1  -1 -15   -0.03    1.08
   1  -2  15    0.88    1.03
   1  -2  15    0.84    1.06
  -2   1  15   -0.57    1.05
  -2   1  15   -0.76    1.06
   1   1  15   -0.99    1.07
   1   1  15    0.73    1.16
   1   1 -15   -0.15    0.91
   1  -2 -15    0.42    1.13
  -2   1 -15    0.49    1.00
   1   1 -15    0.81    1.00
   1  -2 -15    0.71    1.16
  -1  -1  15   -0.15    0.95
  -1  -1  15    0.07    0.98
  -1   2  15   -1.27    1.07
  -1   2  15    1.37    1.19
   2  -1  15    0.53    1.06
   2  -1  15    1.06    1.08
  -2   4 -15    2.05    0.86
  -2   4 -15    0.94    0.78
  -2  -2 -15    1.84    1.24
   4  -2 -15    0.71    1.06
  -2  -2 -15    1.83    1.17
   4  -2 -15    1.50    1.12
   2  -4  15    1.06    0.89
   2   2  15    0.96    1.28
   2  -4  15    0.03    0.87
  -4   2  15    1.07    1.02
   2   2  15    1.72    1.13
  -4   2  15   -1.09    1.04
   0   3 -15   24.50    1.74
   0   3 -15   23.14    1.59
  -3   0 -15   22.37    1.87
   3  -3 -15   24.78    2.05
   3  -3 -15   25.83    2.20
  -3   0 -15   22.72    2.07
   3   0  15   22.38    1.88
  -3   3  15   28.18    2.25
  -3   3  15   29.28    2.36
   0  -3  15   25.20    1.80
   3   0  15   21.75    1.94
   0  -3  15   24.52    1.92
  -3   3 -15   11.39    1.32
   0  -3 -15   13.42    1.85
   3   0 -15   14.25    1.50
   3   0 -15   12.24    1.47
  -3   3 -15   12.18    1.39
   0  -3 -15   15.88    1.94
  -3   0  15   11.40    1.45
   3  -3  15   12.31    1.39
   0   3  15   14.32    1.83
  -3   0  15   11.17    1.42
   0   3  15   14.75    1.74
   3  -3  15   11.35    1.35
  -3  -3 -15   -0.43    1.13
   6  -3 -15   -0.10    1.05
  -3  -3 -15    1.75    1.35
   6  -3 -15    1.13    1.25
   3  -6  15    0.13    0.75
  -6   3  15    1.31    1.11
   3   3  15    3.21    1.16
  -6   3  15   -0.20    1.14
   3   3  15    0.35    1.35
   3  -6  15    0.88    0.83
   5  -4 -15    7.84    1.51
   5  -4 -15    6.53    1.37
  -4  -1 -15   13.11    1.77
  -4  -1 -15    9.81    1.66
  -5   4  15    8.84    1.62
   1  -5  15    5.55    1.01
   1  -5  15    7.56    1.14
   4   1  15    6.15    1.34
  -5   4  15    5.07    1.36
   4   1  15   11.04    1.72
   2  -4 -15   20.96    2.05
  -4   2 -15   22.58    1.84
  -4   2 -15   22.62    1.93
   2   2 -15   23.56    1.80
   2  -4 -15   23.89    2.25
   2   2 -15   21.35    1.70
   4  -2  15   19.98    1.72
  -2   4  15   26.00    2.31
  -2  -2  15   21.18    1.64
  -2  -2  15   21.67    1.69
  -2   4  15   21.66    2.04
   4  -2  15   18.74    1.79
  -1  -4 -15    0.49    1.19
  -1  -4 -15    1.68    1.30
   5  -1 -15    1.79    1.15
  -4   5 -15    1.20    0.85
   5  -1 -15    2.74    1.05
  -4   5 -15    2.70    0.91
  -5   1  15    1.54    1.11
  -5   1  15    1.63    1.08
   4  -5  15    1.45    0.93
   1   4  15    1.52    1.41
   1   4  15    0.40    1.11
   4  -5  15   -0.31    0.86
   8  -4 -15    3.83    1.55
  -4  -4 -15    5.55    1.52
  -4  -4 -15    3.08    1.50
   4   4  15    4.75    1.74
   4  -8  15    5.26    0.96
   4  -8  15    4.55    0.84
  -8   4  15    3.00    1.53
  -5  -2 -15   21.16    2.15
  -5  -2 -15   20.85    2.25
   7  -5 -15   19.56    2.20
   5   2  15   18.93    2.24
  -7   5  15   22.79    2.24
   2  -7  15   22.80    1.36
   2  -7  15   19.78    1.51
  -5   1 -15    2.62    1.23
   1   4 -15    1.84    0.61
   1   4 -15    3.22    0.86
   4  -5 -15    3.55    1.41
  -5   1 -15    2.76    1.21
   4  -5 -15    5.25    1.38
  -1  -4  15    3.58    0.97
  -4   5  15    3.11    1.37
  -1  -4  15    5.39    0.95
  -4   5  15    4.17    1.39
   5  -1  15    2.73    1.18
   5  -1  15    2.85    1.30
   1  -5 -15   -0.94    1.20
  -5   4 -15   -1.64    0.89
   4   1 -15   -0.81    0.84
  -5   4 -15   -1.00    0.90
   1  -5 -15    0.11    1.24
   4   1 -15    1.02    1.00
  -4  -1  15    0.25    1.01
  -1   5  15    0.59    1.35
  -4  -1  15    0.81    1.03
  -1   5  15    0.98    1.13
   5  -4  15    0.03    0.97
  -2  -5 -15    1.16    1.25
  -5   7 -15   -0.09    0.16
  -2  -5 -15   -0.05    1.28
   7  -2 -15   -1.63    1.09
  -5   7 -15    0.25    0.65
   5  -7  15   -1.60    0.75
   2   5  15    0.94    1.48
  -7   2  15    0.13    1.14
  -7   2  15    0.35    1.20
  -5  -5 -15    1.95    1.43
  10  -5 -15    0.44    1.46
   5 -10  15   -0.65    0.76
   5   5  15   -0.85    1.60
   5 -10  15   -1.06    0.64
 -10   5  15    0.53    1.49
   9  -6 -15    8.20    1.90
  -6  -3 -15    3.72    1.66
  -9   6  15    8.54    1.82
   6   3  15   10.38    2.06
   6  -6 -15    2.46    1.42
   6  -6 -15    3.22    1.32
  -6   0 -15    2.58    1.36
   0  -6  15    0.50    0.76
  -6   6  15    2.53    1.46
   0  -6  15    4.77    0.87
   6   0  15    2.35    1.42
   6   0  15    0.75    1.16
  -6   3 -15    3.13    1.24
   3   3 -15    2.23    0.94
   3  -6 -15    1.38    1.32
   3  -6 -15    4.66    1.44
  -6   3 -15    1.15    1.09
   3   3 -15    2.59    0.96
   6  -3  15    1.52    1.12
  -3   6  15    2.01    1.21
  -3   6  15    3.16    1.43
  -3  -3  15    1.70    1.01
  -3  -3  15    3.02    0.97
   0  -6 -15    6.17    1.62
   0  -6 -15    1.88    1.48
  -6   6 -15    6.15    1.16
  -6   6 -15    6.28    1.13
   6   0 -15    6.40    1.46
   6  -6  15    6.69    1.18
  -6   0  15    4.48    1.35
   6  -6  15    4.76    1.20
  -6   0  15    4.43    1.28
   0   6  15    6.19    1.70
  -3  -6 -15    0.21    1.38
   9  -3 -15    0.36    1.43
  -3  -6 -15    0.65    1.43
   3   6  15    0.35    1.73
  -9   3  15    2.90    1.53
   6  -9  15    0.46    0.98
   6  -9  15   -0.70    0.80
  12  -6 -15    2.30    1.72
  -6  -6 -15   -2.07    1.51
 -12   6  15    0.60    1.60
   6   6  15    2.03    1.88
  -7  -4 -15   -1.37    1.44
  11  -7 -15    0.65    1.63
   7   4  15    2.29    1.86
 -11   7  15   -1.28    1.43
  -7  -1 -15    3.22    1.55
   8  -7 -15    2.34    1.53
  -8   7  15    1.97    1.52
   7   1  15    0.95    1.48
   2   5 -15    0.96    0.59
   5  -7 -15    0.15    1.21
  -7   2 -15    0.18    1.21
   2   5 -15   -2.00    0.65
   5  -7 -15    0.91    1.24
  -2  -5  15   -0.02    0.83
  -5   7  15   -1.39    1.25
  -2  -5  15    0.52    0.83
   7  -2  15   -0.33    1.12
   5   2 -15   -0.49    0.98
  -7   5 -15    0.86    1.10
   5   2 -15   -0.88    0.88
   2  -7 -15    0.73    1.40
   2  -7 -15   -0.85    1.26
  -2   7  15    0.81    1.33
  -5  -2  15    0.78    1.02
  -5  -2  15   -0.06    1.02
   7  -5  15   -0.87    1.00
   7  -5  15    0.54    1.10
   8  -1 -15   21.02    2.29
  -7   8 -15   20.09    1.63
  -7   8 -15   19.39    1.64
  -1  -7 -15   20.99    2.33
  -1  -7 -15   21.98    2.43
  -8   1  15   18.62    2.03
  -8   1  15   15.76    2.00
   1   7  15   18.39    2.37
   7  -8  15   20.37    1.88
   7  -8  15   19.09    1.72
  -4  -7 -15   -0.36    1.59
  11  -4 -15   -0.17    1.53
   7 -11  15    2.32    0.99
   7 -11  15   -0.72    0.92
 -11   4  15    0.86    1.52
   4   7  15    0.87    1.73
  -7  -7 -15    2.40    1.94
  14  -7 -15   -3.06    1.62
 -14   7  15    7.51    2.23
  -8  -5 -15   -2.49    1.51
  13  -8 -15    0.32    1.76
   8   5  15   -0.89    1.99
 -13   8  15    1.78    1.86
  10  -8 -15    3.79    1.68
  -8  -2 -15    2.56    1.68
 -10   8  15    0.92    1.55
   8   2  15    2.38    1.79
   7  -8 -15   -0.57    1.30
  -8   1 -15   -1.43    1.28
  -7   8  15    1.53    1.51
  -1  -7  15    0.30    0.74
  -1  -7  15    0.59    0.72
   4   4 -15    3.46    1.00
   4   4 -15    4.36    1.04
   4  -8 -15    5.21    1.72
   4  -8 -15    4.78    1.52
  -8   4 -15    3.04    1.40
   8  -4  15    5.55    1.38
   8  -4  15    5.26    1.50
  -4   8  15    1.81    1.39
  -4  -4  15    3.33    1.08
  -4  -4  15    5.59    1.23
   1  -8 -15    4.95    1.64
  -8   7 -15    3.33    1.26
   1  -8 -15    5.45    1.75
   7   1 -15    4.07    1.46
   8  -7  15    5.98    1.37
  -1   8  15    5.28    1.72
  -7  -1  15    3.33    1.26
   8  -7  15    5.69    1.41
  -7  -1  15    5.66    1.47
  -2  -8 -15    2.78    1.71
  -8  10 -15    1.04    0.78
  10  -2 -15   -1.40    1.42
   8 -10  15    0.12    0.99
   2   8  15   -2.19    1.45
 -10   2  15   -0.15    1.40
   8 -10  15    1.05    1.13
  13  -5 -15    0.31    1.81
  -5  -8 -15    2.04    1.84
   5   8  15    1.60    2.01
   8 -13  15    2.92    1.10
 -13   5  15    1.70    1.83
  -9  -3 -15   -1.60    1.57
  12  -9 -15    0.42    1.65
   9   3  15   -1.16    1.71
 -12   9  15    1.85    1.67
  -9   0 -15    1.39    1.56
   9  -9 -15    0.96    1.49
  -9   9  15   -1.93    1.35
   9   0  15   -0.95    1.49
   6  -9 -15    5.49    1.65
   6  -9 -15    3.42    1.66
  -9   3 -15    0.14    1.39
   9  -3  15    4.75    1.65
  -3  -6  15    3.63    1.03
  -6   9  15    6.17    1.71
  -3  -6  15    4.91    1.13
  -9   6 -15    1.37    1.29
   3  -9 -15    0.10    1.36
   6   3 -15   -0.33    1.06
   3  -9 -15   -0.55    1.43
   9  -6  15   -0.12    1.22
  -6  -3  15   -0.30    1.13
  -3   9  15    0.03    1.34
  -6  -3  15   -0.14    1.07
   9  -6  15    0.08    1.12
   0  -9 -15    4.23    1.69
  -9   9 -15    2.12    1.14
   9   0 -15    2.47    1.47
   0  -9 -15    0.49    1.61
  -9   0  15    2.95    1.59
   0   9  15   -1.26    1.43
   9  -9  15    1.89    1.13
   9  -9  15    1.61    1.27
  12  -3 -15    0.56    1.66
  -3  -9 -15    1.82    1.79
   3   9  15    1.05    1.71
   9 -12  15   -1.98    1.07
 -12   3  15    2.82    1.67
  14 -10 -15   -2.13    1.70
 -10  -4 -15   -2.52    1.68
 -14  10  15   -0.42    1.73
  10   4  15   -0.53    1.90
  11 -10 -15    4.00    1.85
 -10  -1 -15    3.40    1.80
  10   1  15    4.13    2.01
 -11  10  15    1.47    1.68
   8 -10 -15    2.36    1.57
 -10   2 -15    0.26    1.47
  -2  -8  15    0.91    0.80
  -2  -8  15    1.08    0.84
  -8  10  15    1.35    1.48
  10  -2  15   -0.41    1.53
 -10   5 -15    6.09    1.62
   5   5 -15    5.23    1.07
   5 -10 -15    2.18    1.65
   5   5 -15    2.46    1.02
   5 -10 -15    5.46    1.70
  -5  -5  15    4.27    1.30
  10  -5  15    0.82    1.48
  -5  10  15    5.40    1.61
  -5  -5  15    6.06    1.30
   2 -10 -15    0.07    1.53
 -10   8 -15   -0.68    1.22
   8   2 -15   -0.67    1.28
   2 -10 -15   -1.71    1.34
  10  -8  15   -1.51    1.21
  -8  -2  15   -1.00    1.25
  -2  10  15    1.59    1.47
  -8  -2  15   -1.91    1.08
  10  -8  15    1.16    1.20
  -1 -10 -15   -0.86    1.65
  11  -1 -15    2.42    1.61
  10 -11  15    0.15    1.25
   1  10  15    0.89    1.56
 -11   1  15   -0.39    1.45
  -4 -10 -15   -0.51    1.81
  14  -4 -15   -0.41    1.83
  10 -14  15    1.94    1.28
 -14   4  15    1.28    1.80
 -11  -2 -15    3.19    1.93
  13 -11 -15    3.96    1.92
 -13  11  15    1.03    1.64
  11   2  15    1.43    2.03
  10 -11 -15    1.17    1.61
 -11   1 -15    1.77    1.72
 -10  11  15    0.73    1.63
   7 -11 -15    2.85    1.67
 -11   4 -15    0.66    1.47
  -4  -7  15    0.13    1.02
  11  -4  15    1.97    1.72
  -7  11  15    2.45    1.58
   4 -11 -15    1.90    1.74
 -11   7 -15    1.54    1.46
   7   4 -15    1.38    1.16
   4 -11 -15    2.22    1.54
  -7  -4  15    0.42    1.28
  -7  -4  15    1.73    1.21
  11  -7  15    2.27    1.62
  -4  11  15    1.39    1.43
  10   1 -15   -0.92    1.36
   1 -11 -15   -2.28    1.54
  11 -10  15   -0.58    1.34
 -10  -1  15    0.57    1.51
  -2 -11 -15    2.06    1.91
  13  -2 -15    1.60    1.89
 -13   2  15    1.71    1.79
  11 -13  15   -0.12    1.36
  12 -12 -15    2.81    1.79
 -12   0 -15   -0.36    1.75
 -12  12  15    0.17    1.64
  12   0  15    0.21    1.88
   9 -12 -15    0.14    1.64
 -12   3 -15   -0.43    1.60
  12  -3  15    4.42    1.91
  -3  -9  15   -1.15    0.91
  -9  12  15    0.72    1.46
 -12   6 -15   -0.98    1.51
   6 -12 -15    1.98    1.75
  -6  -6  15   -0.36    1.26
  -6  12  15   -1.03    1.34
  12  -6  15   -0.70    1.45
   3 -12 -15    0.90    1.74
  12  -9  15   -2.12    1.43
  -9  -3  15   -0.62    1.49
   0 -12 -15    1.13    1.92
  12   0 -15   -1.57    1.65
 -12   0  15   -0.95    1.61
  12 -12  15    0.57    1.51
 -13   2 -15    0.18    1.76
  11 -13 -15   -1.84    1.61
  13  -2  15   -0.57    1.69
 -13   5 -15   -1.91    1.55
   8 -13 -15    4.26    1.87
  -5  -8  15    0.76    1.21
  13  -5  15    0.20    1.77
   5 -13 -15    1.97    1.72
 -13   8 -15    2.50    1.64
  13  -8  15   -0.08    1.75
  -8  -5  15    0.10    1.43
   2 -13 -15   -2.61    1.61
 -11  -2  15    2.74    1.82
  13 -11  15    2.42    1.91
 -14   4 -15   -2.16    1.68
  10 -14 -15   -2.67    1.64
  14  -4  15   -0.81    1.92
  -4 -10  15    1.35    1.09
 -14   7 -15    1.97    1.78
   7 -14 -15    0.47    1.74
  -7  -7  15    0.35    1.45
  14  -7  15    0.44    1.84
   4 -14 -15    3.34    1.93
  14 -10  15    2.77    2.03
 -10  -4  15    0.67    1.64
  -1   0 -16   84.48    3.64
   1  -1 -16   76.39    3.60
   1  -1 -16   81.12    3.59
   0   1 -16   76.67    3.43
  -1   0 -16   83.27    3.61
   0   1 -16   76.16    3.36
  -1   1  16   73.55    3.60
   0  -1  16   74.30    3.46
   1   0  16   79.90    3.51
   0  -1  16   83.32    3.50
  -1   1  16   78.78    3.58
   1   0  16   82.02    3.70
  -1   3 -16    2.66    0.98
   3  -2 -16    1.67    1.19
  -2  -1 -16    3.81    1.26
   3  -2 -16    1.39    1.09
  -2  -1 -16    1.03    1.18
   1  -3  16    5.92    1.23
  -3   2  16    1.36    1.22
   1  -3  16    4.20    1.14
   2   1  16    2.53    1.33
  -3   2  16    5.24    1.36
   2   1  16    2.62    1.23
   0  -2 -16    5.50    1.44
   0  -2 -16    4.91    1.46
   2   0 -16    5.93    1.30
   2   0 -16    3.56    1.17
  -2   2 -16    5.30    1.20
   0   2  16    6.24    1.54
  -2   0  16    5.69    1.28
  -2   0  16    4.23    1.30
   2  -2  16    3.97    1.14
   2  -2  16    4.06    1.19
   0   2  16    2.51    1.21
   5  -3 -16    3.82    1.33
  -3  -2 -16    2.68    1.37
   5  -3 -16    4.53    1.25
  -3  -2 -16    4.60    1.29
  -2   5 -16    2.48    0.71
   3   2  16    4.20    1.45
   2  -5  16    4.07    1.00
   2  -5  16    4.25    1.10
   3   2  16    4.34    1.27
  -5   3  16    2.13    1.17
  -5   3  16    3.64    1.33
  -3   1 -16    4.05    1.21
   1   2 -16    3.20    0.99
   2  -3 -16    4.25    1.34
  -3   1 -16    3.56    1.22
   1   2 -16    4.53    1.15
   2  -3 -16    4.40    1.36
  -1  -2  16    4.38    1.09
  -1  -2  16    3.95    1.16
  -2   3  16    1.40    1.25
   3  -1  16    2.38    1.16
   3  -1  16    1.25    1.07
  -2   3  16    2.13    1.32
  -1  -3 -16   14.54    1.82
   4  -1 -16   13.72    1.56
  -3   4 -16   12.72    1.37
  -3   4 -16   13.28    1.32
  -1  -3 -16   13.86    1.85
   4  -1 -16    9.91    1.55
  -4   1  16    8.99    1.48
   3  -4  16   11.05    1.39
  -4   1  16   12.50    1.56
   3  -4  16   13.17    1.41
   1   3  16   10.13    1.81
   1   3  16    8.78    1.60
   7  -4 -16    8.30    1.71
  -4  -3 -16    7.89    1.64
  -4  -3 -16    6.62    1.66
   3  -7  16    7.44    0.97
   3  -7  16    6.81    1.11
   4   3  16   10.71    2.02
  -7   4  16   10.75    1.78
   4  -4 -16    0.55    1.22
  -4   0 -16    0.41    1.17
   0   4 -16    0.77    0.76
   4  -4 -16    0.84    1.14
   0   4 -16    1.13    0.70
  -4   0 -16   -0.20    1.06
  -4   4  16    1.39    1.20
  -4   4  16    0.03    1.24
   4   0  16    0.84    1.07
   4   0  16    0.38    1.13
   0  -4  16    0.51    0.94
   0  -4  16    3.26    1.02
   1  -4 -16   15.83    2.00
   3   1 -16   11.18    1.45
   1  -4 -16   11.63    1.79
   3   1 -16    9.70    1.34
  -4   3 -16    9.16    1.35
  -4   3 -16   13.51    1.51
  -3  -1  16   10.19    1.41
  -3  -1  16   11.31    1.48
   4  -3  16   10.14    1.39
  -1   4  16   10.60    1.78
   4  -3  16   10.81    1.46
  -1   4  16   12.07    1.76
  -4   6 -16   23.84    1.64
  -4   6 -16   26.58    1.51
  -2  -4 -16   20.66    2.22
  -2  -4 -16   22.94    2.31
   6  -2 -16   26.04    2.32
   4  -6  16   20.53    1.68
   2   4  16   22.81    2.47
  -6   2  16   23.69    2.15
   2   4  16   22.68    2.39
  -6   2  16   21.90    2.10
   4  -6  16   26.38    1.76
  -5  -4 -16    0.93    1.47
   9  -5 -16    0.73    1.44
   4  -9  16    3.44    0.74
   5   4  16    1.64    1.75
  -9   5  16    3.09    1.62
   4  -9  16    3.00    0.87
   6  -5 -16   20.65    2.32
   6  -5 -16   16.05    1.93
  -5  -1 -16   17.28    2.12
  -5  -1 -16   19.55    2.05
   5   1  16   17.02    2.12
   5   1  16   16.44    1.88
   1  -6  16   14.78    1.29
   1  -6  16   14.71    1.33
  -6   5  16   20.35    2.21
  -5   2 -16   38.24    2.58
   3  -5 -16   43.88    2.83
  -5   2 -16   48.01    2.73
   3  -5 -16   35.52    2.90
   2   3 -16   44.17    2.30
   2   3 -16   45.58    2.15
  -2  -3  16   40.50    2.30
  -3   5  16   44.84    2.99
   5  -2  16   39.25    2.67
   5  -2  16   37.47    2.54
  -2  -3  16   39.70    2.25
  -3   5  16   43.40    2.92
  -5   5 -16    7.45    1.25
  -5   5 -16   11.40    1.35
   5   0 -16    8.01    1.35
   0  -5 -16    9.79    1.81
   0  -5 -16    7.01    1.62
   5   0 -16    7.64    1.45
   5  -5  16    9.50    1.35
   0   5  16    8.68    1.57
   0   5  16   10.84    1.91
  -5   0  16   12.06    1.59
  -5   0  16    8.28    1.46
  -3  -5 -16   12.08    1.94
  -3  -5 -16   13.23    2.00
   8  -3 -16   10.33    1.89
   5  -8  16   14.31    1.45
   3   5  16   15.66    2.34
   5  -8  16   10.38    1.23
  -8   3  16   11.53    1.89
  -6  -5 -16    1.19    1.63
  11  -6 -16    6.31    1.91
   6   5  16   -0.19    1.72
 -11   6  16    2.38    1.70
  -6  -2 -16   24.49    2.44
   8  -6 -16   29.38    2.75
  -8   6  16   22.88    2.44
   6   2  16   26.75    2.86
   5  -6 -16   28.59    2.49
  -6   1 -16   28.90    2.41
   5  -6 -16   24.09    2.47
   6  -1  16   24.77    2.32
   6  -1  16   27.63    2.30
  -5   6  16   29.95    2.61
  -1  -5  16   27.92    1.76
  -1  -5  16   26.28    1.79
  -6   4 -16    1.54    1.15
   2  -6 -16    0.99    1.32
   2  -6 -16    0.15    1.37
   4   2 -16    3.02    1.05
   4   2 -16    2.70    1.08
  -6   4 -16    1.32    1.10
  -4  -2  16    1.87    1.03
   6  -4  16    3.28    1.20
  -2   6  16    3.08    1.53
  -4  -2  16    1.72    1.11
  -2   6  16    1.59    1.46
  -1  -6 -16    0.68    1.35
  -6   7 -16    0.57    0.91
   7  -1 -16   -0.26    1.22
  -6   7 -16   -0.45    0.80
  -1  -6 -16    1.08    1.36
  -7   1  16   -0.12    1.14
   1   6  16    1.73    1.56
   6  -7  16   -0.72    0.98
  -7   1  16    0.69    1.23
   6  -7  16    1.06    0.96
  -4  -6 -16   -0.33    1.49
  10  -4 -16    1.21    1.57
   6 -10  16    2.39    0.89
 -10   4  16   -1.03    1.42
   4   6  16    2.08    1.80
  -7  -6 -16    3.47    1.90
  13  -7 -16    0.40    1.82
 -13   7  16    3.80    2.02
   7   6  16   -0.63    1.87
  10  -7 -16    9.52    2.03
  -7  -3 -16    6.52    1.84
 -10   7  16    4.77    1.81
   7   3  16    6.76    2.06
  -7   0 -16    3.33    1.50
   7  -7 -16    0.98    1.44
   0  -7  16   -0.23    0.71
  -7   7  16    1.74    1.44
   0  -7  16    0.42    0.76
   7   0  16    2.18    1.52
   3   4 -16   10.38    1.18
   3   4 -16   10.65    1.28
   4  -7 -16    6.52    1.61
  -7   3 -16   12.16    1.73
   4  -7 -16    9.00    1.76
  -3  -4  16   11.60    1.40
  -4   7  16   11.61    1.87
   7  -3  16   11.95    1.70
  -3  -4  16   13.28    1.48
   1  -7 -16    3.09    1.57
   1  -7 -16    5.53    1.67
  -7   6 -16    5.62    1.37
  -7   6 -16    7.73    1.42
   6   1 -16    4.88    1.38
  -6  -1  16    6.13    1.40
  -1   7  16    4.64    1.67
   7  -6  16    6.16    1.40
   7  -6  16    5.90    1.29
  -6  -1  16    4.55    1.41
  -2  -7 -16    2.88    1.66
   9  -2 -16    3.21    1.60
  -7   9 -16    1.28    0.75
  -7   9 -16    1.08    0.82
   2   7  16    0.92    1.65
   7  -9  16    4.16    1.12
   7  -9  16    1.03    1.18
  -9   2  16    3.52    1.57
  -5  -7 -16    0.55    1.66
  12  -5 -16    0.56    1.79
   5   7  16   -1.24    1.79
 -12   5  16    2.44    1.76
  12  -8 -16    0.97    1.80
  -8  -4 -16    5.57    2.00
   8   4  16    3.50    2.02
 -12   8  16    5.70    1.93
  -8  -1 -16    1.66    1.50
   9  -8 -16    0.04    1.45
   8   1  16   -1.61    1.54
  -9   8  16    1.27    1.55
   6  -8 -16    9.67    1.84
   6  -8 -16   10.77    1.97
  -8   2 -16    5.87    1.69
  -2  -6  16    9.56    1.22
  -2  -6  16    8.06    1.19
  -6   8  16    9.25    1.85
   5   3 -16    1.30    1.01
  -8   5 -16    0.85    1.27
   3  -8 -16    1.17    1.40
   3  -8 -16    3.29    1.66
   5   3 -16    1.09    1.01
  -3   8  16   -0.67    1.36
  -5  -3  16    1.36    1.09
  -5  -3  16    2.09    1.20
   8  -5  16    2.26    1.20
   8  -5  16    1.12    1.33
   0  -8 -16    7.69    1.81
  -8   8 -16    6.53    1.31
   0  -8 -16    7.61    1.85
   8   0 -16    8.91    1.74
   8  -8  16   10.07    1.64
  -8   0  16    7.74    1.64
  -8   0  16    6.31    1.63
   0   8  16    9.22    2.02
   8  -8  16    6.71    1.37
  -3  -8 -16    3.46    1.78
  11  -3 -16    3.39    1.75
   3   8  16   -0.11    1.63
   8 -11  16    3.11    1.22
 -11   3  16    2.62    1.67
  -6  -8 -16    0.94    1.93
  14  -6 -16   -0.40    1.84
 -14   6  16    2.14    1.97
  -9  -5 -16   -1.58    1.77
  14  -9 -16    1.79    1.99
 -14   9  16   -1.81    1.69
   9   5  16   -2.87    1.95
  11  -9 -16    4.81    1.94
  -9  -2 -16    3.20    1.84
 -11   9  16    1.38    1.67
   9   2  16   -0.12    1.71
   8  -9 -16    1.71    1.58
  -9   1 -16    0.24    1.52
  -1  -8  16    0.18    0.72
  -1  -8  16    3.58    0.81
  -8   9  16    1.20    1.59
   4   5 -16    5.92    1.08
   4   5 -16    2.99    0.94
  -9   4 -16    4.52    1.61
   5  -9 -16    3.63    1.62
   5  -9 -16    5.50    1.78
  -5   9  16    4.75    1.61
   9  -4  16    7.04    1.72
  -4  -5  16    7.76    1.35
  -4  -5  16    8.62    1.37
   7   2 -16    9.19    1.64
  -9   7 -16    7.74    1.64
   2  -9 -16    8.40    2.05
   2  -9 -16    7.95    2.02
   9  -7  16    7.29    1.53
  -7  -2  16    7.56    1.52
  -7  -2  16    7.31    1.64
  -2   9  16    5.87    1.75
   9  -7  16    8.92    1.71
  -1  -9 -16    0.52    1.68
  10  -1 -16   -0.09    1.51
   9 -10  16   -0.38    1.09
 -10   1  16   -0.60    1.44
   1   9  16    0.07    1.59
  13  -4 -16    0.93    1.83
  -4  -9 -16   -3.03    1.65
 -13   4  16    1.63    1.81
   9 -13  16   -0.77    1.13
 -10  -3 -16   -1.43    1.71
  13 -10 -16   -2.21    1.65
  10   3  16    2.19    2.15
 -13  10  16   -1.35    1.57
  10 -10 -16   -0.84    1.60
 -10   0 -16    0.43    1.61
  10   0  16   -0.44    1.68
 -10  10  16    1.00    1.48
   7 -10 -16    1.68    1.59
 -10   3 -16    4.62    1.70
  -7  10  16    1.51    1.52
  10  -3  16    7.21    1.88
  -3  -7  16    3.20    1.00
  -3  -7  16    3.15    1.05
   6   4 -16    4.83    1.29
   4 -10 -16    5.24    1.74
   4 -10 -16    2.60    1.69
 -10   6 -16    4.75    1.57
  -4  10  16    3.48    1.54
  -6  -4  16    5.67    1.39
  10  -6  16    6.50    1.80
  -6  -4  16    6.11    1.49
   9   1 -16    4.17    1.67
 -10   9 -16    7.13    1.54
   1 -10 -16    2.72    1.81
  10  -9  16    5.46    1.44
  -9  -1  16    3.12    1.63
  -1  10  16    8.56    1.94
  10  -9  16    6.53    1.73
  -2 -10 -16    4.15    2.04
  12  -2 -16    6.03    2.00
  10 -12  16    2.88    1.40
 -12   2  16    2.01    1.75
  12 -11 -16   -0.50    1.66
 -11  -1 -16    2.39    1.87
 -12  11  16    1.04    1.67
  11   1  16    0.21    1.82
 -11   2 -16    5.33    1.86
   9 -11 -16    6.83    2.11
  -2  -9  16    6.18    1.03
  -9  11  16    1.09    1.62
  11  -2  16    6.00    1.95
   6 -11 -16    1.24    1.68
 -11   5 -16   -0.50    1.48
  -5  -6  16   -0.30    1.16
  -6  11  16    1.50    1.56
  11  -5  16   -1.23    1.53
 -11   8 -16    1.73    1.45
   3 -11 -16    1.42    1.72
   8   3 -16   -2.02    1.23
  -8  -3  16   -0.86    1.37
  -8  -3  16    1.37    1.30
  11  -8  16    2.32    1.59
  -3  11  16    0.08    1.37
   0 -11 -16    1.29    1.86
  11   0 -16    0.58    1.55
  11 -11  16    1.09    1.49
 -11   0  16    3.39    1.73
 -12   1 -16   -2.78    1.63
  11 -12 -16   -1.20    1.59
 -11  12  16    1.48    1.63
 -12   4 -16    6.16    1.94
   8 -12 -16    1.97    1.76
  -8  12  16    2.19    1.59
  -4  -8  16    1.38    1.10
  12  -4  16    2.17    1.88
   5 -12 -16    6.24    2.00
 -12   7 -16    6.82    1.85
  12  -7  16    6.34    1.96
  -7  -5  16    2.71    1.50
  -5  12  16    5.67    1.83
   2 -12 -16   -3.57    1.58
  12 -10  16    2.32    1.69
 -10  -2  16   -0.76    1.52
 -13   3 -16    3.82    1.99
  10 -13 -16    0.61    1.77
  -3 -10  16    3.06    1.05
  13  -3  16   -1.14    1.65
 -13   6 -16   -0.85    1.61
   7 -13 -16   -1.50    1.62
  -6  -7  16    2.23    1.34
  13  -6  16   -1.38    1.72
   4 -13 -16    0.20    1.78
  -9  -4  16    0.67    1.50
  13  -9  16   -1.55    1.57
 -14   5 -16   -4.12    1.56
   9 -14 -16   -0.78    1.70
  14  -5  16    2.16    1.97
  -5  -9  16    1.34    1.26
   6 -14 -16    0.31    1.81
  14  -8  16    0.62    1.79
  -8  -6  16   -0.83    1.33
   0  -1 -17  141.47    5.45
   0  -1 -17  144.21    5.44
  -1   1 -17  146.67    5.26
   1   0 -17  142.26    5.29
   1   0 -17  149.40    5.36
  -1   1 -17  150.15    5.30
   0   1  17  144.78    5.48
   0   1  17  140.90    5.48
  -1   0  17  144.84    5.34
   1  -1  17  147.13    5.25
   1  -1  17  135.20    5.36
  -1   0  17  146.63    5.34
   2  -2 -17  289.07    9.54
   2  -2 -17  289.68    9.57
  -2   0 -17  289.69    9.51
   0   2 -17  312.27    9.27
   0   2 -17  280.74    9.15
  -2   0 -17  307.98    9.50
   2   0  17  286.37    9.54
   0  -2  17  275.62    9.25
  -2   2  17  304.74    9.60
  -2   2  17  283.71    9.55
   0  -2  17  305.47    9.27
   2   0  17  304.65    9.49
   3  -1 -17  133.54    5.24
  -2   3 -17  146.96    5.10
  -1  -2 -17  143.97    5.61
   3  -1 -17  151.73    5.43
  -1  -2 -17  146.68    5.58
  -2   3 -17  153.42    5.07
   1   2  17  140.92    5.70
   2  -3  17  149.43    5.13
  -3   1  17  143.02    5.38
  -3   1  17  143.25    5.30
   1   2  17  141.49    5.47
   2  -3  17  140.43    5.18
   4  -3 -17  207.64    7.37
  -3  -1 -17  206.44    7.29
  -1   4 -17  198.97    6.54
  -3  -1 -17  207.59    7.36
   4  -3 -17  212.21    7.29
  -1   4 -17  217.11    6.58
   1  -4  17  204.14    6.83
  -4   3  17  213.82    7.32
   3   1  17  220.59    7.29
   1  -4  17  218.27    6.80
  -4   3  17  215.77    7.38
   3   1  17  195.73    7.38
  -3   2 -17   64.15    3.12
   1  -3 -17   70.53    3.56
  -3   2 -17   67.20    3.15
   2   1 -17   67.57    3.07
   1  -3 -17   62.18    3.49
   2   1 -17   63.88    3.06
  -1   3  17   69.88    3.48
  -2  -1  17   60.87    3.10
   3  -2  17   61.75    3.02
   3  -2  17   58.91    3.14
  -1   3  17   69.23    3.58
  -2  -1  17   64.55    3.01
  -3   5 -17  124.51    4.16
   5  -2 -17  117.19    4.78
   5  -2 -17  121.44    4.99
  -3   5 -17  124.75    4.29
  -2  -3 -17  116.28    5.01
  -2  -3 -17  121.80    5.15
  -5   2  17  118.84    4.91
   2   3  17  116.27    4.82
   3  -5  17  120.17    4.44
  -5   2  17  130.85    4.86
   2   3  17  117.55    5.24
   3  -5  17  129.03    4.37
  -4  -2 -17   74.14    3.91
   6  -4 -17   81.35    3.90
  -4  -2 -17   69.48    3.71
   2  -6  17   71.97    3.10
  -6   4  17   72.62    3.77
  -6   4  17   75.04    3.70
   2  -6  17   70.03    2.91
   4   2  17   79.57    4.12
   3  -4 -17  193.45    6.86
   1   3 -17  209.40    6.29
  -4   1 -17  188.09    6.57
   3  -4 -17  186.45    6.87
   1   3 -17  188.17    6.10
  -4   1 -17  173.26    6.56
  -3   4  17  184.62    6.84
  -3   4  17  194.87    6.91
   4  -1  17  186.89    6.75
  -1  -3  17  187.61    6.31
   4  -1  17  191.07    6.59
  -1  -3  17  188.37    6.23
  -4   4 -17   71.80    3.31
   4   0 -17   79.43    3.49
   0  -4 -17   75.22    3.96
   0  -4 -17   76.52    3.97
  -4   4 -17   80.69    3.29
   4   0 -17   82.12    3.59
  -4   0  17   77.02    3.55
   4  -4  17   73.04    3.41
   0   4  17   77.35    4.02
  -4   0  17   79.38    3.50
   4  -4  17   80.11    3.31
   0   4  17   76.31    3.81
   7  -3 -17   62.42    3.56
  -3  -4 -17   62.83    3.64
  -3  -4 -17   54.93    3.45
   4  -7  17   57.25    2.73
  -7   3  17   58.04    3.44
   3   4  17   59.24    3.82
   4  -7  17   59.56    2.62
  -7   3  17   64.81    3.56
  -5  -3 -17   35.06    2.92
   8  -5 -17   37.11    3.08
   3  -8  17   35.89    1.75
   5   3  17   33.89    3.14
   3  -8  17   35.77    2.02
  -8   5  17   39.28    3.11
   5  -5 -17  178.70    6.47
   5  -5 -17  166.67    6.56
  -5   0 -17  173.47    6.40
   0   5 -17  170.98    5.24
   5   0  17  170.82    6.52
  -5   5  17  174.08    6.53
   5   0  17  180.68    6.38
   0  -5  17  175.24    5.70
  -5   5  17  170.22    6.48
   0  -5  17  173.22    5.70
  -5   3 -17   66.75    3.28
   3   2 -17   75.83    3.21
   2  -5 -17   65.86    3.77
   3   2 -17   71.22    3.14
  -5   3 -17   71.80    3.36
   2  -5 -17   72.03    3.76
  -3  -2  17   75.67    3.20
  -3  -2  17   63.84    3.17
   5  -3  17   73.34    3.32
   5  -3  17   71.38    3.45
  -2   5  17   69.37    3.84
  -2   5  17   72.58    3.78
   6  -1 -17  108.16    4.64
  -1  -5 -17  108.28    4.96
  -1  -5 -17  108.23    4.92
  -5   6 -17  115.21    3.97
  -5   6 -17  106.81    4.03
   5  -6  17  107.12    4.22
  -6   1  17  108.38    4.63
   1   5  17  107.78    5.05
  -6   1  17  107.27    4.52
   5  -6  17  111.88    4.15
   9  -4 -17   97.61    4.77
  -4  -5 -17   91.74    4.60
   4   5  17   95.40    5.09
  -9   4  17   87.37    4.53
   5  -9  17   91.71    3.56
   5  -9  17   93.43    3.39
  10  -6 -17   51.98    3.76
  -6  -4 -17   47.15    3.65
   6   4  17   49.95    3.97
 -10   6  17   48.30    3.64
   7  -6 -17   71.21    3.97
  -6  -1 -17   76.89    3.93
  -7   6  17   73.56    3.98
   6   1  17   71.58    4.18
   1  -7  17   72.61    2.81
   1  -7  17   72.47    2.79
   4  -6 -17   97.56    4.85
  -6   2 -17  109.15    4.57
   2   4 -17  102.52    3.75
   2   4 -17  116.09    3.96
   4  -6 -17  108.24    4.75
  -4   6  17  108.78    4.81
  -2  -4  17  105.23    4.00
   6  -2  17  108.33    4.70
   6  -2  17  118.06    4.59
  -2  -4  17  105.19    4.04
   1  -6 -17  126.43    5.42
   5   1 -17  127.14    4.79
  -6   5 -17  122.70    4.68
   1  -6 -17  116.14    5.28
  -6   5 -17  124.97    4.70
   5   1 -17  131.73    4.89
   6  -5  17  129.45    4.75
  -1   6  17  123.56    5.37
  -5  -1  17  129.35    4.81
  -5  -1  17  103.50    4.65
   8  -2 -17   87.99    4.38
  -6   8 -17   85.36    3.15
  -2  -6 -17   84.10    4.45
   2   6  17   85.29    4.68
  -8   2  17   89.02    4.35
   6  -8  17   89.12    3.48
  11  -5 -17   26.08    2.99
  -5  -6 -17   27.64    2.98
   6 -11  17   28.31    1.92
 -11   5  17   22.73    2.68
   5   6  17   34.39    3.50
  12  -7 -17   24.80    3.04
  -7  -5 -17   28.90    3.09
   7   5  17   26.22    3.34
 -12   7  17   30.79    3.14
  -7  -2 -17   51.05    3.50
   9  -7 -17   52.07    3.73
  -9   7  17   51.13    3.59
   7   2  17   54.23    3.92
  -7   1 -17   74.15    3.87
   6  -7 -17   74.50    4.09
   7  -1  17   64.54    3.94
  -1  -6  17   71.27    2.87
  -1  -6  17   69.53    2.85
  -6   7  17   68.87    3.88
   4   3 -17  141.31    5.14
   3  -7 -17  134.24    5.91
  -7   4 -17  146.03    5.55
   3  -7 -17  146.26    5.94
   4   3 -17  144.83    5.14
  -3   7  17  149.47    5.93
   7  -4  17  144.38    5.50
  -4  -3  17  154.18    5.28
  -4  -3  17  144.43    5.28
   0  -7 -17   71.04    4.12
  -7   7 -17   73.11    3.31
   7   0 -17   80.90    3.95
  -7   7 -17   70.94    3.27
   0  -7 -17   71.04    4.21
   7  -7  17   73.44    3.36
  -7   0  17   75.55    3.85
   7  -7  17   73.16    3.54
  -7   0  17   85.88    3.81
   0   7  17   85.73    4.50
  10  -3 -17   58.70    3.90
  -3  -7 -17   46.25    3.70
   3   7  17   58.83    4.17
 -10   3  17   62.02    3.87
   7 -10  17   54.37    2.69
  13  -6 -17    8.23    2.32
  -6  -7 -17   11.59    2.40
   6   7  17   11.30    2.55
 -13   6  17   11.48    2.39
  14  -8 -17   13.94    2.73
  -8  -6 -17   10.42    2.40
   8   6  17   16.82    3.05
 -14   8  17   13.35    2.59
  11  -8 -17   45.28    3.69
  -8  -3 -17   50.32    3.80
   8   3  17   50.89    4.11
 -11   8  17   40.22    3.45
  -8   0 -17   49.24    3.54
   8  -8 -17   51.15    3.68
   0  -8  17   54.68    2.24
   8   0  17   51.47    3.80
   0  -8  17   49.28    2.05
  -8   8  17   48.61    3.46
   5  -8 -17   70.02    3.81
   3   5 -17   69.29    2.79
   5  -8 -17   61.15    3.88
  -8   3 -17   71.03    3.76
  -3  -5  17   66.14    2.98
  -5   8  17   61.57    3.74
  -3  -5  17   64.47    3.02
   6   2 -17   80.27    3.71
   2  -8 -17   78.18    4.23
   2  -8 -17   74.93    4.30
  -8   6 -17   73.87    3.66
   8  -6  17   79.77    3.65
  -6  -2  17   78.42    3.64
  -2   8  17   75.97    4.17
  -6  -2  17   78.21    3.80
   8  -6  17   72.78    3.82
   9  -1 -17   44.29    3.32
  -1  -8 -17   45.06    3.57
  -8   9 -17   44.22    2.43
   8  -9  17   43.40    2.79
   8  -9  17   47.50    2.67
   1   8  17   41.37    3.50
  -9   1  17   42.62    3.23
  12  -4 -17   25.47    3.06
  -4  -8 -17   22.67    2.88
 -12   4  17   22.58    2.88
   4   8  17   22.88    3.00
  -9  -4 -17   12.65    2.41
  13  -9 -17    9.50    2.42
   9   4  17   15.70    2.82
 -13   9  17   11.64    2.42
  10  -9 -17   46.64    3.79
  -9  -1 -17   49.41    3.76
 -10   9  17   48.34    3.67
   9   1  17   50.36    4.04
   7  -9 -17   53.08    3.67
  -9   2 -17   47.36    3.46
  -7   9  17   50.74    3.47
  -2  -7  17   50.88    2.41
  -2  -7  17   49.69    2.41
   4  -9 -17   28.83    2.82
   4  -9 -17   30.51    2.89
   5   4 -17   30.92    2.19
  -9   5 -17   34.50    2.77
  -5  -4  17   33.79    2.30
  -4   9  17   32.83    2.88
   9  -5  17   30.33    2.74
   9  -5  17   34.29    2.76
  -5  -4  17   36.14    2.48
  -9   8 -17   37.04    2.56
   1  -9 -17   35.39    3.15
   8   1 -17   35.95    2.87
  -8  -1  17   34.10    2.68
  -8  -1  17   30.70    2.77
  -1   9  17   34.42    3.12
   9  -8  17   37.06    2.60
   9  -8  17   33.71    2.75
  -2  -9 -17   21.97    2.81
  11  -2 -17   19.83    2.69
 -11   2  17   20.22    2.68
   2   9  17   19.09    2.59
   9 -11  17   19.76    2.09
  14  -5 -17   13.19    2.68
  -5  -9 -17   13.15    2.58
 -14   5  17    7.78    2.36
 -10  -2 -17   17.94    2.74
  12 -10 -17   15.54    2.57
 -12  10  17   19.00    2.73
  10   2  17   21.33    3.03
   9 -10 -17   30.17    3.14
 -10   1 -17   35.86    3.21
  10  -1  17   39.55    3.51
  -9  10  17   29.64    3.01
  -1  -9  17   32.92    1.68
  -1  -9  17   33.05    1.73
   4   6 -17   34.42    1.85
 -10   4 -17   38.63    3.15
   6 -10 -17   29.46    2.96
  -4  -6  17   33.09    2.24
  -4  -6  17   32.63    2.32
  -6  10  17   30.70    2.84
  10  -4  17   30.45    3.01
 -10   7 -17   37.13    2.90
   7   3 -17   37.85    2.71
   3 -10 -17   32.21    3.18
  10  -7  17   37.71    2.87
  10  -7  17   32.98    2.92
  -7  -3  17   33.03    2.62
  -7  -3  17   32.36    2.68
  -3  10  17   30.97    2.93
  10   0 -17   27.96    2.77
   0 -10 -17   26.30    3.01
   0  10  17   27.86    2.91
  10 -10  17   23.01    2.38
 -10   0  17   25.58    2.74
  13  -3 -17   18.24    2.79
  -3 -10 -17   20.21    2.89
 -13   3  17   20.35    2.86
  10 -13  17   24.11    2.30
 -11   0 -17   16.27    2.55
  11 -11 -17   16.38    2.61
 -11  11  17   14.28    2.48
  11   0  17   13.43    2.74
 -11   3 -17   32.53    3.24
   8 -11 -17   23.24    2.92
  -8  11  17   34.74    3.10
  -3  -8  17   30.75    2.07
  11  -3  17   37.37    3.33
   5 -11 -17   52.11    3.99
 -11   6 -17   47.82    3.49
  11  -6  17   47.76    3.73
  -5  11  17   51.61    3.52
  -6  -5  17   55.62    3.17
   2 -11 -17   31.01    3.25
   9   2 -17   41.59    3.14
  11  -9  17   31.42    2.94
  -9  -2  17   36.97    3.10
  -2  11  17   29.55    2.91
  12  -1 -17   22.34    2.94
  -1 -11 -17   19.04    3.02
  11 -12  17   21.40    2.37
 -12   1  17   21.85    2.75
  10 -12 -17   16.15    2.75
 -12   2 -17   18.21    2.77
 -10  12  17   17.73    2.41
 -12   5 -17   31.07    3.08
   7 -12 -17   28.72    3.07
  -7  12  17   25.61    2.71
  12  -5  17   32.19    3.27
  -5  -7  17   28.38    2.28
   4 -12 -17   25.28    3.07
 -12   8 -17   25.81    2.66
  -8  -4  17   24.26    2.54
  12  -8  17   21.63    2.80
   1 -12 -17   20.88    3.03
 -11  -1  17   29.47    3.09
  12 -11  17   26.67    2.82
   9 -13 -17   16.11    2.68
 -13   4 -17   22.95    2.95
  -4  -9  17   19.94    1.84
  13  -4  17   21.96    2.99
   6 -13 -17   18.91    2.83
 -13   7 -17   26.44    2.91
  13  -7  17   35.67    3.57
  -7  -6  17   27.93    2.53
   3 -13 -17   17.22    2.80
  13 -10  17   17.48    2.59
 -10  -3  17   17.14    2.50
   8 -14 -17   15.01    2.57
 -14   6 -17   18.66    2.73
  -6  -8  17   14.47    1.99
  14  -6  17   15.60    2.77
   5 -14 -17    5.78    2.16
  -9  -5  17    4.66    1.76
  14  -9  17    2.23    1.96
   0   0 -18  208.79    7.07
   0   0 -18  204.27    7.05
   0   0  18  193.44    7.05
   0   0  18  209.65    7.02
   2  -1 -18  141.19    5.31
  -1  -1 -18  129.68    5.26
  -1   2 -18  134.12    4.97
  -1   2 -18  133.28    4.92
   2  -1 -18  133.92    5.19
  -1  -1 -18  143.50    5.37
   1   1  18  129.81    5.39
   1   1  18  144.39    5.31
   1  -2  18  139.22    4.99
  -2   1  18  140.48    5.22
   1  -2  18  129.21    5.07
  -2   1  18  128.24    5.18
  -2   1 -18   80.78    3.61
   1  -2 -18   79.95    3.81
   1   1 -18   71.90    3.46
   1  -2 -18   77.71    3.81
   1   1 -18   79.64    3.52
  -1   2  18   72.60    3.77
  -1  -1  18   74.13    3.53
   2  -1  18   76.07    3.64
   2  -1  18   72.88    3.55
  -1  -1  18   76.18    3.46
  -1   2  18   76.43    3.71
  -2   4 -18   51.94    2.44
  -2   4 -18   49.07    2.52
  -2  -2 -18   47.91    3.07
   4  -2 -18   57.06    3.17
  -2  -2 -18   49.72    3.14
   4  -2 -18   48.55    2.90
   2  -4  18   50.21    2.78
  -4   2  18   50.95    3.04
  -4   2  18   53.01    3.00
   2   2  18   54.66    3.11
   2   2  18   50.86    3.34
   2  -4  18   46.50    2.58
   3  -3 -18   60.97    3.40
  -3   0 -18   52.05    3.07
   0   3 -18   59.10    2.72
   0   3 -18   61.20    2.81
  -3   0 -18   61.54    3.21
   3  -3 -18   60.34    3.29
  -3   3  18   58.25    3.40
   0  -3  18   58.56    2.86
   0  -3  18   54.81    2.91
   3   0  18   55.90    3.29
  -3   3  18   58.30    3.28
   3   0  18   61.04    3.15
   0  -3 -18   38.02    2.82
   3   0 -18   39.34    2.54
   0  -3 -18   36.82    2.89
  -3   3 -18   38.66    2.49
  -3   3 -18   42.50    2.40
   3   0 -18   41.72    2.65
   0   3  18   37.71    2.78
  -3   0  18   35.99    2.44
   0   3  18   38.63    3.04
   3  -3  18   40.42    2.45
  -3   0  18   41.10    2.64
   3  -3  18   37.27    2.49
  -3  -3 -18   50.66    3.33
   6  -3 -18   53.36    3.31
  -3   6 -18   39.53    1.93
  -3   6 -18   48.74    1.94
  -3  -3 -18   45.87    3.16
  -6   3  18   41.40    2.98
   3  -6  18   48.81    2.57
   3   3  18   41.17    3.27
   3  -6  18   51.94    2.40
  -6   3  18   44.46    2.88
   5  -4 -18   58.58    3.49
  -4  -1 -18   67.25    3.64
  -4  -1 -18   53.15    3.35
  -1   5 -18   63.46    2.41
   5  -4 -18   62.77    3.43
  -5   4  18   58.84    3.39
   1  -5  18   59.14    2.90
   1  -5  18   69.45    2.87
   4   1  18   60.68    3.68
  -5   4  18   67.66    3.59
   4   1  18   63.50    3.35
   2   2 -18   84.03    3.51
  -4   2 -18   80.31    3.65
  -4   2 -18   79.47    3.68
   2  -4 -18   81.68    4.02
   2   2 -18   75.46    3.37
   2  -4 -18   78.99    3.98
  -2   4  18   78.50    3.96
  -2  -2  18   81.26    3.54
  -2  -2  18   81.17    3.42
  -2   4  18   83.70    3.97
   4  -2  18   81.40    3.62
   4  -2  18   74.85    3.75
  -4   5 -18   93.43    3.58
   5  -1 -18   94.80    4.29
  -1  -4 -18   85.92    4.40
  -4   5 -18   93.04    3.73
  -1  -4 -18   89.37    4.37
  -5   1  18   94.07    4.09
  -5   1  18   90.38    4.17
   1   4  18   94.12    4.62
   4  -5  18   99.38    3.76
   4  -5  18   93.70    3.85
  -4  -4 -18   37.92    3.12
   8  -4 -18   37.23    3.12
  -8   4  18   34.15    2.92
   4   4  18   36.48    3.26
   4  -8  18   37.14    2.22
   4  -8  18   35.78    1.97
  -5  -2 -18   22.78    2.47
   7  -5 -18   21.64    2.61
  -7   5  18   22.94    2.41
   5   2  18   23.48    2.68
   2  -7  18   23.77    1.84
   2  -7  18   23.89    1.67
   4  -5 -18   52.00    3.29
   4  -5 -18   53.02    3.43
   1   4 -18   52.53    2.36
   1   4 -18   55.48    2.53
  -5   1 -18   57.39    3.18
   5  -1  18   59.29    3.13
  -1  -4  18   55.82    2.65
  -1  -4  18   52.03    2.71
   5  -1  18   54.28    3.33
  -4   5  18   56.70    3.65
  -4   5  18   51.31    3.35
   4   1 -18   41.85    2.55
   4   1 -18   42.97    2.63
   1  -5 -18   46.79    3.23
  -5   4 -18   42.65    2.58
   1  -5 -18   44.59    3.15
  -5   4 -18   39.59    2.60
   5  -4  18   37.93    2.69
   5  -4  18   42.11    2.52
  -4  -1  18   42.68    2.69
  -1   5  18   42.09    3.22
  -4  -1  18   45.63    2.59
  -5   7 -18  107.05    3.61
  -5   7 -18   91.17    3.62
   7  -2 -18  109.30    4.78
  -2  -5 -18  105.50    4.86
   5  -7  18   95.68    3.85
  -7   2  18  103.73    4.57
   5  -7  18  103.05    4.06
   2   5  18  102.22    5.10
  -7   2  18  104.46    4.69
  10  -5 -18   24.23    2.78
  -5  -5 -18   19.27    2.49
 -10   5  18   27.30    2.87
   5 -10  18   24.16    1.85
   5 -10  18   27.19    1.58
   5   5  18   18.30    2.72
   9  -6 -18   66.47    4.05
  -6  -3 -18   67.81    4.08
   6   3  18   65.17    4.36
  -9   6  18   61.31    3.94
   6  -6 -18   69.86    4.09
  -6   0 -18   71.63    3.91
   0  -6  18   74.18    3.04
  -6   6  18   73.21    4.00
   6   0  18   77.76    4.15
   0  -6  18   74.47    3.03
  -6   3 -18   75.95    3.66
   3   3 -18   74.69    3.17
   3  -6 -18   74.46    4.07
   3   3 -18   73.91    3.23
   3  -6 -18   68.83    3.90
  -3  -3  18   73.07    3.34
   6  -3  18   70.49    3.72
  -3   6  18   75.68    4.02
  -3  -3  18   77.04    3.30
   6  -3  18   71.78    3.60
   0  -6 -18   51.13    3.45
  -6   6 -18   51.31    2.81
  -6   6 -18   47.54    2.57
   0  -6 -18   48.93    3.57
   6   0 -18   55.17    3.15
   0   6  18   48.01    3.60
  -6   0  18   51.80    3.14
  -6   0  18   54.58    3.10
   6  -6  18   53.90    2.76
   6  -6  18   54.63    3.03
  -3  -6 -18   14.95    2.25
   9  -3 -18   14.45    2.25
   6  -9  18   17.31    1.56
   6  -9  18   16.03    1.71
   3   6  18   14.37    2.54
  -9   3  18   13.55    2.14
  -6  -6 -18   10.35    2.24
  12  -6 -18   10.43    2.39
   6   6  18   11.85    2.63
 -12   6  18   11.05    2.23
  11  -7 -18   18.37    2.65
  -7  -4 -18   27.17    3.02
 -11   7  18   21.04    2.72
   7   4  18   25.96    3.30
   8  -7 -18   28.13    2.83
  -7  -1 -18   24.92    2.64
   1  -8  18   24.72    1.56
  -8   7  18   26.86    2.68
   7   1  18   26.16    2.83
   1  -8  18   23.67    1.54
   2   5 -18   57.49    2.41
  -7   2 -18   77.89    3.79
   5  -7 -18   64.91    3.96
   2   5 -18   69.75    2.71
   7  -2  18   68.38    3.89
  -2  -5  18   67.30    2.94
  -2  -5  18   68.90    3.03
  -5   7  18   65.08    3.85
   2  -7 -18   37.54    3.13
   2  -7 -18   38.17    3.24
  -7   5 -18   37.79    2.68
   5   2 -18   38.23    2.53
  -5  -2  18   34.69    2.50
   7  -5  18   35.81    2.61
  -2   7  18   36.74    3.12
  -5  -2  18   35.97    2.61
  -7   8 -18   41.60    2.28
   8  -1 -18   46.01    3.26
  -7   8 -18   42.11    2.42
  -1  -7 -18   45.59    3.57
  -8   1  18   46.19    3.25
   1   7  18   48.47    3.73
   7  -8  18   43.73    2.55
  11  -4 -18   14.67    2.50
  -4  -7 -18   11.99    2.38
 -11   4  18   11.61    2.34
   4   7  18   17.50    2.65
   7 -11  18   11.42    1.56
  14  -7 -18    9.43    2.54
  -7  -7 -18    8.71    2.27
 -14   7  18   10.40    2.44
  -8  -5 -18   10.60    2.48
  13  -8 -18   12.15    2.60
   8   5  18   13.75    2.88
 -13   8  18    9.51    2.38
  -8  -2 -18   26.22    2.99
  10  -8 -18   24.50    2.93
 -10   8  18   21.14    2.64
   8   2  18   21.67    2.90
   7  -8 -18   21.25    2.65
  -8   1 -18   24.13    2.61
  -1  -7  18   18.27    1.49
  -1  -7  18   22.48    1.68
   8  -1  18   20.11    2.54
  -7   8  18   22.54    2.59
  -8   4 -18   50.07    3.15
   4  -8 -18   39.14    3.35
   4   4 -18   43.46    2.44
   4   4 -18   44.66    2.41
  -4   8  18   51.28    3.54
  -4  -4  18   45.51    2.64
  -4  -4  18   46.06    2.72
   8  -4  18   50.35    3.06
  -8   7 -18   27.68    2.30
   1  -8 -18   32.12    3.11
   7   1 -18   25.27    2.44
  -7  -1  18   29.72    2.60
  -1   8  18   26.47    2.75
   8  -7  18   28.02    2.45
  -7  -1  18   26.37    2.36
   8  -7  18   29.83    2.37
  -2  -8 -18   16.16    2.48
  10  -2 -18   16.13    2.46
   2   8  18   17.58    2.70
 -10   2  18   16.55    2.34
   8 -10  18   19.08    1.93
  13  -5 -18   14.60    2.75
  -5  -8 -18   12.37    2.66
 -13   5  18   16.68    2.70
   8 -13  18   14.66    1.65
  -9  -3 -18   14.16    2.47
  12  -9 -18    7.68    2.19
 -12   9  18    9.70    2.28
   9   3  18   15.40    2.82
  -9   0 -18   27.22    2.89
   9  -9 -18   18.14    2.62
  -9   9  18   20.19    2.58
   9   0  18   25.39    2.97
  -9   3 -18   22.51    2.53
   6  -9 -18   21.26    2.61
  -3  -6  18   24.72    1.91
  -3  -6  18   19.36    1.78
  -6   9  18   23.68    2.61
   3  -9 -18   33.85    3.25
   6   3 -18   41.29    2.64
  -9   6 -18   36.77    2.87
  -3   9  18   37.89    3.14
   9  -6  18   38.14    3.11
  -6  -3  18   38.10    2.81
  -6  -3  18   36.71    2.61
   9  -6  18   39.72    2.87
   0  -9 -18   11.25    2.23
   9   0 -18   11.80    2.05
   9  -9  18   13.66    1.98
  -9   0  18   12.15    2.07
   9  -9  18   13.03    1.76
   0   9  18   11.77    2.22
  -3  -9 -18   21.31    2.93
  12  -3 -18   18.32    2.83
   3   9  18   16.70    2.73
   9 -12  18   20.63    2.07
 -12   3  18   16.12    2.55
 -10  -1 -18   12.13    2.45
  11 -10 -18    7.51    2.26
  10   1  18   12.17    2.63
 -11  10  18   13.72    2.48
 -10   2 -18   15.90    2.46
   8 -10 -18   12.89    2.34
  -2  -8  18   17.20    1.46
  -8  10  18   13.44    2.27
 -10   5 -18   22.61    2.49
   5 -10 -18   18.59    2.57
  -5  -5  18   20.81    1.96
  -5  10  18   21.23    2.49
  -5  -5  18   23.41    2.11
  10  -5  18   19.75    2.49
 -10   8 -18   18.12    2.12
   8   2 -18   20.66    2.27
   2 -10 -18   19.02    2.63
  -8  -2  18   21.57    2.39
  10  -8  18   18.45    2.16
  -2  10  18   20.73    2.62
  -8  -2  18   19.62    2.24
  10  -8  18   22.96    2.49
  11  -1 -18   15.23    2.46
  -1 -10 -18   17.10    2.83
  10 -11  18   16.60    2.16
   1  10  18   16.90    2.62
 -11   1  18   18.88    2.57
  13 -11 -18    6.52    2.19
 -11  -2 -18    2.35    2.02
 -13  11  18    1.42    1.86
  11   2  18    8.47    2.66
  10 -11 -18   17.79    2.80
 -11   1 -18   16.33    2.50
  11  -1  18   17.89    2.91
 -10  11  18   19.16    2.62
   7 -11 -18   20.05    2.75
 -11   4 -18   24.00    2.70
  -7  11  18   17.13    2.43
  11  -4  18   23.21    2.82
  -4  -7  18   22.67    1.95
   4 -11 -18   34.87    3.49
 -11   7 -18   41.30    3.21
  11  -7  18   40.30    3.41
  -7  -4  18   41.86    3.08
  -4  11  18   41.78    3.35
  10   1 -18   14.14    2.30
   1 -11 -18   16.66    2.83
  11 -10  18   17.69    2.37
 -10  -1  18   21.11    2.52
  -2 -11 -18    4.80    2.21
  13  -2 -18   10.59    2.48
  11 -13  18   12.45    2.12
 -13   2  18    9.77    2.39
 -12   0 -18   10.02    2.46
  12 -12 -18    4.55    2.15
  12   0  18    9.57    2.50
 -12  12  18    9.45    2.26
   9 -12 -18   21.88    2.96
 -12   3 -18   22.17    2.84
  -9  12  18   14.21    2.37
  -3  -9  18   21.76    1.72
 -12   6 -18   14.48    2.36
   6 -12 -18   12.55    2.46
  -6  12  18   15.73    2.30
  -6  -6  18   16.33    2.03
  12  -6  18   18.90    2.70
   3 -12 -18   10.67    2.46
  -9  -3  18   13.77    2.19
  12  -9  18    7.68    2.12
   0 -12 -18   10.02    2.48
 -12   0  18    4.47    2.00
  12 -12  18    8.96    2.05
  11 -13 -18    5.66    2.18
 -13   2 -18   10.36    2.51
 -13   5 -18    6.88    2.19
   8 -13 -18    7.51    2.28
  13  -5  18    4.90    2.14
  -5  -8  18    7.97    1.57
   5 -13 -18    9.53    2.35
  -8  -5  18   10.38    1.95
  13  -8  18    7.84    2.25
   2 -13 -18    6.76    2.22
 -11  -2  18    5.80    2.04
  13 -11  18    5.18    2.01
 -14   7 -18    1.58    1.97
   7 -14 -18    4.74    2.08
  -7  -7  18    7.23    1.72
  14  -7  18    3.13    2.20
   1  -1 -19   47.62    2.99
   0   1 -19   52.12    2.87
   0   1 -19   51.80    2.85
  -1   0 -19   50.13    2.95
  -1   0 -19   53.83    3.10
   1  -1 -19   50.87    3.07
   1   0  19   46.13    3.06
  -1   1  19   48.60    3.13
   0  -1  19   51.04    2.86
  -1   1  19   51.42    3.01
   1   0  19   52.93    2.99
   0  -1  19   55.36    3.04
  -2  -1 -19   72.83    3.70
  -1   3 -19   66.21    3.15
   3  -2 -19   68.65    3.65
  -2  -1 -19   69.83    3.66
  -1   3 -19   70.24    3.17
   3  -2 -19   64.53    3.45
   2   1  19   71.18    3.82
   2   1  19   72.90    3.61
   1  -3  19   67.42    3.39
  -3   2  19   72.48    3.52
  -3   2  19   67.71    3.66
   1  -3  19   76.75    3.35
   2   0 -19   13.08    1.79
   0  -2 -19   14.04    1.92
   0  -2 -19   13.07    1.93
  -2   2 -19   14.07    1.74
   2   0 -19   11.09    1.62
   0   2  19   11.64    1.99
   2  -2  19   10.77    1.56
  -2   0  19   13.05    1.68
  -2   0  19    8.92    1.61
   2  -2  19   10.51    1.62
   0   2  19    8.23    1.64
  -2   5 -19   39.28    1.98
  -3  -2 -19   39.70    3.01
  -2   5 -19   35.62    2.01
   5  -3 -19   39.27    3.09
   3   2  19   33.38    2.90
   2  -5  19   36.11    2.26
   2  -5  19   34.26    2.43
  -5   3  19   37.81    2.88
  -5   3  19   38.03    2.76
   3   2  19   34.11    2.73
   1   2 -19    1.76    1.16
   2  -3 -19    1.44    1.37
   1   2 -19    3.64    1.19
  -3   1 -19    2.49    1.33
   2  -3 -19    2.70    1.37
  -3   1 -19    2.71    1.27
   3  -1  19   -0.65    1.13
   3  -1  19    1.38    1.24
  -2   3  19    0.79    1.39
  -1  -2  19    1.67    1.15
  -1  -2  19    5.05    1.37
  -2   3  19    3.10    1.37
  -3   4 -19   38.93    2.29
   4  -1 -19   32.54    2.50
   4  -1 -19   39.37    2.83
  -3   4 -19   37.16    2.37
  -1  -3 -19   35.58    2.91
  -1  -3 -19   30.28    2.66
  -4   1  19   32.00    2.56
   1   3  19   34.71    2.88
   3  -4  19   36.73    2.35
   3  -4  19   35.56    2.50
   1   3  19   36.28    2.78
  -4   1  19   32.44    2.51
   7  -4 -19    5.28    1.69
  -4  -3 -19    3.43    1.57
   3  -7  19    3.13    0.98
   3  -7  19    5.35    1.23
  -7   4  19    0.30    1.47
   4   3  19    5.84    1.93
   0   4 -19   15.18    1.39
   4  -4 -19   15.77    1.99
  -4   0 -19   13.66    1.90
   4  -4 -19   19.19    2.30
   0   4 -19   16.27    1.46
   0  -4  19   15.59    1.63
   4   0  19   14.77    2.07
  -4   4  19   15.30    2.03
  -4   4  19   16.77    2.14
   0  -4  19   15.34    1.66
   4   0  19   14.73    1.80
   1  -4 -19    0.70    1.34
  -4   3 -19    0.20    1.08
   3   1 -19    1.19    1.08
   1  -4 -19    0.21    1.42
  -4   3 -19    1.28    1.18
   3   1 -19    1.43    1.15
  -1   4  19   -0.27    1.18
   4  -3  19    0.04    1.13
   4  -3  19    0.88    1.10
  -3  -1  19    0.55    1.18
  -3  -1  19    0.50    1.07
  -1   4  19   -1.33    1.38
  -4   6 -19    2.34    1.01
  -2  -4 -19    3.75    1.56
  -4   6 -19    2.19    0.89
   6  -2 -19    2.23    1.47
   4  -6  19    1.21    1.03
   4  -6  19    2.92    1.15
  -6   2  19   -0.29    1.29
   2   4  19    0.53    1.60
  -6   2  19    3.08    1.31
  -5  -4 -19    7.12    1.95
   9  -5 -19    3.54    1.79
   4  -9  19    6.94    1.21
   4  -9  19    7.49    1.01
  -9   5  19    5.62    1.81
   5   4  19    7.21    2.17
  -5  -1 -19    0.72    1.37
   6  -5 -19    1.63    1.52
   1  -6  19   -0.02    0.96
  -6   5  19    0.08    1.48
   1  -6  19    1.43    1.03
   5   1  19    2.54    1.58
  -5   2 -19   14.23    1.88
   3  -5 -19   14.19    2.14
   2   3 -19   18.58    1.61
   3  -5 -19   15.44    2.15
   2   3 -19   16.82    1.67
  -3   5  19   14.45    2.13
  -2  -3  19   17.96    1.68
   5  -2  19   11.46    1.77
   5  -2  19   13.65    1.80
  -2  -3  19   15.57    1.70
   5   0 -19   19.15    2.05
   0  -5 -19   16.99    2.27
  -5   5 -19   21.50    1.91
  -5   5 -19   18.88    1.76
   0  -5 -19   21.11    2.44
  -5   0  19   23.09    2.20
   0   5  19   19.19    2.48
  -5   0  19   19.49    1.96
   5  -5  19   21.84    1.95
   5  -5  19   24.67    2.08
  -3  -5 -19   19.36    2.45
   8  -3 -19   24.02    2.61
   5  -8  19   20.45    1.79
   3   5  19   17.29    2.55
   5  -8  19   20.65    1.64
  -8   3  19   15.71    2.21
  11  -6 -19    7.62    2.20
  -6  -5 -19    7.74    2.04
   6   5  19    2.74    2.07
 -11   6  19    7.85    2.05
   8  -6 -19   15.35    2.38
  -6  -2 -19   17.08    2.36
   6   2  19   15.72    2.44
  -8   6  19   13.87    2.29
   2  -8  19   14.38    1.21
   2  -8  19   13.46    1.32
   1   5 -19   22.85    1.38
   1   5 -19   26.31    1.61
   5  -6 -19   31.92    3.03
  -6   1 -19   26.70    2.46
  -1  -5  19   27.55    1.96
   6  -1  19   27.85    2.67
  -1  -5  19   25.95    1.98
  -5   6  19   19.27    2.39
  -6   4 -19   26.69    2.26
   2  -6 -19   19.78    2.34
   2  -6 -19   25.67    2.75
   4   2 -19   23.83    2.02
   4   2 -19   25.56    2.08
   6  -4  19   26.16    2.22
  -2   6  19   20.03    2.44
   6  -4  19   24.85    2.34
  -4  -2  19   24.40    2.12
  -4  -2  19   26.55    2.16
  -6   7 -19   10.13    1.31
   7  -1 -19   11.31    1.92
  -1  -6 -19   11.58    2.10
  -6   7 -19   12.42    1.48
   1   6  19    9.03    2.12
   6  -7  19   10.11    1.48
   6  -7  19   10.26    1.62
  -7   1  19   10.33    1.78
  -7   1  19    8.52    1.80
  -4  -6 -19   16.00    2.48
  10  -4 -19   16.57    2.50
 -10   4  19   15.82    2.37
   6 -10  19   16.14    1.64
   4   6  19   17.93    2.77
   6 -10  19   15.40    1.46
  -7  -6 -19    3.80    1.97
  13  -7 -19    0.00    1.82
   7   6  19    0.20    2.02
 -13   7  19    0.00    1.81
  10  -7 -19    7.64    2.10
  -7  -3 -19    4.34    1.90
 -10   7  19    5.71    1.92
   7   3  19    5.13    2.18
  -7   0 -19   12.01    2.10
   7  -7 -19    9.59    2.05
  -7   7  19   16.60    2.27
   7   0  19   11.46    2.19
   0  -7  19   11.92    1.34
   0  -7  19   13.22    1.35
   3   4 -19   23.48    1.76
   3   4 -19   23.83    1.92
  -7   3 -19   25.69    2.43
   4  -7 -19   18.15    2.39
   7  -3  19   19.79    2.17
   7  -3  19   21.65    2.37
  -4   7  19   25.83    2.60
  -3  -4  19   22.11    1.96
  -3  -4  19   26.42    2.05
  -7   6 -19   13.61    1.75
   1  -7 -19    9.91    2.03
   6   1 -19   14.28    1.90
  -6  -1  19   12.30    1.75
   7  -6  19   12.16    1.68
  -1   7  19   13.84    2.25
  -6  -1  19   14.69    1.94
  -2  -7 -19    6.55    1.95
   9  -2 -19    4.80    1.77
  -7   9 -19    7.30    1.02
   2   7  19    5.85    2.05
   7  -9  19    6.91    1.34
  -9   2  19    7.10    1.89
   7  -9  19    7.07    1.57
  12  -5 -19   -1.32    1.71
  -5  -7 -19    3.82    1.94
   7 -12  19    1.39    1.15
 -12   5  19    2.97    1.94
   5   7  19    3.20    2.16
  -8  -4 -19   -0.58    1.79
  12  -8 -19    3.43    1.98
   8   4  19    2.35    2.19
 -12   8  19    2.51    1.91
  -8  -1 -19    4.73    1.85
   9  -8 -19    3.61    1.78
   8   1  19    3.04    1.96
  -9   8  19    0.45    1.63
  -8   2 -19    9.59    1.87
   6  -8 -19    6.53    1.91
  -2  -6  19    9.64    1.35
  -6   8  19    4.99    1.82
  -2  -6  19    9.96    1.39
   8  -2  19    9.33    1.97
   5   3 -19   22.81    1.99
  -8   5 -19   23.97    2.37
   3  -8 -19   25.22    2.83
  -3   8  19   24.61    2.73
   8  -5  19   21.91    2.21
  -5  -3  19   19.10    2.05
  -5  -3  19   24.33    2.09
   0  -8 -19    1.94    1.77
  -8   8 -19    2.94    1.21
   8   0 -19    3.01    1.56
   8  -8  19    3.58    1.29
  -8   0  19    0.82    1.48
   0   8  19    1.83    1.75
  11  -3 -19    2.03    1.78
  -3  -8 -19    3.30    1.99
 -11   3  19    2.78    1.76
   3   8  19    5.24    2.10
  11  -9 -19    4.27    2.03
  -9  -2 -19    1.63    1.76
   9   2  19    2.53    2.03
 -11   9  19    0.85    1.73
   8  -9 -19    7.20    1.95
  -9   1 -19    8.62    2.07
  -1  -8  19    8.45    1.13
  -8   9  19    8.87    2.07
  -1  -8  19    7.71    1.11
   9  -1  19    9.11    2.18
  -9   4 -19    0.26    1.43
   4   5 -19    0.80    0.88
   4   5 -19    2.07    0.96
   5  -9 -19    0.96    1.61
  -5   9  19    4.77    1.79
  -4  -5  19    2.74    1.18
  -4  -5  19    4.26    1.24
   7   2 -19    0.76    1.31
  -9   7 -19    4.87    1.52
   2  -9 -19    1.05    1.74
  -2   9  19    5.16    1.82
   9  -7  19    2.82    1.53
   9  -7  19    2.53    1.34
  -7  -2  19    2.65    1.34
  -7  -2  19    2.26    1.46
  10  -1 -19    1.07    1.63
  -1  -9 -19    2.90    1.93
   9 -10  19    1.95    1.37
   1   9  19    1.26    1.79
 -10   1  19    2.69    1.78
  -4  -9 -19    1.38    1.92
  13  -4 -19    2.64    2.00
 -13   4  19    2.37    1.90
  13 -10 -19    0.15    1.93
 -10  -3 -19    2.06    2.01
 -13  10  19    0.68    1.85
  10   3  19    1.99    2.13
  10 -10 -19    8.55    2.18
 -10   0 -19    5.99    2.09
 -10  10  19    4.76    1.92
  10   0  19    2.80    2.04
 -10   3 -19   -1.20    1.45
   7 -10 -19    0.35    1.63
  -7  10  19   -0.58    1.48
  -3  -7  19    2.14    1.13
 -10   6 -19   13.67    2.12
   4 -10 -19    8.19    2.14
  -4  10  19   10.27    2.18
  -6  -4  19   13.82    1.76
  -6  -4  19   13.13    1.90
  10  -6  19   11.69    2.13
   9   1 -19    4.39    1.70
   1 -10 -19    1.79    1.74
  -9  -1  19    5.98    1.81
  -1  10  19    2.45    1.65
  10  -9  19    6.61    1.78
  12  -2 -19    0.86    1.81
  -2 -10 -19    0.50    2.00
 -12   2  19    1.18    1.78
  10 -12  19    0.47    1.37
  12 -11 -19    0.45    1.88
 -11  -1 -19   -0.17    1.90
 -12  11  19    2.07    1.87
  11   1  19    2.82    2.20
   9 -11 -19    3.65    1.92
 -11   2 -19    1.31    1.82
  -2  -9  19    3.35    0.99
  11  -2  19    0.95    1.87
  -9  11  19    5.30    1.86
 -11   5 -19    3.96    1.84
   6 -11 -19   -1.65    1.63
  -6  11  19    2.66    1.60
  -5  -6  19    3.16    1.35
  11  -5  19    2.88    1.80
   3 -11 -19   -0.89    1.68
 -11   8 -19    1.41    1.55
  11  -8  19    1.56    1.67
  -3  11  19    0.72    1.60
  -8  -3  19    3.67    1.61
   0 -11 -19    6.34    2.28
  11   0 -19    5.71    1.99
 -11   0  19    7.84    2.08
  11 -11  19    8.21    1.98
  11 -12 -19    2.36    1.88
 -12   1 -19    1.19    2.05
  12  -1  19   -0.92    2.03
 -11  12  19    2.21    1.85
 -12   4 -19    1.15    1.78
   8 -12 -19    2.77    1.93
  -8  12  19    4.34    1.84
  -4  -8  19    6.07    1.37
   5 -12 -19    5.59    2.09
 -12   7 -19    6.21    2.01
  12  -7  19    2.92    1.96
  -7  -5  19    7.10    1.75
   2 -12 -19    1.58    1.97
  12 -10  19    4.09    1.84
 -10  -2  19    4.22    1.83
  10 -13 -19    2.19    2.00
 -13   3 -19    4.43    2.15
  -3 -10  19    4.31    1.17
   7 -13 -19    2.32    1.95
 -13   6 -19    4.52    2.01
  -6  -7  19    4.34    1.51
  13  -6  19    5.43    2.18
   4 -13 -19    3.27    2.10
  13  -9  19    1.87    1.91
  -9  -4  19    2.76    1.70
  -1   1 -20    7.41    1.46
   1   0 -20    7.10    1.50
   0  -1 -20    6.95    1.61
   0  -1 -20    6.23    1.55
  -1   1 -20    5.36    1.49
   1   0 -20    7.48    1.56
  -1   0  20    7.98    1.62
   1  -1  20    9.10    1.73
   0   1  20    7.62    1.72
   0   1  20   10.67    1.78
   1  -1  20    7.69    1.47
  -1   0  20    7.86    1.54
  -2   0 -20   17.56    1.96
   0   2 -20   16.02    1.77
   0   2 -20   20.71    1.94
   2  -2 -20   18.85    2.18
   2  -2 -20   17.09    1.98
  -2   0 -20   17.58    2.03
  -2   2  20   16.45    2.00
  -2   2  20   17.14    2.12
   2   0  20   20.96    2.20
   2   0  20   17.53    2.02
   0  -2  20   16.57    1.90
   0  -2  20   20.90    1.98
   3  -1 -20    9.06    1.59
   3  -1 -20    9.40    1.72
  -2   3 -20   11.28    1.58
  -1  -2 -20   11.63    1.91
  -1  -2 -20    9.48    1.75
  -2   3 -20   12.33    1.55
   2  -3  20    7.68    1.45
   1   2  20    9.74    1.88
  -3   1  20   13.37    1.89
  -3   1  20   10.01    1.66
   2  -3  20   10.59    1.67
   1   2  20   10.30    1.78
   4  -3 -20   33.73    2.81
  -3  -1 -20   30.43    2.58
  -1   4 -20   28.89    2.03
   1  -4  20   28.23    2.16
  -4   3  20   28.10    2.53
   3   1  20   26.74    2.48
  -4   3  20   32.23    2.57
   1  -4  20   30.80    2.43
   3   1  20   31.66    2.84
   2   1 -20   23.26    2.11
   2   1 -20   21.46    1.99
   1  -3 -20   18.24    2.12
  -3   2 -20   23.51    2.20
  -3   2 -20   22.24    2.09
   1  -3 -20   21.41    2.35
   3  -2  20   18.69    2.00
  -1   3  20   19.85    2.21
   3  -2  20   24.71    2.29
  -2  -1  20   21.92    2.09
  -2  -1  20   21.35    1.99
  -1   3  20   22.85    2.41
  -3   5 -20   11.36    1.46
  -3   5 -20   17.48    1.50
  -2  -3 -20   11.86    2.07
   5  -2 -20   17.44    2.18
   2   3  20   13.30    2.20
   3  -5  20   16.12    1.84
  -5   2  20   15.98    2.03
  -5   2  20   15.03    1.88
   3  -5  20   16.30    1.67
  -2   6 -20   20.41    1.28
   6  -4 -20   22.52    2.54
  -2   6 -20   19.04    1.27
  -4  -2 -20   18.17    2.31
   2  -6  20   23.05    1.91
  -6   4  20   18.21    2.27
   2  -6  20   22.20    1.80
   4   2  20   25.61    2.86
   1   3 -20   35.71    2.33
   3  -4 -20   30.14    2.71
  -4   1 -20   39.54    2.88
   1   3 -20   39.81    2.44
   3  -4 -20   40.55    3.06
   4  -1  20   38.15    2.65
  -3   4  20   36.82    2.88
  -3   4  20   41.07    3.15
   4  -1  20   42.46    3.00
  -1  -3  20   38.46    2.55
  -1  -3  20   38.70    2.47
   4   0 -20   11.73    1.76
  -4   4 -20   14.10    1.70
   0  -4 -20   12.51    2.03
   0  -4 -20    9.22    1.82
  -4   4 -20   10.63    1.50
   0   4  20   10.25    2.01
  -4   0  20   11.83    1.66
   4  -4  20   10.06    1.52
   4  -4  20   11.38    1.70
  -4   0  20    7.52    1.61
  -4   7 -20   -0.01    0.67
  -3  -4 -20    0.13    1.46
  -4   7 -20   -0.11    0.73
   7  -3 -20    0.92    1.53
   4  -7  20   -1.78    0.91
  -7   3  20    2.45    1.58
   3   4  20    0.58    1.77
   4  -7  20    0.12    1.11
   8  -5 -20   17.52    2.57
  -5  -3 -20   18.48    2.35
   3  -8  20   18.68    1.70
  -8   5  20   17.82    2.41
   5   3  20   18.27    2.63
   3  -8  20   17.90    1.43
   5  -5 -20    8.08    1.90
  -5   0 -20    6.04    1.63
  -5   5  20    7.88    1.82
   0  -5  20    6.33    1.32
   5   0  20    7.02    1.76
   0  -5  20    8.20    1.38
   2  -5 -20   15.81    2.20
   3   2 -20   20.26    1.90
   3   2 -20   15.29    1.73
  -5   3 -20   16.21    1.98
  -3  -2  20   14.85    1.72
  -3  -2  20   20.81    2.08
   5  -3  20   20.68    2.16
  -2   5  20   16.07    2.25
   5  -3  20   17.43    1.92
   6  -1 -20    1.94    1.44
  -5   6 -20    0.88    1.07
  -5   6 -20    1.07    0.97
  -1  -5 -20    1.56    1.59
  -6   1  20   -1.18    1.11
  -6   1  20   -0.14    1.36
   1   5  20    0.18    1.60
   5  -6  20    0.31    1.17
   5  -6  20    1.79    1.14
  -4  -5 -20    7.67    2.11
   9  -4 -20   10.13    2.16
   5  -9  20   14.11    1.60
  -9   4  20   11.28    2.14
   4   5  20   10.02    2.39
   5  -9  20   11.70    1.32
  -6  -4 -20    0.03    1.74
  10  -6 -20    3.22    1.82
   6   4  20    2.14    1.95
 -10   6  20    1.02    1.74
  -6  -1 -20   20.33    2.45
   7  -6 -20   17.70    2.42
   6   1  20   20.82    2.70
   1  -7  20   22.37    1.73
  -7   6  20   21.22    2.52
   1  -7  20   19.37    1.59
   2   4 -20    2.53    0.97
  -6   2 -20    1.62    1.39
   4  -6 -20    3.09    1.65
   2   4 -20    2.68    1.06
   6  -2  20    2.01    1.38
  -4   6  20    2.62    1.59
   6  -2  20    1.38    1.31
  -2  -4  20    1.80    1.09
  -2  -4  20   -0.37    1.12
  -6   5 -20    1.98    1.26
   5   1 -20    3.19    1.35
   1  -6 -20    2.16    1.56
   6  -5  20    2.24    1.27
  -5  -1  20    1.12    1.34
  -5  -1  20    0.95    1.14
  -1   6  20    0.87    1.66
   6  -5  20    1.33    1.33
  -2  -6 -20   20.87    2.60
  -6   8 -20   21.42    1.58
   8  -2 -20   22.53    2.49
   6  -8  20   23.20    2.12
   6  -8  20   22.00    1.84
  -8   2  20   20.46    2.45
   2   6  20   17.81    2.62
  -5  -6 -20    4.04    2.01
  11  -5 -20    2.39    1.88
 -11   5  20    3.71    1.88
   5   6  20    1.22    2.05
   6 -11  20    1.54    1.13
  -7  -5 -20    2.49    1.92
  12  -7 -20   -0.54    1.77
   7   5  20    2.72    2.22
 -12   7  20    2.52    1.96
   9  -7 -20    9.21    2.16
  -7  -2 -20    7.81    2.07
   7   2  20    5.43    2.12
  -9   7  20    4.72    1.87
  -7   1 -20    1.81    1.54
   6  -7 -20    2.05    1.62
   7  -1  20    0.12    1.55
  -6   7  20    4.96    1.78
  -1  -6  20    0.02    0.95
  -1  -6  20    1.48    1.04
  -7   4 -20   17.14    2.10
   3  -7 -20   20.04    2.50
   4   3 -20   16.22    1.73
  -4  -3  20   16.33    1.79
   7  -4  20   16.70    1.98
  -4  -3  20   17.93    1.95
   7  -4  20   19.43    2.29
  -3   7  20   14.92    2.29
   0  -7 -20   10.42    2.21
  -7   7 -20    9.99    1.58
   7   0 -20    9.08    1.81
   0   7  20   14.03    2.44
   7  -7  20   10.52    1.59
  -7   0  20    8.61    1.82
  -7   0  20    9.88    1.76
   7  -7  20   11.12    1.78
  10  -3 -20    4.61    1.94
  -3  -7 -20    4.71    1.96
 -10   3  20    2.19    1.69
   3   7  20    6.95    2.24
   7 -10  20    6.15    1.42
  13  -6 -20    4.11    2.15
  -6  -7 -20    1.75    2.04
 -13   6  20    1.14    1.96
   6   7  20    1.47    2.31
  11  -8 -20    2.06    1.86
  -8  -3 -20   -0.20    1.81
 -11   8  20    1.34    1.74
   8   3  20   -2.26    1.93
  -8   0 -20    1.26    1.69
   8  -8 -20    0.08    1.68
   8   0  20    2.28    1.77
   0  -8  20    1.15    0.90
  -8   8  20    0.91    1.65
   0  -8  20    1.24    0.87
   5  -8 -20   14.13    2.31
   3   5 -20   16.72    1.50
  -8   3 -20   11.84    2.09
   8  -3  20   11.81    2.18
  -3  -5  20   13.58    1.66
  -5   8  20   12.98    2.26
  -3  -5  20   14.86    1.62
   6   2 -20   14.98    1.95
   2  -8 -20   16.16    2.47
  -8   6 -20   12.84    1.97
   8  -6  20   17.49    2.03
  -2   8  20   17.83    2.46
  -6  -2  20   20.18    2.11
  -6  -2  20   18.01    2.11
  -1  -8 -20   11.61    2.39
   9  -1 -20   15.03    2.29
   1   8  20   14.37    2.50
  -9   1  20   12.63    2.16
   8  -9  20   16.07    1.99
  -4  -8 -20    2.47    1.98
  12  -4 -20    0.53    1.84
 -12   4  20    2.45    1.80
   4   8  20    1.54    2.01
   8 -12  20    0.70    1.25
  -9  -4 -20    2.91    2.05
  13  -9 -20    1.52    1.97
 -13   9  20    1.93    1.98
   9   4  20   -1.01    2.13
  10  -9 -20    7.83    2.26
  -9  -1 -20   10.52    2.33
 -10   9  20   12.19    2.30
   9   1  20    9.45    2.54
   7  -9 -20   11.14    2.21
  -9   2 -20    9.85    2.07
  -7   9  20   10.87    2.18
  -2  -7  20   11.58    1.44
  -2  -7  20   13.40    1.43
   9  -2  20   11.18    2.18
   4  -9 -20    6.76    1.94
   5   4 -20    3.06    1.18
  -9   5 -20    7.91    1.86
  -4   9  20    6.12    1.99
  -5  -4  20    5.64    1.39
  -5  -4  20    6.64    1.50
   8   1 -20    7.29    1.84
  -9   8 -20   12.12    1.78
   1  -9 -20    9.59    2.18
  -8  -1  20    7.96    1.88
  -1   9  20    7.83    2.24
   9  -8  20    9.62    1.70
  -2  -9 -20    2.41    2.03
  11  -2 -20   -0.50    1.63
   2   9  20    3.13    1.89
 -11   2  20   -0.67    1.65
  12 -10 -20   -0.33    1.81
 -10  -2 -20    3.28    2.01
  10   2  20    1.44    2.24
 -12  10  20    5.45    2.09
 -10   1 -20    2.06    1.85
   9 -10 -20    1.43    1.87
  -1  -9  20    3.20    0.91
  -9  10  20    1.88    1.85
  10  -1  20    2.31    1.98
   6 -10 -20    6.40    2.05
 -10   4 -20    9.04    2.03
  -4  -6  20    8.38    1.53
  -6  10  20   12.99    2.35
   3 -10 -20   -2.20    1.63
 -10   7 -20   -0.03    1.40
  -3  10  20   -0.47    1.57
  -7  -3  20    0.83    1.41
  -7  -3  20   -3.77    1.06
  10  -7  20    0.08    1.50
   0 -10 -20    4.71    2.13
  10   0 -20   -1.10    1.49
  10 -10  20    3.22    1.59
   0  10  20    5.48    2.01
 -10   0  20    1.46    1.71
  11 -11 -20    1.69    1.93
 -11   0 -20    6.03    2.21
 -11  11  20    2.93    1.91
  11   0  20    1.48    2.12
 -11   3 -20    3.58    1.92
   8 -11 -20    2.93    1.92
  -3  -8  20    5.52    1.25
  -8  11  20    2.09    1.80
  11  -3  20    6.64    2.16
   5 -11 -20    4.26    2.07
 -11   6 -20    5.69    1.84
  11  -6  20    2.79    1.76
  -5  11  20    5.83    1.89
  -6  -5  20    7.03    1.65
   2 -11 -20    2.11    1.93
  -2  11  20    1.46    1.75
  11  -9  20    3.53    1.71
  -9  -2  20    2.61    1.71
  -1 -11 -20   -0.47    1.94
  11 -12  20    2.03    1.55
 -12   1  20    3.13    1.93
  10 -12 -20    1.47    1.87
 -12   2 -20    2.05    1.90
  12  -2  20    1.81    2.08
  -2 -10  20    1.03    0.89
 -10  12  20    3.41    1.88
   7 -12 -20    1.23    1.82
 -12   5 -20    0.78    1.85
  -5  -7  20    1.85    1.36
  -7  12  20    1.72    1.68
   4 -12 -20   -1.33    1.80
  -8  -4  20    0.83    1.52
  12  -8  20    2.99    1.83
   1 -12 -20    4.55    2.13
  12 -11  20    2.61    1.80
 -11  -1  20    5.62    2.03
 -13   4 -20    1.52    1.97
   9 -13 -20    3.19    1.99
  -4  -9  20    1.23    1.20
 -13   7 -20    1.21    1.80
   6 -13 -20    3.50    2.12
  -7  -6  20    2.58    1.50
  13  -7  20    3.78    1.98
   0   0 -21  148.01    5.70
   0   0 -21  145.39    5.71
   0   0  21  153.40    5.74
   0   0  21  146.62    5.79
   2  -1 -21  192.45    7.04
  -1   2 -21  200.06    6.85
   2  -1 -21  207.16    7.22
  -1   2 -21  203.54    6.83
  -1  -1 -21  198.74    7.14
  -1  -1 -21  194.44    7.13
  -2   1  21  198.60    7.07
   1  -2  21  192.64    6.77
   1   1  21  199.96    7.09
  -2   1  21  179.22    7.03
   1   1  21  190.68    7.23
   1  -2  21  192.08    6.96
  -2   1 -21  179.38    6.58
   1   1 -21  182.42    6.47
   1  -2 -21  182.13    6.82
   1  -2 -21  178.46    6.76
  -2   1 -21  186.40    6.66
   1   1 -21  173.24    6.47
  -1  -1  21  179.46    6.60
  -1   2  21  174.28    6.83
   2  -1  21  186.52    6.60
   2  -1  21  181.08    6.74
  -1   2  21  185.97    6.77
  -1  -1  21  192.13    6.58
   4  -2 -21  166.12    6.53
  -2   4 -21  167.37    5.94
  -2  -2 -21  167.51    6.63
  -2   4 -21  168.62    5.87
  -4   2  21  182.10    6.53
   2  -4  21  178.18    6.27
   2   2  21  160.51    6.73
   2  -4  21  180.23    6.06
   2   2  21  179.79    6.73
  -4   2  21  166.74    6.54
  -3   0 -21  125.67    5.26
   0   3 -21  124.20    4.77
   3  -3 -21  123.66    5.46
   0   3 -21  135.33    4.81
   3   0  21  130.40    5.12
   0  -3  21  119.82    4.93
  -3   3  21  132.22    5.37
   0  -3  21  130.93    4.88
   3   0  21  115.09    5.27
  -3   3  21  127.02    5.41
  -3   3 -21   83.11    3.71
   0  -3 -21   84.43    4.33
   3   0 -21   81.24    3.92
  -3   3 -21   87.04    3.88
  -3   0  21   76.41    3.91
   0   3  21   79.27    4.08
  -3   0  21   82.75    3.86
   0   3  21   82.46    4.38
   3  -3  21   75.75    3.70
   3  -3  21   81.66    3.91
  -3  -3 -21  102.77    4.85
   6  -3 -21   99.68    4.89
  -3   6 -21  104.95    3.65
   3  -6  21   97.70    3.95
   3   3  21   98.40    5.15
  -6   3  21  107.85    4.92
   3  -6  21  101.91    4.24
   5  -4 -21  135.08    5.81
  -4  -1 -21  144.30    5.77
  -1   5 -21  137.22    4.60
  -1   5 -21  122.68    4.52
   1  -5  21  129.08    5.05
   4   1  21  136.29    5.88
   1  -5  21  143.28    4.97
  -5   4  21  132.99    5.73
   2   2 -21  117.72    4.71
  -4   2 -21  126.88    5.02
   2  -4 -21  125.39    5.43
   2   2 -21  120.29    4.73
  -2  -2  21  118.44    4.87
  -2   4  21  119.56    5.40
   4  -2  21  117.20    5.09
   4  -2  21  127.02    4.95
  -2  -2  21  121.83    4.77
  -1  -4 -21   68.74    4.14
  -4   5 -21   70.02    3.19
   5  -1 -21   81.39    3.99
  -4   5 -21   75.35    3.42
  -5   1  21   66.44    3.67
   4  -5  21   69.42    3.53
   1   4  21   69.94    4.29
   4  -5  21   71.38    3.36
  -5   1  21   71.54    3.82
   8  -4 -21   78.72    4.54
  -4  -4 -21   91.65    4.82
   4   4  21   83.04    4.96
  -8   4  21   90.64    4.70
   4  -8  21   92.39    3.79
   4  -8  21   90.48    3.53
   7  -5 -21   49.56    3.72
  -5  -2 -21   48.77    3.46
   5   2  21   49.33    3.87
   2  -7  21   49.60    2.52
  -7   5  21   49.28    3.61
   2  -7  21   47.36    2.72
   1   4 -21   85.01    3.48
   1   4 -21   77.34    3.30
   4  -5 -21   78.63    4.39
  -5   1 -21   89.18    4.24
  -1  -4  21   89.20    3.79
   5  -1  21   80.62    4.22
  -4   5  21   87.70    4.48
   5  -1  21   85.64    4.10
  -1  -4  21   82.79    3.65
  -5   4 -21  114.79    4.73
   1  -5 -21  114.67    5.37
   4   1 -21  119.09    4.81
  -4  -1  21  120.20    4.78
   5  -4  21  104.13    4.78
   5  -4  21  113.78    4.68
  -1   5  21  114.46    5.29
  -4  -1  21  118.14    4.86
  -5   7 -21   91.56    3.50
   7  -2 -21   99.26    4.74
  -2  -5 -21   87.86    4.86
  -5   7 -21   93.07    3.69
   2   5  21   93.69    5.11
   5  -7  21   96.99    3.87
  -7   2  21   95.63    4.65
   5  -7  21   90.45    4.09
  -5  -5 -21   51.01    4.09
  10  -5 -21   55.25    4.12
 -10   5  21   56.56    4.03
   5 -10  21   53.85    2.80
   5   5  21   55.98    4.49
   9  -6 -21   65.39    4.34
  -6  -3 -21   67.14    4.21
   6   3  21   68.94    4.62
   3  -9  21   63.18    2.62
   3  -9  21   66.11    2.85
  -9   6  21   63.06    4.19
   6  -6 -21   66.27    4.22
  -6   0 -21   62.36    3.80
  -6   6  21   64.94    3.96
   6   0  21   75.20    4.21
   0  -6  21   64.76    3.05
   0  -6  21   74.82    3.21
   3  -6 -21   96.59    4.99
   3   3 -21   98.66    4.06
  -6   3 -21  102.70    4.60
   3   3 -21   99.92    4.16
   6  -3  21   98.64    4.53
  -3  -3  21   99.75    4.30
   6  -3  21  102.86    4.77
  -3   6  21  104.89    5.02
  -3  -3  21  102.91    4.17
   6   0 -21   96.64    4.46
  -6   6 -21   90.56    4.02
   0  -6 -21   92.41    4.81
  -6   0  21   89.75    4.42
  -6   0  21   99.85    4.38
   0   6  21   93.23    4.99
   6  -6  21   93.58    4.24
   6  -6  21   95.35    4.07
   9  -3 -21   54.15    3.90
  -3  -6 -21   58.50    4.09
   6  -9  21   59.50    3.13
   6  -9  21   56.99    2.83
  -9   3  21   53.05    3.81
   3   6  21   58.66    4.35
  -6  -6 -21   24.03    3.06
  12  -6 -21   27.92    3.34
   6   6  21   24.91    3.35
 -12   6  21   19.97    2.91
  -7  -4 -21   26.35    3.12
  11  -7 -21   23.38    3.01
 -11   7  21   20.15    2.91
   7   4  21   25.72    3.33
  -7  -1 -21   90.78    4.84
   8  -7 -21   88.82    4.95
  -8   7  21   88.76    4.82
   7   1  21   89.70    5.03
   1  -8  21   87.20    3.37
   1  -8  21   88.18    3.42
   5  -7 -21   79.32    4.58
   2   5 -21   81.13    3.24
  -7   2 -21   79.16    4.26
   7  -2  21   78.73    4.39
  -5   7  21   77.38    4.46
  -2  -5  21   84.86    3.57
  -2  -5  21   85.60    3.66
   5   2 -21  120.34    4.79
  -7   5 -21  117.03    4.86
   2  -7 -21  111.17    5.45
  -5  -2  21  113.79    4.73
  -5  -2  21  108.69    4.84
   7  -5  21  108.88    4.95
  -2   7  21  112.12    5.42
   7  -5  21  114.75    4.83
  -7   8 -21   51.39    2.86
   8  -1 -21   53.62    3.71
  -1  -7 -21   53.63    4.01
   1   7  21   52.17    4.06
  -8   1  21   59.14    3.69
   7  -8  21   56.15    3.00
   7  -8  21   53.47    3.25
  -4  -7 -21   32.78    3.49
  11  -4 -21   30.68    3.33
   4   7  21   34.63    3.74
   7 -11  21   33.17    2.53
 -11   4  21   33.06    3.29
  -8  -5 -21   22.30    3.00
  13  -8 -21   23.83    3.31
   8   5  21   22.36    3.29
 -13   8  21   19.23    2.97
  10  -8 -21   26.38    3.11
  -8  -2 -21   34.84    3.43
 -10   8  21   34.27    3.47
   8   2  21   30.45    3.46
   7  -8 -21   54.20    4.03
  -8   1 -21   49.67    3.75
  -1  -7  21   54.16    2.68
  -1  -7  21   55.94    2.70
  -7   8  21   53.75    3.86
   8  -1  21   50.64    3.77
   4   4 -21   81.66    3.67
  -8   4 -21   94.17    4.56
   4  -8 -21   91.50    4.83
  -4  -4  21   89.87    4.08
  -4  -4  21   94.29    3.98
   8  -4  21   98.78    4.74
  -4   8  21   88.63    4.76
   7   1 -21   64.49    3.73
  -8   7 -21   62.17    3.45
   1  -8 -21   67.68    4.35
  -7  -1  21   65.63    3.87
  -7  -1  21   63.13    3.59
   8  -7  21   71.62    3.86
   8  -7  21   66.60    3.49
  -1   8  21   66.60    4.27
  -2  -8 -21   34.88    3.60
  10  -2 -21   45.86    3.70
   8 -10  21   36.59    2.89
 -10   2  21   33.81    3.27
   2   8  21   41.93    3.91
  -5  -8 -21   20.55    3.00
  13  -5 -21   20.87    3.07
   8 -13  21   21.12    2.00
 -13   5  21   20.80    2.99
  -9  -3 -21   23.02    3.17
  12  -9 -21   23.10    3.17
   9   3  21   22.69    3.35
 -12   9  21   20.44    2.95
  -9   0 -21   60.03    4.20
   9  -9 -21   61.90    4.37
   0  -9  21   53.05    2.34
  -9   9  21   57.46    4.10
   9   0  21   58.26    4.40
   6  -9 -21   44.37    3.83
  -9   3 -21   49.57    3.64
  -6   9  21   50.63    3.85
  -3  -6  21   48.55    2.72
   9  -3  21   52.35    3.83
  -3  -6  21   49.97    2.83
  -9   6 -21   75.82    4.07
   6   3 -21   75.29    3.75
   3  -9 -21   66.57    4.45
  -3   9  21   79.87    4.65
  -6  -3  21   75.00    3.96
  -6  -3  21   80.53    3.86
   0  -9 -21   26.15    3.27
   9   0 -21   26.66    2.82
  -9   0  21   27.82    2.97
   0   9  21   27.38    3.15
  12  -3 -21   18.51    2.87
  -3  -9 -21   17.72    2.92
   9 -12  21   22.87    2.31
 -12   3  21   20.31    2.78
  11 -10 -21   20.46    3.14
 -10  -1 -21   20.07    3.00
 -11  10  21   26.20    3.11
  10   1  21   24.26    3.34
   8 -10 -21   38.11    3.79
 -10   2 -21   38.75    3.51
  -8  10  21   41.85    3.56
  10  -2  21   34.81    3.49
  -2  -8  21   40.67    2.34
 -10   5 -21   36.47    3.16
   5 -10 -21   38.68    3.58
  -5  10  21   42.13    3.59
  -5  -5  21   40.60    2.94
   8   2 -21   17.25    2.36
   2 -10 -21   18.89    2.83
  -8  -2  21   17.98    2.40
  -2  10  21   18.83    2.67
  -1 -10 -21   22.38    3.29
  11  -1 -21   20.94    2.82
 -11   1  21   30.45    3.19
 -11   1 -21   27.76    3.30
  10 -11 -21   25.66    3.27
  11  -1  21   29.99    3.65
 -10  11  21   26.02    3.09
 -11   4 -21   24.87    2.95
   7 -11 -21   22.08    3.04
  -7  11  21   26.27    2.98
  -4  -7  21   30.39    2.45
  11  -4  21   28.40    3.33
   4 -11 -21   25.96    3.17
 -11   7 -21   31.94    2.91
  -7  -4  21   27.80    2.67
  -4  11  21   23.95    2.86
   1 -11 -21   19.83    2.90
  11 -10  21   22.34    2.68
 -10  -1  21   27.16    2.91
   9 -12 -21   16.52    2.80
 -12   3 -21   22.02    2.97
  -9  12  21   23.53    2.99
  12  -3  21   17.39    2.92
  -3  -9  21   21.14    1.77
   6 -12 -21   30.87    3.47
 -12   6 -21   25.67    2.96
  -6  12  21   30.29    3.14
  -6  -6  21   37.02    2.86
   3 -12 -21   18.84    2.98
  12  -9  21   25.05    2.93
  -9  -3  21   31.23    3.06
   8 -13 -21   21.98    3.00
 -13   5 -21   22.74    2.97
  -5  -8  21   14.81    1.89
   5 -13 -21   19.73    2.95
  -8  -5  21   16.70    2.33
  13  -8  21   23.06    3.05
   0   1 -22    4.60    1.51
   1  -1 -22    2.72    1.55
  -1   0 -22    3.42    1.50
   0   1 -22    4.20    1.41
  -1   1  22    2.53    1.45
   1   0  22    2.31    1.38
   0  -1  22    5.64    1.47
  -1   1  22    6.53    1.56
   1   0  22    4.02    1.57
   0  -1  22    2.11    1.44
  -1   3 -22   -0.90    1.01
   3  -2 -22    0.75    1.46
  -2  -1 -22   -1.52    1.33
  -1   3 -22   -0.76    1.11
   2   1  22    0.66    1.55
   2   1  22   -0.02    1.31
  -3   2  22   -1.94    1.21
   1  -3  22    1.08    1.35
   1  -3  22   -1.76    1.08
  -3   2  22   -2.53    1.30
  -2   2 -22    3.49    1.41
   0  -2 -22    3.65    1.58
   2   0 -22    0.96    1.34
  -2   0  22    3.64    1.51
   0   2  22    4.17    1.47
   0   2  22    3.31    1.70
   2  -2  22    3.65    1.37
   2  -2  22    4.09    1.54
  -2   0  22    2.00    1.38
  -3  -2 -22   -1.46    1.38
   5  -3 -22    1.37    1.56
  -2   5 -22   -1.17    0.91
  -2   5 -22    0.16    1.00
   2  -5  22   -1.51    1.14
   2  -5  22    1.46    1.32
  -5   3  22    1.81    1.55
   3   2  22    1.54    1.63
   1   2 -22    0.04    1.17
   2  -3 -22   -0.47    1.49
   1   2 -22    0.24    1.19
  -3   1 -22   -0.39    1.30
   3  -1  22    0.09    1.26
  -1  -2  22   -0.69    1.20
  -2   3  22   -3.31    1.32
  -2   3  22   -1.69    1.17
  -1  -2  22   -0.41    1.24
   3  -1  22    2.43    1.45
   4  -1 -22    1.25    1.49
  -3   4 -22    1.48    1.11
  -1  -3 -22    3.85    1.72
  -3   4 -22    1.26    1.27
  -4   1  22    1.47    1.35
   1   3  22   -0.01    1.55
   3  -4  22    1.14    1.35
   3  -4  22    0.78    1.17
  -4   1  22    3.12    1.46
  -4  -3 -22    2.38    1.77
   7  -4 -22    5.33    1.90
   3  -7  22    5.83    1.24
   4   3  22    3.96    1.98
  -7   4  22    5.98    1.88
   3  -7  22    6.18    1.43
  -4   0 -22    0.90    1.44
   4  -4 -22   -0.15    1.48
   0   4 -22   -0.40    1.00
   0   4 -22   -1.19    0.95
   4   0  22    0.65    1.43
   0  -4  22   -0.60    1.10
   4   0  22   -0.23    1.30
   0  -4  22    0.85    1.24
  -4   4  22   -0.27    1.46
   1  -4 -22    1.21    1.63
   3   1 -22   -0.01    1.28
  -4   3 -22    0.90    1.32
  -3  -1  22    2.95    1.47
   4  -3  22    3.01    1.47
  -1   4  22    2.54    1.73
   4  -3  22    1.90    1.29
  -3  -1  22    3.42    1.37
  -4   6 -22   11.68    1.40
  -4   6 -22   13.50    1.54
  -2  -4 -22   15.80    2.42
   6  -2 -22   11.17    2.11
   2   4  22   15.20    2.48
   4  -6  22   11.38    1.72
   4  -6  22   13.27    1.62
  -6   2  22   14.68    2.24
   9  -5 -22   -1.21    1.59
  -5  -4 -22   -2.65    1.56
  -9   5  22    1.09    1.66
   4  -9  22    0.49    1.10
   4  -9  22    0.64    0.91
   5   4  22    0.02    1.83
   6  -5 -22   -0.19    1.59
  -5  -1 -22    1.17    1.60
   1  -6  22    0.37    1.20
   1  -6  22    3.01    1.13
   5   1  22   -0.71    1.66
  -6   5  22    4.03    1.77
   2   3 -22   -1.65    1.03
   3  -5 -22    0.10    1.52
   2   3 -22   -1.28    1.04
  -5   2 -22   -1.74    1.28
   5  -2  22   -2.17    1.14
  -2  -3  22    1.10    1.31
  -3   5  22   -2.56    1.45
   5  -2  22    0.75    1.50
  -2  -3  22    2.14    1.21
   0  -5 -22    6.84    1.93
   5   0 -22    5.55    1.64
  -5   5 -22    5.76    1.49
  -5   0  22    5.13    1.46
  -5   0  22    4.63    1.68
   5  -5  22    5.60    1.43
   0   5  22    3.25    1.92
   5  -5  22    4.00    1.51
   8  -3 -22    1.25    1.62
  -3  -5 -22    1.49    1.69
  -8   3  22   -0.71    1.56
   5  -8  22    2.89    1.32
   5  -8  22    3.11    1.11
   3   5  22    1.51    1.87
  11  -6 -22   -1.46    1.65
  -6  -5 -22    0.89    1.89
 -11   6  22   -0.19    1.73
   6   5  22    2.76    2.24
   5 -11  22   -1.58    1.00
   8  -6 -22   -0.56    1.69
  -6  -2 -22   -0.34    1.58
   2  -8  22   -0.25    0.94
   2  -8  22    0.70    1.06
  -8   6  22   -1.18    1.62
   6   2  22   -4.01    1.68
  -6   1 -22    3.93    1.65
   1   5 -22    1.50    0.61
   1   5 -22    2.35    0.99
   5  -6 -22    1.33    1.68
  -5   6  22    2.34    1.72
  -1  -5  22    3.04    1.29
  -1  -5  22    2.29    1.21
   6  -1  22    5.39    1.85
   4   2 -22    1.60    1.25
   2  -6 -22   -1.39    1.52
  -6   4 -22   -3.08    1.26
   6  -4  22    0.81    1.25
  -4  -2  22    0.58    1.19
   6  -4  22    0.03    1.38
  -2   6  22    2.71    1.78
  -4  -2  22   -0.30    1.35
  -1  -6 -22   -0.13    1.65
  -6   7 -22    0.78    1.12
   7  -1 -22    0.89    1.41
   6  -7  22   -0.72    1.07
  -7   1  22    2.40    1.59
   6  -7  22   -0.91    1.21
   1   6  22    0.88    1.80
  10  -4 -22    1.93    1.77
  -4  -6 -22    2.14    1.90
   4   6  22    2.99    2.06
 -10   4  22    2.26    1.81
   6 -10  22   -0.51    1.19
  13  -7 -22    2.99    2.19
  -7  -6 -22    1.29    2.15
   7   6  22   -0.51    2.08
 -13   7  22    0.94    1.88
  -7  -3 -22    0.49    1.76
  10  -7 -22    1.48    1.96
   7   3  22    2.31    2.14
 -10   7  22    0.54    1.78
   7  -7 -22    0.80    1.73
  -7   0 -22   -1.49    1.52
   0  -7  22   -0.76    1.02
  -7   7  22   -0.20    1.68
   0  -7  22    0.56    0.98
   7   0  22    1.19    1.77
   3   4 -22    1.53    1.16
   3   4 -22    0.92    1.02
   4  -7 -22    2.08    1.73
  -7   3 -22    2.37    1.56
  -3  -4  22   -0.37    1.24
   7  -3  22   -0.96    1.42
  -3  -4  22    1.53    1.18
  -4   7  22    0.57    1.63
  -7   6 -22    1.24    1.35
   1  -7 -22   -0.09    1.69
   6   1 -22    3.34    1.45
  -6  -1  22   -0.51    1.18
  -1   7  22   -0.73    1.68
   7  -6  22    2.68    1.32
  -6  -1  22   -0.57    1.36
   7  -6  22    0.85    1.41
   9  -2 -22    1.53    1.72
  -2  -7 -22   -1.53    1.72
   7  -9  22   -0.23    1.36
  -9   2  22    0.03    1.50
   2   7  22   -1.30    1.80
  -5  -7 -22    1.17    1.96
  12  -5 -22   -3.70    1.66
   7 -12  22   -0.47    1.18
 -12   5  22    2.45    1.91
   5   7  22    0.69    2.15
  -8  -4 -22    0.71    1.95
  12  -8 -22   -1.49    1.74
   8   4  22   -0.28    2.15
 -12   8  22    0.31    1.87
  -8  -1 -22    1.18    1.82
   9  -8 -22    4.96    2.02
   8   1  22    1.71    1.94
  -9   8  22   -0.87    1.79
   1  -9  22   -0.25    0.85
   6  -8 -22    1.48    1.68
  -8   2 -22    0.42    1.60
  -6   8  22    0.79    1.68
  -2  -6  22   -0.95    1.00
   8  -2  22    2.09    1.74
  -2  -6  22    0.47    1.12
   5   3 -22    1.69    1.19
   3  -8 -22    1.92    1.73
  -8   5 -22   -1.50    1.30
  -5  -3  22    0.29    1.18
   8  -5  22    0.96    1.30
  -3   8  22   -1.35    1.61
  -5  -3  22   -0.08    1.31
   8  -5  22   -0.39    1.51
   0  -8 -22    0.58    1.75
   8   0 -22    3.18    1.73
   0   8  22    0.04    1.75
   8  -8  22    3.18    1.56
   8  -8  22    2.47    1.35
  -8   0  22    1.11    1.57
  11  -3 -22    1.92    1.91
  -3  -8 -22    0.67    1.87
   8 -11  22    0.23    1.32
 -11   3  22   -2.59    1.68
   3   8  22   -1.10    1.85
  11  -9 -22    0.73    1.86
  -9  -2 -22   -0.76    1.88
 -11   9  22   -0.25    1.79
   9   2  22   -1.19    2.07
   8  -9 -22   -2.93    1.55
  -9   1 -22   -0.64    1.76
  -1  -8  22    0.23    0.98
  -8   9  22    2.24    1.80
   9  -1  22   -1.10    1.72
  -9   4 -22    0.44    1.57
   5  -9 -22    0.56    1.72
  -4  -5  22    0.10    1.10
  -4  -5  22    1.40    1.32
   9  -4  22    0.92    1.66
  -5   9  22   -1.98    1.65
   2  -9 -22    1.62    1.86
   7   2 -22   -0.31    1.33
  -9   7 -22    1.09    1.44
  -7  -2  22    1.11    1.38
   9  -7  22   -1.87    1.50
   9  -7  22    1.82    1.38
  -2   9  22    0.94    1.79
  -7  -2  22    3.44    1.60
  10  -1 -22   -1.67    1.59
  -1  -9 -22    1.33    1.97
 -10   1  22   -2.15    1.49
   1   9  22    0.58    1.90
   9 -10  22   -1.21    1.44
 -10   0 -22   -0.49    1.82
  10 -10 -22   -2.96    1.69
  10   0  22   -0.76    2.03
 -10  10  22   -0.65    1.73
   7 -10 -22   -1.25    1.70
 -10   3 -22    0.87    1.79
  -7  10  22    1.64    1.85
  -3  -7  22    0.35    1.15
  10  -3  22    0.78    1.85
 -10   6 -22   -1.49    1.45
   4 -10 -22    2.00    1.87
  -4  10  22   -0.80    1.62
  10  -6  22    2.34    1.78
  -6  -4  22    1.05    1.42
   1 -10 -22   -0.11    1.85
  -9  -1  22   -0.46    1.61
  -1  10  22   -3.09    1.53
  -2 -10 -22    3.49    2.22
  12  -2 -22    2.68    2.01
  10 -12  22    2.24    1.67
 -12   2  22    5.05    2.17
   9 -11 -22   -0.86    1.75
 -11   2 -22    1.90    1.96
  -9  11  22    3.76    2.06
  11  -2  22    1.41    2.05
  -2  -9  22    0.51    1.01
 -11   5 -22   -1.11    1.64
   6 -11 -22    0.34    1.74
  11  -5  22   -1.04    1.78
  -6  11  22    1.56    1.84
  -5  -6  22    0.97    1.41
   3 -11 -22    1.82    2.03
  -8  -3  22    0.99    1.61
  -3  11  22    0.04    1.77
   0 -11 -22   -0.33    1.93
 -11   0  22    1.06    1.83
 -12   4 -22   -0.39    1.83
   8 -12 -22    2.15    2.02
  -8  12  22   -0.05    1.79
  -4  -8  22   -0.90    1.18
  12  -4  22    3.08    2.07
   5 -12 -22    2.58    2.09
  -7  -5  22    0.96    1.54
   2 -12 -22   -1.26    1.73
 -10  -2  22    1.60    1.77
   7 -13 -22    0.29    1.91
 -13   6 -22   -1.26    1.63
  -6  -7  22   -0.90    1.39
   1   0 -23    1.78    1.47
  -1   1 -23    0.52    1.34
   0  -1 -23    0.29    1.44
   1  -1  23    0.04    1.26
   1  -1  23    1.88    1.46
  -1   0  23   -0.28    1.22
   0   1  23   -0.36    1.29
   0   1  23    1.00    1.48
  -1   0  23    0.23    1.32
   0   2 -23   12.21    1.73
   0   2 -23   12.05    1.83
   2  -2 -23   13.07    2.09
  -2   0 -23   17.70    2.20
   0  -2  23   13.19    2.03
   2   0  23   15.20    2.13
   2   0  23   13.26    1.95
  -2   2  23   14.43    1.99
   0  -2  23   15.14    1.85
  -2   2  23   16.96    2.32
  -1  -2 -23   29.15    2.83
   3  -1 -23   26.50    2.64
  -2   3 -23   29.02    2.31
  -2   3 -23   31.89    2.59
   1   2  23   32.13    3.02
  -3   1  23   27.85    2.55
   2  -3  23   35.20    2.59
   2  -3  23   26.90    2.50
  -3   1  23   33.03    2.82
   4  -3 -23   10.57    2.13
  -1   4 -23   10.21    1.51
  -3  -1 -23   11.13    2.04
   3   1  23    7.28    2.04
   1  -4  23   10.94    1.63
   1  -4  23   10.49    1.78
  -4   3  23    8.93    1.91
  -3   2 -23   17.23    2.15
   2   1 -23   15.41    2.02
   1  -3 -23   15.49    2.22
  -2  -1  23   14.50    1.93
   3  -2  23   15.70    2.12
   3  -2  23   18.86    2.11
  -2  -1  23   18.73    2.21
  -1   3  23   16.08    2.33
   5  -2 -23    4.44    1.77
  -3   5 -23    1.37    1.19
  -2  -3 -23    2.56    1.73
  -3   5 -23    3.32    1.12
   3  -5  23    4.25    1.33
  -5   2  23    2.88    1.57
   3  -5  23    2.62    1.50
   2   3  23    2.21    1.82
  -4  -2 -23   10.33    2.13
  -2   6 -23    6.90    1.02
   6  -4 -23    3.05    1.77
  -6   4  23    5.08    1.79
   2  -6  23    2.10    1.35
   2  -6  23    5.91    1.31
   4   2  23    3.99    1.92
   1   3 -23    3.52    1.27
   3  -4 -23    0.47    1.54
  -4   1 -23    2.81    1.61
   1   3 -23    1.96    1.26
   4  -1  23    2.26    1.40
   4  -1  23    6.06    1.71
  -3   4  23    1.31    1.67
  -1  -3  23    3.16    1.36
  -1  -3  23   -0.42    1.27
  -4   4 -23    2.07    1.43
   4   0 -23    2.96    1.53
   0  -4 -23    5.13    1.86
   4  -4  23    3.94    1.38
  -4   0  23    2.74    1.38
  -4   0  23    1.87    1.47
   0   4  23    2.30    1.79
   4  -4  23    2.03    1.44
  -4   7 -23    2.97    0.79
   7  -3 -23    4.34    1.83
  -4   7 -23    4.37    0.93
  -3  -4 -23    6.00    1.92
  -7   3  23    6.69    1.93
   4  -7  23    4.14    1.27
   3   4  23    4.30    2.06
   4  -7  23    6.07    1.54
   8  -5 -23   -0.68    1.64
  -5  -3 -23   -1.41    1.59
   3  -8  23    1.35    1.03
   3  -8  23   -0.03    1.22
  -8   5  23    1.63    1.66
   5   3  23   -2.25    1.76
   5  -5 -23    2.85    1.79
  -5   0 -23   -0.56    1.48
   0   5 -23    0.23    0.85
  -5   5  23    0.35    1.60
   0  -5  23    1.22    1.16
   0  -5  23    0.04    1.29
   5   0  23    0.28    1.71
   3   2 -23    1.95    1.37
  -5   3 -23    3.20    1.50
   2  -5 -23   -1.01    1.53
  -2   5  23    1.72    1.77
  -3  -2  23    1.81    1.48
  -3  -2  23    2.17    1.33
   5  -3  23    1.75    1.35
   5  -3  23    1.10    1.45
  -5   6 -23    0.93    1.20
  -1  -5 -23    2.89    1.86
   6  -1 -23   -2.02    1.37
  -6   1  23    0.73    1.59
   1   5  23    4.87    2.00
   5  -6  23    0.41    1.23
   5  -6  23    0.39    1.33
   9  -4 -23    6.37    2.12
  -4  -5 -23    4.15    2.04
  -9   4  23    2.83    1.79
   4   5  23    5.33    2.28
   5  -9  23    8.47    1.57
  10  -6 -23    1.74    1.91
  -6  -4 -23    0.37    1.91
   4 -10  23    0.66    1.06
 -10   6  23    3.69    1.92
   6   4  23   -1.32    1.90
   7  -6 -23   -1.07    1.61
  -6  -1 -23    1.02    1.65
  -7   6  23    3.80    1.96
   6   1  23    0.71    1.79
   1  -7  23    1.94    1.11
   1  -7  23    2.01    1.24
  -6   2 -23    2.31    1.56
   2   4 -23    0.01    1.05
   4  -6 -23    0.13    1.67
   2   4 -23   -1.08    0.95
  -4   6  23    0.90    1.67
  -2  -4  23    0.80    1.31
  -2  -4  23    1.90    1.21
   6  -2  23   -0.61    1.48
   1  -6 -23    9.48    2.24
   5   1 -23    3.46    1.60
  -6   5 -23   11.02    1.78
   6  -5  23   10.54    1.95
   6  -5  23    9.44    1.67
  -5  -1  23    8.56    1.84
  -5  -1  23   12.47    1.82
  -1   6  23    7.41    2.08
  -2  -6 -23    1.36    1.94
  -6   8 -23    0.11    0.82
   8  -2 -23    4.60    1.81
   6  -8  23    0.65    1.16
  -8   2  23    0.74    1.59
   6  -8  23    0.18    1.28
   2   6  23    0.18    1.78
  -5  -6 -23    1.32    1.90
  11  -5 -23    2.58    1.95
   6 -11  23    3.68    1.32
 -11   5  23    1.48    1.88
   5   6  23    0.27    2.12
  -7  -5 -23    2.36    2.08
  12  -7 -23   -0.30    1.94
 -12   7  23    5.09    2.10
   7   5  23    3.12    2.37
   9  -7 -23    1.10    1.89
  -7  -2 -23    2.29    1.88
   7   2  23    0.28    2.04
  -9   7  23    0.08    1.82
   2  -9  23    0.39    1.01
   6  -7 -23    2.68    1.83
  -7   1 -23    1.43    1.66
   7  -1  23    0.53    1.68
  -1  -6  23   -0.39    1.11
  -1  -6  23    2.13    1.23
  -6   7  23   -0.01    1.75
   3  -7 -23   13.78    2.31
  -7   4 -23   15.19    2.13
   4   3 -23    8.93    1.57
   7  -4  23   11.98    1.94
  -4  -3  23   13.20    1.92
  -3   7  23   14.65    2.49
   7  -4  23   11.89    2.14
  -4  -3  23   13.73    1.80
   0  -7 -23    4.26    1.89
  -7   7 -23    2.39    1.34
   7   0 -23    3.93    1.64
   7  -7  23    2.87    1.60
  -7   0  23    1.96    1.65
   0   7  23    2.25    1.96
   7  -7  23    0.34    1.31
  -3  -7 -23    8.21    2.27
  10  -3 -23    3.43    1.99
   3   7  23    8.24    2.49
 -10   3  23    7.93    2.19
   7 -10  23    7.83    1.67
  -8  -3 -23    0.70    1.87
  11  -8 -23   -1.04    1.87
   8   3  23   -3.29    1.97
 -11   8  23    1.77    1.84
   8  -8 -23   13.97    2.60
  -8   0 -23   19.48    2.74
  -8   8  23   19.77    2.71
   8   0  23   21.70    3.06
   0  -8  23   19.56    1.71
   5  -8 -23    1.05    1.73
   3   5 -23    2.23    1.08
  -8   3 -23    2.86    1.66
   8  -3  23    0.98    1.71
  -5   8  23    3.80    1.96
  -3  -5  23    2.39    1.40
  -3  -5  23    2.05    1.27
  -8   6 -23    5.72    1.64
   2  -8 -23    5.30    2.04
   6   2 -23    2.58    1.51
   8  -6  23    2.87    1.67
   8  -6  23    3.15    1.52
  -6  -2  23    5.49    1.66
  -6  -2  23    3.41    1.43
  -2   8  23    4.35    1.99
  -1  -8 -23   -2.26    1.65
   9  -1 -23    0.96    1.73
  -9   1  23    1.55    1.78
   8  -9  23   -0.23    1.44
   1   8  23    2.73    2.02
  12  -4 -23    4.98    2.21
  -4  -8 -23    1.01    2.00
   4   8  23    1.47    2.06
   8 -12  23    0.68    1.36
 -12   4  23    0.23    1.76
  -9  -1 -23    3.12    2.01
  10  -9 -23    0.23    1.93
   9   1  23   -0.06    2.07
 -10   9  23    2.03    1.84
   7  -9 -23    2.49    1.92
  -9   2 -23    3.29    1.89
   9  -2  23    3.13    2.05
  -2  -7  23    3.90    1.30
  -7   9  23    5.28    2.04
  -9   5 -23    3.61    1.73
   4  -9 -23    2.99    1.85
  -4   9  23    4.86    2.03
  -5  -4  23    5.20    1.63
   9  -5  23    5.78    1.98
   1  -9 -23    0.80    1.96
   8   1 -23    0.98    1.48
   9  -8  23   -0.85    1.43
  -8  -1  23   -0.02    1.58
  -1   9  23   -0.24    1.78
  11  -2 -23    1.67    1.83
  -2  -9 -23    0.76    1.97
   9 -11  23    2.26    1.58
   2   9  23   -1.56    1.95
 -11   2  23    2.20    1.84
   9 -10 -23    1.08    1.91
 -10   1 -23    1.94    1.92
  10  -1  23    2.29    2.08
  -9  10  23    1.30    1.89
  -1  -9  23    1.64    1.01
   6 -10 -23    0.74    1.86
 -10   4 -23    2.79    1.87
  10  -4  23   -3.31    1.52
  -6  10  23    3.31    1.98
  -4  -6  23    0.21    1.28
 -10   7 -23    1.39    1.68
   3 -10 -23    0.36    1.84
  -3  10  23    0.23    1.82
  -7  -3  23    1.61    1.57
  10  -7  23    0.33    1.67
   0 -10 -23   -2.95    1.72
  10 -10  23   -0.19    1.68
 -10   0  23    1.53    1.77
   0  10  23    1.91    1.93
 -11   0 -23    0.49    2.08
  11 -11 -23    0.41    1.89
 -11  11  23    1.17    1.93
  11   0  23   -2.92    1.94
 -11   3 -23   -2.45    1.73
   8 -11 -23   -1.07    1.73
  11  -3  23    1.93    2.10
  -8  11  23    0.50    1.87
  -3  -8  23   -1.39    1.10
 -11   6 -23    0.99    1.67
   5 -11 -23   -1.26    1.81
  -5  11  23   -1.99    1.69
  -6  -5  23   -0.73    1.44
  11  -6  23    2.96    2.01
   2 -11 -23    4.21    2.09
  -2  11  23    4.55    2.25
  -9  -2  23    2.25    1.85
   7 -12 -23   -1.08    1.72
 -12   5 -23   -0.48    1.76
  -7  12  23    1.45    1.80
  12  -5  23    0.17    1.92
  -5  -7  23    0.46    1.39
   4 -12 -23    3.43    2.10
  -8  -4  23    0.12    1.63
   0   0 -24   51.54    3.50
   0   0  24   56.62    3.62
   0   0  24   59.51    3.45
  -1  -1 -24   73.19    4.20
  -1   2 -24   84.26    3.99
   2  -1 -24   83.22    4.28
   1  -2  24   79.89    4.07
   1   1  24   75.16    4.12
   1   1  24   76.81    4.32
  -2   1  24   78.89    4.07
  -2   1  24   74.76    4.16
   1  -2  24   83.16    3.90
   1   1 -24  127.88    5.13
   1  -2 -24  122.07    5.41
  -2   1 -24  127.41    5.21
   2  -1  24  121.37    5.10
  -1   2  24  118.35    5.41
  -1   2  24  120.01    5.31
  -1  -1  24  112.58    5.14
  -1  -1  24  113.47    4.95
   2  -1  24  116.70    5.28
  -2   4 -24   65.04    3.34
  -2  -2 -24   65.51    3.96
   4  -2 -24   59.06    3.91
   2  -4  24   68.47    3.45
  -4   2  24   59.53    3.89
   2   2  24   68.37    4.27
   2  -4  24   64.73    3.61
  -3   0 -24   68.04    3.90
   3  -3 -24   59.46    4.01
   0   3 -24   66.69    3.40
   3   0  24   67.25    4.06
  -3   3  24   67.46    4.02
   0  -3  24   57.03    3.48
   0  -3  24   59.92    3.30
   3   0  24   65.47    4.06
  -3   3 -24   92.19    4.32
   3   0 -24   89.27    4.47
   0  -3 -24   97.90    4.85
   3  -3  24   90.70    4.20
  -3   0  24   84.09    4.45
   3  -3  24   83.40    4.32
   0   3  24   94.85    4.91
  -3   0  24   93.00    4.37
  -3   6 -24   78.89    3.36
   6  -3 -24   80.76    4.53
  -3   6 -24   79.31    3.24
  -3  -3 -24   76.23    4.56
   3   3  24   77.76    4.77
   3  -6  24   79.52    3.91
   3  -6  24   79.78    3.64
  -6   3  24   83.74    4.54
  -1   5 -24   35.93    2.34
  -4  -1 -24   37.51    3.31
  -1   5 -24   41.20    2.35
   5  -4 -24   44.88    3.51
   4   1  24   44.46    3.61
  -5   4  24   44.47    3.56
   1  -5  24   42.83    2.93
   1  -5  24   41.99    2.67
   2  -4 -24   84.09    4.57
  -4   2 -24   81.76    4.20
   2   2 -24   81.52    3.91
  -2   4  24   77.69    4.59
  -2  -2  24   85.76    3.99
   4  -2  24   81.72    4.05
  -2  -2  24   78.90    4.07
   4  -2  24   79.53    4.34
  -1  -4 -24   22.70    2.69
  -4   5 -24   24.86    2.22
   5  -1 -24   30.47    2.87
  -5   1  24   27.68    2.74
   4  -5  24   27.48    2.31
   1   4  24   26.68    3.11
   4  -5  24   26.88    2.54
  -5   1  24   27.62    2.63
   8  -4 -24   58.00    4.23
  -4  -4 -24   71.02    4.44
   4   4  24   66.22    4.64
   4  -8  24   62.93    3.41
   4  -8  24   63.96    3.09
  -8   4  24   58.72    4.16
   7  -5 -24   65.26    4.36
  -5  -2 -24   74.76    4.38
   2  -7  24   70.50    3.43
   2  -7  24   63.14    3.15
   5   2  24   61.89    4.50
  -7   5  24   66.85    4.30
   4  -5 -24   37.20    3.38
   1   4 -24   41.63    2.52
   1   4 -24   40.65    2.57
  -5   1 -24   41.00    3.34
   5  -1  24   43.25    3.52
  -1  -4  24   41.65    2.89
  -4   5  24   44.07    3.61
  -1  -4  24   43.73    2.86
   1  -5 -24   85.33    4.76
  -5   4 -24   88.70    4.26
   4   1 -24   85.01    4.20
   5  -4  24   86.61    4.11
  -1   5  24   88.00    4.81
   5  -4  24   78.36    4.31
  -4  -1  24   78.11    4.01
  -4  -1  24   77.20    4.16
  -5   7 -24   48.81    2.60
   7  -2 -24   41.82    3.49
  -2  -5 -24   39.59    3.49
   2   5  24   41.64    3.69
   5  -7  24   44.61    3.07
   5  -7  24   48.31    2.81
  -7   2  24   48.47    3.63
  10  -5 -24   13.35    2.63
  -5  -5 -24   15.65    2.65
   5 -10  24   17.14    1.85
   5   5  24   17.76    3.04
 -10   5  24   13.42    2.51
  -6  -3 -24   33.25    3.42
   9  -6 -24   25.76    3.15
  -9   6  24   33.39    3.44
   6   3  24   26.17    3.32
   3  -9  24   27.37    2.25
   6  -6 -24   22.74    2.90
  -6   0 -24   24.92    2.82
   6   0  24   30.21    3.18
   0  -6  24   38.05    2.41
  -6   6  24   31.08    3.24
   0  -6  24   31.40    2.52
   3   3 -24   47.78    2.94
  -6   3 -24   57.50    3.62
   3  -6 -24   47.56    3.76
  -3   6  24   54.44    4.02
  -3  -3  24   58.45    3.24
  -3  -3  24   56.13    3.44
   6  -3  24   52.78    3.38
   6  -3  24   51.16    3.66
   0  -6 -24   26.52    2.99
   6   0 -24   36.39    3.11
  -6   6 -24   32.67    2.61
   6  -6  24   34.00    2.83
  -6   0  24   28.06    2.77
   6  -6  24   35.86    2.71
  -6   0  24   33.54    2.94
   0   6  24   31.00    3.28
   9  -3 -24   27.98    3.19
  -3  -6 -24   15.33    2.69
  -9   3  24   23.23    2.94
   6  -9  24   21.38    2.26
   3   6  24   21.25    3.02
  -6  -6 -24   19.62    3.08
  12  -6 -24   16.45    2.94
 -12   6  24   18.06    2.87
   6   6  24   22.50    3.43
  -7  -4 -24   18.63    2.98
  11  -7 -24   15.84    2.79
 -11   7  24   15.58    2.70
   7   4  24   10.19    2.72
   8  -7 -24   37.58    3.64
  -7  -1 -24   44.28    3.70
  -8   7  24   41.72    3.64
   7   1  24   47.03    4.15
   1  -8  24   50.83    2.66
   5  -7 -24   40.78    3.70
   2   5 -24   39.98    2.35
   2   5 -24   39.79    2.32
  -7   2 -24   40.38    3.39
  -5   7  24   42.93    3.64
  -2  -5  24   41.77    2.92
   7  -2  24   46.83    3.68
  -2  -5  24   44.69    2.77
  -7   5 -24   41.42    3.18
   5   2 -24   43.28    3.08
   2  -7 -24   47.17    3.82
   7  -5  24   42.37    3.02
   7  -5  24   47.67    3.49
  -5  -2  24   43.19    3.01
  -5  -2  24   50.62    3.30
  -2   7  24   49.15    3.93
   8  -1 -24   30.91    3.13
  -1  -7 -24   29.79    3.27
  -8   1  24   28.17    2.95
   7  -8  24   33.08    2.85
   1   7  24   35.62    3.57
  -4  -7 -24   17.29    2.92
  11  -4 -24   17.55    2.87
   4   7  24   13.76    2.83
 -11   4  24   14.86    2.57
   7 -11  24   18.32    2.08
  10  -8 -24   21.55    3.08
  -8  -2 -24   23.28    2.93
 -10   8  24   18.91    2.89
   8   2  24   22.61    3.30
   7  -8 -24   27.43    3.24
  -8   1 -24   31.26    3.09
  -7   8  24   31.84    3.34
  -1  -7  24   29.23    2.36
   8  -1  24   26.89    3.22
   4  -8 -24   39.80    3.62
  -8   4 -24   42.24    3.35
  -4  -4  24   47.29    3.11
  -4   8  24   45.26    3.83
  -4  -4  24   43.29    2.84
   8  -4  24   43.90    3.56
  -8   7 -24   32.67    2.80
   1  -8 -24   31.00    3.34
   7   1 -24   35.58    3.03
  -7  -1  24   38.79    3.20
  -1   8  24   38.01    3.52
   8  -7  24   36.85    2.88
   8  -7  24   36.45    3.15
  10  -2 -24   18.61    2.79
  -2  -8 -24   22.29    3.10
   2   8  24   24.30    3.22
   8 -10  24   21.35    2.44
 -10   2  24   25.22    2.93
  -9   0 -24   15.16    2.69
   9  -9 -24   12.26    2.65
   0  -9  24   15.33    1.47
  -9   9  24   14.95    2.58
   9   0  24   16.52    2.92
   6  -9 -24   40.00    3.72
  -9   3 -24   43.12    3.63
   9  -3  24   33.92    3.42
  -6   9  24   32.73    3.41
  -3  -6  24   37.59    2.77
   3  -9 -24   37.35    3.67
  -9   6 -24   41.02    3.23
   9  -6  24   37.47    3.31
  -3   9  24   35.49    3.62
  -6  -3  24   41.09    3.23
   0  -9 -24   28.04    3.44
   9   0 -24   30.53    3.10
  -9   0  24   29.07    3.15
   9  -9  24   35.02    3.02
   0   9  24   28.86    3.31
 -10  -1 -24    9.12    2.52
  11 -10 -24   12.31    2.62
 -11  10  24   10.57    2.57
  10   1  24   11.46    2.85
 -10   2 -24   29.27    3.27
   8 -10 -24   25.36    3.26
  -2  -8  24   30.77    2.28
  10  -2  24   20.67    3.18
  -8  10  24   25.88    3.20
 -10   5 -24   36.54    3.35
   5 -10 -24   31.78    3.60
  -5  -5  24   33.89    2.77
  -5  10  24   36.56    3.59
  10  -5  24   31.18    3.37
   2 -10 -24   22.90    3.10
  10  -8  24   21.61    2.80
  -8  -2  24   23.47    2.72
  -2  10  24   17.41    2.75
  -1 -10 -24   13.80    2.81
 -11   1  24   14.19    2.62
  10 -11  24   13.77    2.28
 -11   1 -24   16.69    2.87
  10 -11 -24   22.63    3.28
  11  -1  24   20.40    3.31
 -10  11  24   17.16    2.79
   7 -11 -24   17.01    2.80
 -11   4 -24   19.34    2.78
  11  -4  24   12.93    2.76
  -7  11  24   19.58    2.97
  -4  -7  24   16.20    1.98
   4 -11 -24    6.42    2.30
  -4  11  24    7.80    2.36
  11  -7  24   10.22    2.34
  -7  -4  24    8.11    2.03
   1 -11 -24    5.05    2.39
  11 -10  24    3.31    2.00
 -10  -1  24    4.95    2.05
   6 -12 -24    6.54    2.40
  -6  -6  24   12.90    2.08
  12  -6  24    7.90    2.43
  -1   0 -25   26.11    2.65
   1  -1 -25   27.26    2.75
   0   1 -25   29.32    2.61
   1   0  25   20.31    2.52
   1   0  25   24.69    2.50
   0  -1  25   27.46    2.49
  -1   1  25   28.41    2.76
  -1   1  25   21.74    2.38
   0  -1  25   29.49    2.72
  -2  -1 -25   38.99    3.30
   3  -2 -25   45.56    3.55
  -1   3 -25   52.46    3.05
   2   1  25   47.92    3.72
   1  -3  25   48.13    3.31
   1  -3  25   48.66    3.01
  -3   2  25   42.85    3.39
  -2   2 -25   29.38    2.63
   0  -2 -25   30.33    2.97
   2   0 -25   28.34    2.69
   2  -2  25   22.61    2.50
  -2   0  25   24.94    2.56
   0   2  25   24.44    2.69
  -2   0  25   26.90    2.52
   2  -2  25   24.97    2.41
  -2   5 -25   64.40    3.15
   5  -3 -25   58.10    4.07
  -3  -2 -25   64.24    4.16
   2  -5  25   66.34    3.62
   2  -5  25   63.15    3.33
   3   2  25   61.46    4.32
  -5   3  25   60.16    4.09
  -3   1 -25   37.94    3.08
   2  -3 -25   29.86    2.97
   1   2 -25   38.21    2.94
  -1  -2  25   36.70    2.79
  -2   3  25   32.28    3.08
  -1  -2  25   38.80    3.10
   3  -1  25   32.14    3.06
   3  -1  25   28.93    2.67
   4  -1 -25   36.55    3.10
  -3   4 -25   36.35    2.76
  -1  -3 -25   32.60    3.09
   3  -4  25   29.99    2.53
  -4   1  25   30.51    2.91
   3  -4  25   35.20    2.88
  -4   1  25   26.94    2.61
   1   3  25   34.29    3.34
   7  -4 -25   11.56    2.31
  -4  -3 -25   11.42    2.33
  -3   7 -25    7.94    0.98
   3  -7  25    8.31    1.47
   4   3  25   14.60    2.74
   3  -7  25   13.14    1.87
  -7   4  25    6.25    2.11
  -4   0 -25   31.44    2.90
   4  -4 -25   22.53    2.83
   0   4 -25   25.76    2.17
   0  -4  25   24.05    2.46
   4   0  25   23.92    2.81
  -4   4  25   28.69    3.04
   0  -4  25   31.43    2.44
  -4   3 -25   19.65    2.38
   3   1 -25   22.39    2.41
   1  -4 -25   24.18    2.74
  -3  -1  25   25.00    2.43
   4  -3  25   29.29    2.51
  -1   4  25   31.19    3.18
  -3  -1  25   25.00    2.54
   4  -3  25   21.42    2.52
  -4   6 -25    8.03    1.46
   6  -2 -25    7.44    1.99
  -2  -4 -25   11.38    2.31
   2   4  25    5.35    2.18
  -6   2  25   10.40    2.09
   4  -6  25    5.76    1.70
   4  -6  25    8.12    1.56
  -5  -4 -25   10.53    2.44
   9  -5 -25   10.58    2.39
  -9   5  25   11.84    2.42
   4  -9  25    8.49    1.58
   5   4  25    9.64    2.54
   6  -5 -25   17.71    2.65
  -1   6 -25   26.05    1.72
  -5  -1 -25   27.98    3.02
   1  -6  25   24.65    2.29
   1  -6  25   24.09    2.11
   5   1  25   27.55    3.18
  -6   5  25   24.85    2.98
  -5   2 -25   15.07    2.21
   2   3 -25    9.26    1.64
   3  -5 -25   13.44    2.37
  -3   5  25   15.92    2.50
   5  -2  25    9.14    2.00
  -2  -3  25   11.07    1.81
  -2  -3  25   10.31    1.88
  -5   5 -25   35.96    2.89
   0  -5 -25   36.07    3.35
   5   0 -25   31.17    2.91
   0   5  25   33.31    3.25
   5  -5  25   37.56    2.78
   5  -5  25   42.04    3.19
  -5   0  25   30.01    2.97
  -5   0  25   34.91    2.90
  -3  -5 -25   20.94    2.89
   8  -3 -25   20.25    2.75
   3   5  25   19.42    2.97
  -8   3  25   29.15    3.04
   5  -8  25   24.17    2.30
  11  -6 -25    7.84    2.46
  -6  -5 -25    7.17    2.33
   6   5  25    4.53    2.33
   5 -11  25    9.81    1.52
 -11   6  25    8.09    2.31
   8  -6 -25   24.98    3.18
  -6  -2 -25   18.22    2.75
   6   2  25   24.87    3.28
  -8   6  25   25.66    3.09
   2  -8  25   22.08    1.99
   1   5 -25    7.51    1.22
   5  -6 -25    9.28    2.32
  -6   1 -25    7.35    2.00
   1   5 -25    6.56    1.23
   6  -1  25    6.78    2.04
  -1  -5  25   10.05    1.77
  -5   6  25    9.35    2.24
  -1  -5  25    7.79    1.60
   2  -6 -25   35.44    3.36
   4   2 -25   33.04    2.71
  -6   4 -25   30.33    2.80
   6  -4  25   32.27    2.81
  -4  -2  25   35.75    2.78
  -4  -2  25   39.73    3.18
  -2   6  25   37.39    3.55
   6  -4  25   37.86    3.19
  -1  -6 -25    8.59    2.27
   7  -1 -25    7.73    1.92
   1   6  25    5.94    2.20
   6  -7  25    9.96    1.96
  -7   1  25    4.81    1.90
   6  -7  25    8.62    1.64
  -4  -6 -25   20.17    2.94
  10  -4 -25   18.44    2.84
   6 -10  25   16.64    2.04
 -10   4  25   19.93    2.81
   4   6  25   16.53    2.95
  -7  -3 -25    2.94    2.01
  10  -7 -25    1.48    2.00
 -10   7  25    3.50    2.01
   3 -10  25    2.88    1.15
   7   3  25    2.37    2.31
  -7   0 -25   15.06    2.60
   7  -7 -25   16.79    2.68
  -7   7  25   14.30    2.59
   0  -7  25   18.56    1.93
   7   0  25   16.58    2.70
   3   4 -25   20.28    1.96
   4  -7 -25   19.46    2.86
  -7   3 -25   31.75    3.01
  -3  -4  25   24.60    2.28
  -3  -4  25   27.64    2.50
  -4   7  25   21.10    2.89
   7  -3  25   36.08    3.32
  -7   6 -25   20.34    2.33
   1  -7 -25   19.41    2.83
   6   1 -25   24.44    2.56
   7  -6  25   28.60    2.55
  -6  -1  25   18.53    2.28
  -1   7  25   28.21    3.19
   7  -6  25   26.51    2.76
  -6  -1  25   24.63    2.64
   9  -2 -25   13.20    2.44
  -2  -7 -25   12.21    2.57
   7  -9  25   15.39    2.12
  -9   2  25   15.44    2.58
   2   7  25   17.25    2.90
  -5  -7 -25    2.25    2.09
  12  -5 -25    5.30    2.35
 -12   5  25    6.84    2.31
   5   7  25    6.89    2.67
   7 -12  25    8.29    1.64
  -8  -1 -25   18.20    2.75
   9  -8 -25   14.94    2.70
  -9   8  25   15.17    2.72
   8   1  25   14.03    2.83
   1  -9  25   15.52    1.58
   6  -8 -25   16.04    2.77
  -8   2 -25   17.06    2.60
   8  -2  25   18.32    2.78
  -6   8  25   15.02    2.60
  -2  -6  25   13.01    1.80
   3  -8 -25   26.45    3.17
  -8   5 -25   28.34    2.84
   8  -5  25   23.46    2.87
  -3   8  25   24.52    3.11
  -5  -3  25   25.06    2.66
  -5  -3  25   29.11    2.55
   8   0 -25   11.26    2.19
   0  -8 -25    8.35    2.36
   0   8  25    7.95    2.39
   8  -8  25   11.23    2.09
  -8   0  25   10.65    2.22
  -3  -8 -25    9.43    2.47
  11  -3 -25    9.60    2.47
   3   8  25    4.27    2.37
   8 -11  25    7.00    1.85
 -11   3  25    4.75    2.09
  11  -9 -25    6.50    2.35
  -9  -2 -25    6.76    2.31
 -11   9  25    8.35    2.37
   9   2  25    4.87    2.63
   8  -9 -25   21.06    3.01
  -9   1 -25   14.97    2.68
  -1  -8  25   20.61    1.90
  -8   9  25   18.99    2.88
   9  -1  25   18.81    2.96
   5  -9 -25   12.72    2.52
  -9   4 -25    8.32    2.15
  -5   9  25   14.61    2.61
  -4  -5  25   11.20    1.93
   9  -4  25   14.00    2.54
   2  -9 -25    9.98    2.52
  -7  -2  25   13.20    2.29
   9  -7  25   11.05    2.29
  -2   9  25   11.78    2.51
  -1  -9 -25    8.44    2.40
  10  -1 -25   10.72    2.31
   9 -10  25   11.53    2.22
   1   9  25    9.22    2.60
 -10   1  25   10.82    2.39
 -10   0 -25   10.61    2.62
  10 -10 -25    8.46    2.52
 -10  10  25    7.74    2.32
  10   0  25    7.78    2.61
   7 -10 -25    6.69    2.30
 -10   3 -25    8.26    2.33
  10  -3  25    5.22    2.33
  -7  10  25    4.12    2.19
  -3  -7  25   10.17    1.70
 -10   6 -25    7.64    2.07
   4 -10 -25    9.02    2.42
  -6  -4  25    7.60    1.89
  -4  10  25    9.90    2.44
  10  -6  25    9.77    2.34
   1 -10 -25   16.24    2.89
  10  -9  25    8.80    2.12
  -1  10  25    9.59    2.37
  -9  -1  25    4.45    2.07
   9 -11 -25    1.43    2.06
 -11   2 -25    2.21    2.12
  -9  11  25    3.59    2.16
  -2  -9  25    4.32    1.24
  11  -2  25    4.17    2.32
   6 -11 -25    6.38    2.30
 -11   5 -25    6.24    2.19
  -5  -6  25    9.36    1.88
  11  -5  25    6.27    2.34
  -6  11  25    5.56    2.20
   3 -11 -25    6.90    2.36
  -3  11  25    0.46    1.90
  11  -8  25    3.50    1.98
  -8  -3  25    2.02    1.76
   5 -12 -25    6.28    2.36
  -7  -5  25    8.10    1.98
  12  -7  25    5.59    2.34
   0  -1 -26   10.59    2.07
   1   0 -26    6.88    1.84
  -1   1 -26    7.60    1.85
   1  -1  26    7.92    1.84
   1  -1  26    7.73    1.71
  -1   0  26    7.85    1.96
   0   1  26    7.58    1.99
  -1   0  26    9.72    1.82
  -2   0 -26   11.13    2.15
   2  -2 -26   11.76    2.18
   0   2 -26   11.63    1.97
   2   0  26    9.63    2.11
   0  -2  26   10.98    2.00
   0  -2  26    9.94    1.82
  -2   2  26    8.30    2.08
  -1  -2 -26   11.16    2.18
   3  -1 -26    7.76    1.97
  -2   3 -26    6.49    1.67
   2  -3  26   11.44    2.05
  -3   1  26    7.01    1.94
  -3   1  26    4.92    1.83
   1   2  26    7.12    2.09
   2  -3  26    6.52    1.68
  -1   4 -26    1.54    1.24
   4  -3 -26    1.21    1.74
  -3  -1 -26    2.82    1.81
   1  -4  26    0.45    1.47
  -4   3  26    2.11    1.71
   1  -4  26   -0.19    1.21
   3   1  26    3.06    1.90
  -3   2 -26   35.80    2.95
   1  -3 -26   35.88    3.28
   2   1 -26   32.54    2.86
   3  -2  26   32.87    2.82
   3  -2  26   34.58    3.03
  -2  -1  26   29.61    2.68
  -1   3  26   34.31    3.21
  -2  -1  26   33.06    2.92
  -2  -3 -26   15.21    2.52
   5  -2 -26   14.98    2.44
  -3   5 -26   15.44    1.85
   2   3  26   14.15    2.56
   3  -5  26   11.54    1.82
   3  -5  26   13.04    2.10
  -5   2  26   10.57    2.16
  -2   6 -26   11.85    1.36
   6  -4 -26    9.24    2.24
  -4  -2 -26   14.28    2.48
   2  -6  26   14.20    1.78
   2  -6  26   12.61    1.96
   4   2  26   12.97    2.57
  -6   4  26    5.02    1.98
  -4   1 -26   20.50    2.52
   1   3 -26   16.82    2.01
   3  -4 -26   16.29    2.59
  -3   4  26   17.78    2.57
   4  -1  26   16.78    2.51
  -1  -3  26   17.55    2.31
  -1  -3  26   20.61    2.19
   4   0 -26   19.05    2.36
   0  -4 -26   24.97    2.95
  -4   4 -26   22.91    2.34
  -4   0  26   22.38    2.63
   4  -4  26   20.09    2.42
   0   4  26   24.61    2.93
  -4   0  26   18.33    2.26
   4  -4  26   17.59    2.14
   7  -3 -26    8.67    2.25
  -3  -4 -26    7.13    2.06
   4  -7  26    4.90    1.38
   4  -7  26    5.77    1.68
   3   4  26    5.17    2.26
  -7   3  26    4.53    1.93
  -5  -3 -26    7.04    2.24
   8  -5 -26    4.47    2.13
   5   3  26    4.36    2.29
   3  -8  26    5.99    1.61
  -8   5  26    9.13    2.29
   5  -5 -26    5.88    2.08
  -5   0 -26    4.80    1.92
   0   5 -26    7.52    1.33
   0  -5  26    9.06    1.70
  -5   5  26    6.52    2.07
   5   0  26    9.27    2.25
   0  -5  26    7.26    1.49
   2  -5 -26   13.09    2.35
   3   2 -26   10.94    1.86
  -5   3 -26    8.41    1.99
   5  -3  26   10.67    2.09
  -3  -2  26    8.82    1.74
  -2   5  26    8.23    2.20
  -3  -2  26   13.34    2.16
   5  -3  26   12.38    1.91
  -5   6 -26   12.75    1.84
   6  -1 -26   14.24    2.30
  -1  -5 -26    6.45    2.17
   5  -6  26   10.04    1.78
   1   5  26   17.51    2.72
   5  -6  26   10.73    2.08
  -6   1  26    9.93    2.19
   9  -4 -26    4.86    2.13
  -4  -5 -26    3.44    2.06
   4   5  26    1.90    2.27
  -9   4  26    1.98    1.94
   5  -9  26    4.51    1.67
  -6  -4 -26    1.22    1.99
  10  -6 -26    2.83    2.09
   4 -10  26    2.75    1.30
 -10   6  26    3.14    2.11
   6   4  26    4.78    2.35
   7  -6 -26   12.82    2.53
  -6  -1 -26   12.34    2.43
   6   1  26   13.09    2.68
  -7   6  26   10.63    2.39
   1  -7  26   12.30    1.79
   4  -6 -26    4.28    2.07
   2   4 -26    4.06    1.32
  -6   2 -26    4.97    1.82
   6  -2  26    6.14    2.00
  -4   6  26    5.14    1.95
  -2  -4  26    4.75    1.67
  -2  -4  26    3.79    1.53
   1  -6 -26    4.81    2.03
  -6   5 -26    2.58    1.55
   5   1 -26    3.54    1.71
   6  -5  26    3.74    1.72
   6  -5  26    2.68    1.46
  -1   6  26    1.19    1.93
  -5  -1  26    3.39    1.52
  -5  -1  26    2.02    1.63
   8  -2 -26    0.70    1.71
  -2  -6 -26    4.01    2.03
   2   6  26    0.99    2.05
   6  -8  26    3.76    1.65
  -8   2  26    1.71    1.90
  -5  -6 -26    2.84    2.17
  11  -5 -26   -0.02    1.90
   5   6  26    3.28    2.33
   6 -11  26    3.20    1.46
 -11   5  26    1.74    2.00
   9  -7 -26    1.43    1.98
  -7  -2 -26    0.05    1.97
   7   2  26    1.38    2.15
   2  -9  26    3.25    1.28
  -9   7  26    4.06    2.06
   6  -7 -26    4.07    2.00
  -7   1 -26    5.48    2.12
   7  -1  26    3.09    2.02
  -1  -6  26    1.66    1.37
  -6   7  26    2.29    1.99
  -7   4 -26    6.50    1.85
   3  -7 -26    5.27    2.05
   4   3 -26    6.21    1.56
   7  -4  26    3.30    1.86
  -4  -3  26    6.45    1.85
  -4  -3  26    2.47    1.44
  -3   7  26    2.86    1.98
   7   0 -26    2.13    1.70
   0  -7 -26    3.31    2.08
  -7   0  26    6.90    2.04
   7  -7  26    3.87    1.73
   0   7  26    6.33    2.36
  10  -3 -26    0.88    1.89
  -3  -7 -26    6.47    2.33
   7 -10  26    1.48    1.55
   3   7  26    1.76    2.27
 -10   3  26    2.11    1.94
  -8  -3 -26    2.66    2.16
  11  -8 -26    5.80    2.35
 -11   8  26    2.79    2.11
   8   3  26   -0.37    2.31
   8  -8 -26    2.34    2.09
  -8   0 -26    3.54    2.16
   8   0  26   -1.27    1.90
  -8   8  26    5.29    2.28
   0  -8  26    6.30    1.45
  -8   3 -26    5.22    2.09
   5  -8 -26    1.74    1.96
  -3  -5  26    1.75    1.52
  -5   8  26    4.46    2.13
   8  -3  26    5.53    2.10
   2  -8 -26    3.59    1.99
  -8   6 -26    5.21    1.70
  -6  -2  26    5.74    1.90
   8  -6  26    2.90    1.79
  -2   8  26    4.63    2.11
   9  -1 -26    5.15    2.11
  -1  -8 -26    6.80    2.34
  -9   1  26    9.76    2.34
   8  -9  26    8.70    2.03
   1   8  26    6.50    2.43
  10  -9 -26    1.85    2.11
  -9  -1 -26    2.96    2.14
 -10   9  26    3.88    2.23
   9   1  26    1.26    2.30
   7  -9 -26    5.96    2.25
  -9   2 -26    6.11    2.17
  -2  -7  26    7.30    1.57
   9  -2  26    1.71    2.09
  -7   9  26    7.36    2.30
   4  -9 -26   -0.18    1.90
  -9   5 -26    5.13    1.92
  -5  -4  26    7.79    1.85
   9  -5  26    4.16    2.11
  -4   9  26    6.10    2.14
   1  -9 -26    8.35    2.40
   9  -8  26    8.87    2.18
  -8  -1  26    8.78    2.23
  -1   9  26    7.44    2.52
  11  -2 -26    3.14    1.92
  -2  -9 -26    3.14    2.07
   2   9  26   -1.19    1.99
   9 -11  26    0.27    1.61
 -11   2  26    0.52    1.89
   9 -10 -26    4.82    2.24
 -10   1 -26    0.99    1.99
  10  -1  26    0.36    2.24
  -1  -9  26    1.06    1.14
  -9  10  26    4.27    2.16
 -10   4 -26    7.80    2.24
   6 -10 -26    6.60    2.33
  -4  -6  26   10.39    1.88
  -6  10  26    6.92    2.30
  10  -4  26    7.55    2.40
   3 -10 -26    4.50    2.22
  10  -7  26    4.51    2.06
  -7  -3  26    4.49    1.84
  -3  10  26    3.78    2.15
   0 -10 -26    2.94    2.23
   0  10  26   -1.08    1.95
  10 -10  26   -0.83    1.64
 -10   0  26    0.62    1.78
 -11   3 -26    7.20    2.30
   8 -11 -26   -0.02    1.93
  -8  11  26   -1.54    1.90
  11  -3  26    1.82    2.18
  -3  -8  26    1.95    1.36
   5 -11 -26    3.18    2.16
  11  -6  26    2.98    2.07
  -6  -5  26    4.82    1.80
  -5  11  26    5.55    2.20
   2 -11 -26    2.69    2.17
  11  -9  26    2.63    2.04
  -9  -2  26    2.31    1.90
   0   0 -27   34.62    2.96
   0   0  27   31.64    2.80
   0   0  27   36.24    3.24
  -1   2 -27   11.45    1.95
   2  -1 -27   13.78    2.28
  -1  -1 -27   11.89    2.22
   1  -2  27   13.49    1.96
  -2   1  27    9.90    2.12
   1  -2  27   12.58    2.20
   1   1  27    9.53    2.22
   1  -2 -27    7.77    2.00
  -2   1 -27    8.72    2.01
   1   1 -27    9.88    1.96
   2  -1  27   12.89    2.25
  -1   2  27    9.83    2.15
  -1  -1  27    7.07    1.66
   2  -1  27   12.78    2.04
  -1  -1  27   11.60    2.12
   4  -2 -27    0.55    1.71
  -2  -2 -27    0.15    1.62
  -2   4 -27    3.26    1.39
   2  -4  27   -1.09    1.52
   2   2  27    2.52    1.90
  -4   2  27    0.69    1.71
   2  -4  27   -1.83    1.11
   0   3 -27    7.04    1.70
   3  -3 -27   11.45    2.36
  -3   0 -27    8.79    2.08
   3   0  27    9.62    2.12
   0  -3  27    6.98    1.63
  -3   3  27    4.19    1.93
   0  -3  27    5.24    1.77
   0  -3 -27    4.98    2.02
   3   0 -27   12.16    2.16
  -3   3 -27   10.32    1.92
  -3   0  27   10.06    2.10
   0   3  27    6.28    2.06
   3  -3  27    7.76    1.96
   3  -3  27    8.37    1.77
  -3   0  27    6.36    1.76
   6  -3 -27   13.52    2.48
  -3  -3 -27   12.95    2.49
  -6   3  27   13.05    2.45
   3   3  27   14.10    2.66
   3  -6  27   10.88    1.73
   3  -6  27   18.63    2.20
   5  -4 -27    0.09    1.77
  -4  -1 -27    0.31    1.76
  -1   5 -27   -1.07    1.08
   1  -5  27    1.37    1.52
  -5   4  27   -0.63    1.70
   1  -5  27   -1.24    1.23
   4   1  27    0.08    1.94
   2   2 -27    2.12    1.56
  -4   2 -27    3.05    1.67
   2  -4 -27    2.72    1.88
  -2  -2  27    1.69    1.43
  -2  -2  27    2.60    1.67
  -2   4  27    2.79    1.86
   4  -2  27    1.97    1.79
  -4   5 -27    9.08    1.76
   5  -1 -27    4.71    1.88
  -1  -4 -27    8.41    2.27
  -5   1  27   10.59    2.15
   1   4  27    5.00    2.08
   4  -5  27    6.47    1.89
   4  -5  27    8.66    1.74
  -4  -4 -27    8.18    2.38
   8  -4 -27    7.03    2.28
   4   4  27    7.47    2.49
   4  -8  27    9.20    1.81
  -8   4  27   10.40    2.39
   7  -5 -27    8.34    2.29
  -5  -2 -27    4.12    2.05
   2  -7  27    5.22    1.64
   5   2  27   10.11    2.45
  -7   5  27    3.87    2.13
   1   4 -27    6.17    1.44
  -5   1 -27    6.27    2.01
   4  -5 -27    9.26    2.28
  -1  -4  27    7.53    1.63
  -4   5  27   10.91    2.36
  -1  -4  27   10.99    1.94
   5  -1  27   10.26    2.35
   4   1 -27    7.42    1.85
  -5   4 -27    9.33    1.96
   1  -5 -27   11.21    2.35
  -4  -1  27    8.15    1.80
  -1   5  27   10.13    2.37
   5  -4  27   10.57    2.16
  -4  -1  27   10.64    2.04
   5  -4  27    8.92    1.76
  -2  -5 -27   10.97    2.47
   7  -2 -27   16.00    2.53
  -7   2  27   10.51    2.27
   5  -7  27   13.06    2.09
   2   5  27   14.79    2.72
  -5  -5 -27   -2.37    1.89
  10  -5 -27    1.43    2.11
   5 -10  27    1.12    1.48
   5   5  27    1.28    2.23
 -10   5  27    3.19    2.15
  -6  -3 -27    9.65    2.46
   9  -6 -27    3.70    2.12
  -9   6  27    2.30    2.07
   3  -9  27    2.45    1.44
   6   3  27    2.13    2.20
   6  -6 -27    9.88    2.28
  -6   0 -27    2.16    1.92
  -6   6  27    2.12    1.97
   6   0  27    8.05    2.25
   0  -6  27    6.06    1.60
   3  -6 -27   10.11    2.28
  -6   3 -27    5.12    1.92
   3   3 -27    8.80    1.69
  -3  -3  27    7.41    1.70
   6  -3  27   10.04    2.28
  -3   6  27    6.96    2.26
  -3  -3  27   10.41    2.02
   0  -6 -27    4.38    2.08
   6   0 -27    5.35    1.88
  -6   6 -27    5.23    1.67
   0   6  27    4.23    2.25
  -6   0  27    4.63    2.00
   6  -6  27    5.82    1.88
   6  -6  27    5.72    1.61
  -3  -6 -27    0.26    1.79
   9  -3 -27    0.15    1.80
   3   6  27   -0.31    1.92
  -9   3  27   -0.81    1.81
   6  -9  27    1.35    1.64
  11  -7 -27    2.34    2.19
  -7  -4 -27    7.40    2.42
 -11   7  27    4.51    2.31
   7   4  27    7.65    2.58
  -7  -1 -27    2.61    2.06
   8  -7 -27    1.81    2.12
   7   1  27   -0.17    2.12
  -8   7  27    1.27    1.99
   1  -8  27    0.96    1.38
   5  -7 -27    6.87    2.21
  -7   2 -27    7.73    2.14
   7  -2  27    6.99    2.17
  -2  -5  27    7.84    1.86
  -5   7  27    3.77    2.18
   5   2 -27    2.88    1.55
  -7   5 -27    2.83    1.69
   2  -7 -27    3.50    2.13
  -5  -2  27    2.14    1.54
  -2   7  27    6.08    2.23
   7  -5  27    4.31    1.92
  -5  -2  27    0.16    1.71
  -1  -7 -27    0.00    1.96
   8  -1 -27   -0.36    1.62
  -8   1  27    0.85    1.79
   1   7  27    3.43    2.10
   7  -8  27    4.10    1.83
  11  -4 -27    2.90    2.11
  -4  -7 -27    1.64    2.21
   7 -11  27    0.75    1.47
   4   7  27   -1.17    2.07
 -11   4  27   -1.00    1.84
  10  -8 -27    0.46    2.02
  -8  -2 -27    2.00    2.20
 -10   8  27    2.89    2.24
   8   2  27    5.04    2.44
   2 -10  27    5.52    1.21
  -8   1 -27    3.34    2.09
   7  -8 -27    3.62    2.05
  -7   8  27    5.20    2.14
   8  -1  27    3.39    2.23
  -1  -7  27    6.10    1.55
   4  -8 -27    1.68    1.97
  -8   4 -27    4.53    1.94
  -4   8  27    6.02    2.25
   8  -4  27    4.25    2.10
  -4  -4  27    6.34    1.87
   1  -8 -27    0.62    2.05
  -1   8  27    3.09    2.18
  -7  -1  27    2.85    1.80
   8  -7  27    3.78    1.92
  10  -2 -27    1.89    2.03
  -2  -8 -27    3.69    2.28
   2   8  27    1.14    1.97
   8 -10  27   -1.10    1.68
 -10   2  27    2.95    2.00
  -9   0 -27   -2.46    1.94
   9  -9 -27   -3.11    1.66
   9   0  27    1.74    2.30
  -9   9  27   -0.48    1.94
   0  -9  27    0.86    1.23
  -9   3 -27   -0.51    1.87
   6  -9 -27    2.11    2.00
  -3  -6  27    2.23    1.53
   9  -3  27    0.56    2.04
  -6   9  27   -0.81    1.91
   3  -9 -27    4.08    2.18
  -3   9  27    2.68    2.11
  -6  -3  27    7.61    2.02
   9  -6  27    1.75    1.95
   0  -9 -27   -1.85    1.94
   9  -9  27    1.87    1.79
   0   9  27    4.58    2.32
  -9   0  27   -1.16    1.75
   8 -10 -27    3.84    2.26
 -10   2 -27    6.40    2.26
  -2  -8  27    2.91    1.41
  10  -2  27    3.22    2.25
  -8  10  27    3.40    2.20
   5 -10 -27    2.61    2.07
 -10   5 -27    1.63    1.93
  -5  -5  27    0.81    1.62
  10  -5  27    3.64    2.16
  -5  10  27    2.62    2.17
   2 -10 -27    4.86    2.26
  -8  -2  27    7.49    2.09
  -2  10  27    7.37    2.36
  10  -8  27    4.81    2.17
 -11   4 -27   -1.74    1.86
   7 -11 -27   -0.52    1.93
  11  -4  27    1.31    2.12
  -7  11  27   -0.21    2.00
  -4  -7  27    1.16    1.50
   4 -11 -27    1.38    2.09
  -4  11  27    3.17    2.12
  -7  -4  27    1.32    1.80
  11  -7  27    4.04    2.19
   0   1 -28   73.78    4.09
  -1   0 -28   62.54    4.19
   1  -1 -28   73.38    4.25
  -1   1  28   70.72    4.31
   1   0  28   62.64    4.18
   0  -1  28   74.83    3.90
   0  -1  28   61.74    4.13
  -2  -1 -28   16.40    2.59
  -1   3 -28   17.75    2.22
   3  -2 -28   22.37    2.78
   1  -3  28   19.01    2.18
   2   1  28   16.40    2.55
   1  -3  28   17.61    2.42
  -3   2  28   12.44    2.31
   0  -2 -28   74.57    4.49
   2   0 -28   78.00    4.30
  -2   2 -28   76.42    4.19
  -2   0  28   75.73    4.49
  -2   0  28   72.33    4.33
   2  -2  28   73.17    4.04
   0   2  28   78.55    4.66
   2  -2  28   71.95    4.23
  -3  -2 -28   57.47    4.31
  -2   5 -28   59.22    3.30
   5  -3 -28   59.81    4.32
   2  -5  28   70.78    3.57
   3   2  28   63.77    4.37
   2  -5  28   65.94    3.89
  -5   3  28   61.47    4.35
  -3   1 -28   75.09    4.43
   1   2 -28   66.99    3.92
   2  -3 -28   71.43    4.42
  -1  -2  28   75.88    4.20
  -1  -2  28   73.21    3.86
  -2   3  28   64.67    4.43
   3  -1  28   70.57    4.39
   4  -1 -28   59.46    4.06
  -3   4 -28   66.67    3.68
  -1  -3 -28   67.76    4.43
  -4   1  28   60.89    4.19
   1   3  28   72.07    4.57
   3  -4  28   65.35    3.69
   3  -4  28   63.70    4.00
  -4  -3 -28   59.57    4.40
   7  -4 -28   54.64    4.24
  -7   4  28   46.12    3.99
   4   3  28   50.18    4.40
   3  -7  28   45.88    3.30
   0   4 -28   44.84    3.02
  -4   0 -28   53.30    4.00
   4  -4 -28   52.01    4.09
   4   0  28   49.38    4.05
  -4   4  28   45.32    4.01
   0  -4  28   55.04    3.54
   0  -4  28   58.59    3.37
   1  -4 -28   92.18    5.06
   3   1 -28   87.52    4.54
  -4   3 -28   89.93    4.59
  -3  -1  28   88.11    4.76
   4  -3  28   88.85    4.45
   4  -3  28   83.19    4.69
  -1   4  28   87.21    4.92
  -3  -1  28   93.71    4.50
   6  -2 -28   24.77    2.99
  -2  -4 -28   26.35    3.16
   4  -6  28   22.63    2.47
  -6   2  28   24.93    2.91
   2   4  28   30.04    3.33
   4  -6  28   25.61    2.66
  -5  -4 -28   24.61    3.27
   9  -5 -28   21.68    3.26
   5   4  28   22.01    3.48
   4  -9  28   19.93    2.26
  -9   5  28   18.33    2.87
   6  -5 -28   41.01    3.81
  -5  -1 -28   52.71    4.13
   1  -6  28   52.50    3.37
   5   1  28   47.65    4.05
  -6   5  28   56.09    4.27
  -5   2 -28   58.73    3.89
   3  -5 -28   55.07    4.17
   2   3 -28   50.23    3.24
  -2  -3  28   50.16    3.38
  -2  -3  28   51.31    3.64
  -3   5  28   50.63    4.01
   5  -2  28   58.58    4.07
  -5   5 -28   58.34    3.55
   0  -5 -28   57.27    4.43
   5   0 -28   54.11    3.82
   5  -5  28   58.16    3.51
   0   5  28   61.43    4.54
  -5   0  28   61.14    4.20
   5  -5  28   60.51    3.98
  -3  -5 -28   23.33    3.16
   8  -3 -28   21.41    2.94
  -8   3  28   25.16    3.11
   3   5  28   27.16    3.47
   5  -8  28   25.93    2.66
  11  -6 -28   13.76    2.86
  -6  -5 -28   13.88    2.81
   6   5  28   17.24    3.34
 -11   6  28   10.99    2.63
   5 -11  28   15.54    1.85
  -6  -2 -28   32.30    3.56
   8  -6 -28   34.14    3.70
   6   2  28   36.62    3.87
  -8   6  28   33.99    3.59
   2  -8  28   33.90    2.64
   5  -6 -28   29.39    3.40
  -6   1 -28   27.30    3.08
  -5   6  28   23.32    3.16
  -1  -5  28   28.06    2.67
   6  -1  28   24.23    3.14
  -6   4 -28   34.02    3.00
   4   2 -28   29.39    2.71
   2  -6 -28   29.95    3.33
  -4  -2  28   30.43    2.98
  -4  -2  28   38.47    3.02
  -2   6  28   29.74    3.43
   6  -4  28   33.15    3.23
   7  -1 -28   42.91    3.60
  -1  -6 -28   36.56    3.73
  -7   1  28   40.18    3.56
   6  -7  28   36.65    3.22
   1   6  28   34.91    3.80
  -4  -6 -28   12.36    2.71
  10  -4 -28   15.72    2.87
 -10   4  28   11.61    2.66
   4   6  28   11.82    2.91
   6 -10  28   18.88    2.30
  -7  -3 -28   19.93    2.98
  10  -7 -28   14.33    2.85
   3 -10  28   14.16    1.73
 -10   7  28   10.42    2.64
   7   3  28   13.76    3.08
   7  -7 -28   21.70    3.17
  -7   0 -28   27.82    3.25
   0  -7  28   26.21    2.47
  -7   7  28   26.62    3.35
   7   0  28   24.93    3.37
  -7   3 -28   34.04    3.27
   4  -7 -28   38.46    3.71
   7  -3  28   34.32    3.60
  -4   7  28   34.51    3.58
  -3  -4  28   34.76    2.99
   1  -7 -28   20.13    2.96
   6   1 -28   19.83    2.48
  -1   7  28   18.31    2.95
   7  -6  28   19.03    2.73
  -6  -1  28   19.20    2.66
  -2  -7 -28   12.68    2.78
   9  -2 -28   23.43    2.99
   2   7  28   15.10    2.96
  -9   2  28   20.14    3.03
   7  -9  28   14.34    2.33
   9  -8 -28    8.17    2.43
  -8  -1 -28   11.96    2.71
   1  -9  28   13.39    1.70
  -9   8  28   13.66    2.82
   8   1  28   14.22    2.90
  -8   2 -28   35.85    3.49
   6  -8 -28   38.15    3.90
  -2  -6  28   37.00    2.92
   8  -2  28   32.74    3.70
  -6   8  28   33.99    3.64
  -8   5 -28   18.88    2.58
   3  -8 -28   20.79    3.07
  -5  -3  28   19.66    2.56
  -3   8  28   24.28    3.21
   8  -5  28   23.06    3.01
   0  -8 -28   19.63    3.08
   8  -8  28   21.15    2.77
  -8   0  28   20.03    2.80
   0   8  28   29.09    3.46
  -9   1 -28   18.65    2.92
   8  -9 -28   21.29    3.30
   9  -1  28   22.84    3.36
  -1  -8  28   17.01    2.01
  -8   9  28   16.88    2.94
   5  -9 -28   16.78    2.97
  -9   4 -28   27.12    3.19
  -4  -5  28   27.54    2.69
  -5   9  28   21.80    3.21
   9  -4  28   18.46    2.94
   2  -9 -28   20.83    3.10
  -2   9  28   26.16    3.32
   9  -7  28   25.13    3.09
  -7  -2  28   30.86    3.13
  -1  -9 -28   16.20    2.92
 -10   1  28   19.93    2.99
   9 -10  28   24.67    2.89
   1   9  28   19.61    3.17
   7 -10 -28   19.83    3.07
 -10   3 -28   27.41    3.29
  -7  10  28   19.52    3.13
  -3  -7  28   29.85    2.62
  10  -3  28   22.50    3.28
   4 -10 -28   21.39    3.15
  -4  10  28   17.92    3.04
  -6  -4  28   17.70    2.51
  10  -6  28   26.56    3.30
   1 -10 -28   20.52    3.15
  -9  -1  28   23.74    3.09
  10  -9  28   17.57    2.79
  -1  10  28   19.39    3.16
   6 -11 -28   18.06    3.11
  11  -5  28   27.22    3.50
  -5  -6  28   21.05    2.49
  -6  11  28   17.93    3.00
   0  -1 -29    1.13    1.75
   1   0 -29    3.12    1.75
  -1   1 -29    2.70    1.68
  -1   0  29    1.65    1.81
   1  -1  29    1.37    1.74
   0   1  29    2.88    1.92
  -2   0 -29    2.61    1.86
   2  -2 -29   -0.49    1.65
   0   2 -29    0.57    1.54
   0  -2  29    3.42    1.51
  -2   2  29    2.72    1.82
   2   0  29    1.33    1.79
   0  -2  29    0.18    1.63
  -2   3 -29    4.26    1.56
   3  -1 -29    1.38    1.79
  -1  -2 -29    0.76    1.88
   2  -3  29    3.63    1.82
   1   2  29    0.68    1.81
  -3   1  29    1.18    1.76
   2  -3  29    2.29    1.49
   4  -3 -29   -0.43    1.78
  -3  -1 -29   -0.44    1.70
  -1   4 -29   -1.91    1.32
   3   1  29    1.31    1.90
  -4   3  29   -2.89    1.65
   1  -4  29   -0.53    1.50
   1  -4  29   -0.64    1.34
   1  -3 -29    1.04    1.84
  -3   2 -29    2.05    1.62
   2   1 -29   -1.25    1.47
  -2  -1  29   -0.53    1.67
  -1   3  29    3.13    1.96
   3  -2  29    2.70    1.85
  -2  -1  29   -0.29    1.39
   5  -2 -29    0.71    1.87
  -2  -3 -29   -0.33    1.82
   3  -5  29    0.68    1.64
   3  -5  29   -0.02    1.38
  -5   2  29   -0.08    1.74
   2   3  29    6.66    2.17
  -4  -2 -29   -1.36    1.79
   6  -4 -29    0.70    1.91
   2  -6  29   -0.03    1.55
  -6   4  29   -1.18    1.91
   4   2  29    0.60    2.06
  -4   1 -29    0.79    1.66
   3  -4 -29    0.05    1.79
   1   3 -29   -0.31    1.41
   4  -1  29   -2.18    1.77
  -1  -3  29    3.41    1.69
  -3   4  29   -0.72    1.78
  -1  -3  29   -0.25    1.35
  -4   4 -29    0.55    1.55
   4   0 -29    0.47    1.66
   0  -4 -29    2.19    1.95
   4  -4  29   -2.82    1.55
  -4   0  29    1.08    1.82
   4  -4  29   -1.00    1.26
   0   4  29    1.85    1.96
  -3  -4 -29   -2.10    1.86
   7  -3 -29   -1.32    1.87
   4  -7  29    1.79    1.67
  -7   3  29    1.77    1.97
   3   4  29   -0.19    2.09
   8  -5 -29    0.21    1.95
  -5  -3 -29   -2.55    1.88
   5   3  29   -0.62    2.17
   3  -8  29    0.56    1.44
  -8   5  29   -1.59    1.91
   5  -5 -29   -0.47    1.85
  -5   0 -29    2.92    1.93
   5   0  29    0.41    1.89
  -5   5  29    2.13    2.00
   0  -5  29   -0.35    1.46
  -5   3 -29   -2.57    1.51
   2  -5 -29    0.61    1.90
   3   2 -29    0.00    1.46
   5  -3  29    1.27    1.83
  -3  -2  29    0.72    1.44
  -2   5  29   -1.31    1.82
  -3  -2  29   -2.70    1.49
   6  -1 -29    2.75    1.84
  -1  -5 -29    4.36    2.11
   5  -6  29    2.68    1.86
   1   5  29    4.34    2.21
  -6   1  29    6.36    2.18
  -4  -5 -29    2.97    2.04
   9  -4 -29   -2.34    1.81
   4   5  29    0.14    2.22
  -9   4  29    1.85    2.11
   5  -9  29    0.65    1.54
  10  -6 -29   -1.13    2.03
  -6  -4 -29   -2.24    2.04
   6   4  29    3.18    2.51
   4 -10  29    2.05    1.38
 -10   6  29   -0.57    2.09
   7  -6 -29    0.65    1.92
  -6  -1 -29   -0.53    1.95
  -7   6  29   -0.03    1.97
   1  -7  29    1.76    1.55
   6   1  29   -0.49    2.05
   4  -6 -29    0.65    1.98
  -6   2 -29    1.35    1.87
  -2  -4  29   -1.03    1.60
  -4   6  29   -3.91    1.80
   6  -2  29   -0.37    1.91
   5   1 -29    0.12    1.58
  -6   5 -29   -0.22    1.56
   1  -6 -29    0.05    1.84
   6  -5  29   -0.02    1.77
  -1   6  29   -2.11    1.86
  -5  -1  29    1.94    1.82
  -2  -6 -29   -1.42    1.88
   8  -2 -29   -1.28    1.83
   6  -8  29    0.04    1.66
  -8   2  29    0.92    1.92
   2   6  29    1.87    2.18
   9  -7 -29   -0.62    2.02
  -7  -2 -29    0.74    2.11
   7   2  29    2.13    2.21
  -9   7  29    0.26    2.02
   2  -9  29   -0.33    1.24
  -7   1 -29   -1.77    1.75
   6  -7 -29    0.36    1.95
  -6   7  29   -0.27    1.95
  -1  -6  29    2.19    1.65
   7  -1  29   -1.92    1.96
   3  -7 -29    1.00    1.93
  -7   4 -29   -0.46    1.62
  -3   7  29    0.87    2.08
  -4  -3  29    2.19    1.80
   7  -4  29   -0.32    1.85
   0  -7 -29    0.78    2.04
   7   0 -29    3.45    1.87
   7  -7  29    0.08    1.76
   0   7  29    1.49    1.96
  -7   0  29   -1.06    1.85
  -3  -7 -29   -1.64    1.96
  10  -3 -29   -2.71    1.83
 -10   3  29   -0.15    2.04
   7 -10  29    3.60    1.86
   3   7  29    2.28    2.33
   8  -8 -29   -2.29    1.98
  -8   0 -29    0.10    2.07
   8   0  29   -1.47    2.06
  -8   8  29   -1.86    1.93
   0  -8  29   -0.85    1.36
  -8   3 -29   -1.30    1.66
   5  -8 -29   -1.51    1.90
  -5   8  29   -0.92    1.99
  -3  -5  29    0.86    1.64
   8  -3  29   -0.65    2.00
   2  -8 -29   -1.09    1.85
   8  -6  29   -3.02    1.83
  -2   8  29   -0.86    2.01
  -6  -2  29   -2.75    1.63
  -1  -8 -29   -0.31    2.01
   1   8  29    0.00    2.09
   8  -9  29   -0.63    1.73
  -9   1  29    3.28    2.20
  -9   2 -29   -1.69    2.00
   7  -9 -29   -1.92    1.89
   9  -2  29   -0.79    2.04
  -2  -7  29   -1.00    1.44
  -7   9  29   -0.84    2.04
   4  -9 -29    3.01    2.03
  -5  -4  29   -0.79    1.57
  -4   9  29    2.54    2.02
   9  -5  29   -1.61    1.88
   1  -9 -29    1.40    2.07
  -1   9  29    2.87    2.22
   9  -8  29    0.25    1.93
  -8  -1  29    1.32    1.99
   6 -10 -29    0.20    2.01
 -10   4 -29   -0.92    1.88
  10  -4  29   -0.88    2.00
  -4  -6  29    0.60    1.53
  -6  10  29   -0.23    1.94
   3 -10 -29   -0.87    1.94
  10  -7  29   -2.64    1.89
  -3  10  29    1.96    2.14
  -7  -3  29    2.24    1.92
   0   0 -30   -0.47    1.59
   0   0  30    0.61    1.74
  -1   2 -30    0.67    1.53
   2  -1 -30    0.56    1.78
  -1  -1 -30    0.87    1.77
   1   1  30    0.07    1.76
  -2   1  30    0.22    1.72
   1  -2  30   -0.66    1.59
   1  -2  30    0.22    1.44
   1  -2 -30    7.08    2.04
  -2   1 -30    5.54    2.00
   1   1 -30    6.93    2.00
  -1   2  30    4.54    2.02
   2  -1  30    4.74    2.05
  -1  -1  30    5.08    1.93
   4  -2 -30    2.03    1.83
  -2  -2 -30    3.29    2.05
  -2   4 -30    5.25    1.64
   2   2  30    3.13    2.05
   2  -4  30    0.35    1.46
   2  -4  30    4.11    1.87
  -4   2  30    2.55    1.92
  -3   0 -30   -0.99    1.71
   0   3 -30   -0.32    1.51
   3  -3 -30    0.13    1.73
   0  -3  30    0.22    1.37
  -3   3  30    0.06    1.83
   0  -3  30    3.03    1.77
   3   0  30   -0.15    1.85
   3   0 -30    0.69    1.71
  -3   3 -30    2.30    1.69
   0  -3 -30    5.01    2.07
   3  -3  30    2.25    1.86
   3  -3  30    3.35    1.66
   0   3  30    4.42    2.12
  -3   0  30    3.71    1.92
   6  -3 -30    2.78    2.04
  -3  -3 -30    4.10    2.14
   3  -6  30    1.87    1.73
   3   3  30    1.44    2.10
  -6   3  30    1.20    1.97
   5  -4 -30    2.82    2.06
  -4  -1 -30    2.49    2.05
  -5   4  30    1.81    2.08
   4   1  30    3.15    2.17
   1  -5  30    0.28    1.58
   2   2 -30    5.87    1.80
  -4   2 -30    9.33    2.16
   2  -4 -30    5.64    2.09
  -2  -2  30    5.90    1.90
  -2   4  30    3.77    2.09
  -2  -2  30    4.80    1.66
   4  -2  30    5.46    1.98
   5  -1 -30    2.82    1.93
  -1  -4 -30    0.52    1.93
   1   4  30    0.42    1.99
   4  -5  30    2.22    1.83
  -5   1  30   -0.53    1.73
   8  -4 -30   -1.12    1.83
  -4  -4 -30    3.61    2.35
   4   4  30    2.22    2.38
  -8   4  30    3.50    2.13
   4  -8  30    0.96    1.65
   7  -5 -30    5.00    2.19
  -5  -2 -30    3.29    2.19
   2  -7  30    6.01    1.77
  -7   5  30   -0.34    2.01
   5   2  30    4.63    2.31
   4  -5 -30    4.79    2.10
  -5   1 -30    8.41    2.28
  -4   5  30    3.70    2.13
   5  -1  30    5.72    2.20
  -1  -4  30    5.05    1.81
  -5   4 -30    1.32    1.65
   4   1 -30    3.21    1.80
   1  -5 -30    1.92    2.05
  -4  -1  30    2.87    1.89
  -1   5  30    4.29    2.19
   5  -4  30    5.01    2.05
   7  -2 -30    2.21    1.99
  -2  -5 -30    2.32    2.23
   5  -7  30    2.48    1.84
  -7   2  30   -2.23    1.79
   2   5  30    2.52    2.13
  10  -5 -30    0.75    2.03
  -5  -5 -30    1.71    2.26
 -10   5  30   -2.23    1.90
   5 -10  30   -2.26    1.46
   5   5  30    2.72    2.34
   9  -6 -30    3.55    2.36
  -6  -3 -30    2.19    2.11
  -9   6  30    1.36    2.14
   6   3  30    2.31    2.39
   3  -9  30    1.35    1.42
   6  -6 -30    2.89    2.10
  -6   0 -30    0.83    1.98
   6   0  30    5.77    2.35
   0  -6  30    1.11    1.64
  -6   6  30    2.95    2.10
  -6   3 -30    6.37    2.05
   3  -6 -30   -1.16    1.81
  -3   6  30    1.02    1.94
   6  -3  30    1.63    1.96
  -3  -3  30    0.40    1.75
   6   0 -30   -0.04    1.80
   0  -6 -30   -0.13    1.93
   6  -6  30    1.64    1.92
  -6   0  30    2.71    1.90
   0   6  30    2.13    2.04
  -3  -6 -30    1.31    2.27
   9  -3 -30   -1.31    1.79
  -9   3  30    1.68    2.13
   6  -9  30    1.70    1.74
   3   6  30    2.95    2.40
   8  -7 -30    0.71    2.09
  -7  -1 -30    0.91    2.09
   7   1  30   -1.00    2.21
  -8   7  30   -0.35    2.12
   1  -8  30    0.38    1.47
   5  -7 -30    4.43    2.19
  -7   2 -30    6.71    2.25
  -2  -5  30    3.64    1.77
  -5   7  30    3.39    2.22
   7  -2  30    4.90    2.23
   2  -7 -30   -2.50    1.76
  -5  -2  30   -1.83    1.76
  -2   7  30    2.53    2.09
   7  -5  30   -0.46    1.99
   8  -1 -30    3.44    2.04
  -1  -7 -30    6.08    2.36
   1   7  30    2.15    2.28
   7  -8  30   -1.48    1.72
  -8   1  30    5.51    2.25
   7  -8 -30    0.59    2.07
  -8   1 -30    0.08    2.06
  -1  -7  30   -0.59    1.47
   8  -1  30   -1.45    2.18
  -7   8  30    2.22    2.23
   4  -8 -30   -0.32    1.96
  -8   4 -30   -3.74    1.68
   8  -4  30   -0.06    2.13
  -4  -4  30    0.89    1.71
  -4   8  30    1.15    2.03
   1  -8 -30   -1.42    1.85
   8  -7  30   -0.30    1.90
  -1   8  30    1.95    2.18
  -7  -1  30    1.56    2.10
  -9   3 -30    5.75    2.25
   6  -9 -30    0.95    2.03
  -6   9  30    1.78    2.18
  -3  -6  30   -0.57    1.53
   9  -3  30    3.84    2.28
   3  -9 -30    1.38    2.04
  -6  -3  30   -2.31    1.64
  -3   9  30   -0.59    1.97
   9  -6  30    3.04    2.15
   5 -10 -30   -1.76    1.98
  10  -5  30   -0.75    2.10
  -5  10  30    3.61    2.27
  -5  -5  30    4.61    1.92
   0   1 -31   57.16    3.74
   1  -1 -31   51.81    3.84
  -1   0 -31   54.45    3.93
   0  -1  31   45.00    3.74
  -1   1  31   53.20    4.03
   1   0  31   42.63    3.78
  -1   3 -31   28.51    2.75
  -2  -1 -31   27.46    3.11
   3  -2 -31   27.02    3.11
   1  -3  31   21.45    2.49
   2   1  31   22.29    3.00
  -3   2  31   26.27    3.20
   1  -3  31   23.27    2.72
  -2   2 -31   32.53    3.06
   2   0 -31   34.03    3.20
   0  -2 -31   30.55    3.24
   2  -2  31   33.66    3.30
  -2   0  31   26.11    2.99
   0   2  31   34.70    3.54
  -3  -2 -31   26.40    3.31
   5  -3 -31   24.00    3.11
  -5   3  31   26.49    3.22
   3   2  31   24.86    3.34
   2  -5  31   31.43    2.99
   2  -3 -31   16.30    2.70
  -3   1 -31   14.76    2.46
   1   2 -31   13.77    2.24
  -1  -2  31   12.93    2.12
   3  -1  31   15.39    2.65
  -1  -2  31   15.63    2.46
  -2   3  31   15.29    2.63
   4  -1 -31   30.27    3.20
  -3   4 -31   43.29    3.19
  -1  -3 -31   44.10    3.89
   3  -4  31   37.18    3.29
   1   3  31   34.08    3.56
  -4   1  31   35.09    3.49
   3  -4  31   31.04    2.90
   7  -4 -31   15.55    2.82
  -4  -3 -31   17.26    2.93
   3  -7  31   16.08    2.30
   4   3  31   17.87    3.13
  -7   4  31   12.99    2.74
   4  -4 -31   37.88    3.65
  -4   0 -31   35.74    3.50
  -4   4  31   33.87    3.54
   4   0  31   40.98    3.88
   0  -4  31   33.17    3.06
  -4   3 -31   24.65    2.73
   1  -4 -31   22.39    2.96
   3   1 -31   21.72    2.61
  -3  -1  31   21.37    2.79
   4  -3  31   20.23    2.91
  -1   4  31   23.31    3.05
   6  -2 -31   25.73    3.20
  -2  -4 -31   26.02    3.40
   4  -6  31   25.24    2.80
  -6   2  31   18.90    2.88
   2   4  31   23.21    3.14
   9  -5 -31   12.57    2.83
  -5  -4 -31   11.52    2.76
  -9   5  31   11.27    2.68
   5   4  31   13.10    3.15
   4  -9  31   17.26    2.22
   6  -5 -31   16.13    2.79
  -5  -1 -31   18.29    2.86
   1  -6  31   17.36    2.39
   5   1  31   17.19    3.02
  -6   5  31   19.31    3.03
   3  -5 -31   32.32    3.51
  -5   2 -31   33.91    3.38
  -3   5  31   35.27    3.65
   5  -2  31   31.14    3.48
  -2  -3  31   35.00    3.27
   0  -5 -31   35.01    3.68
   5   0 -31   24.80    2.96
  -5   0  31   26.87    3.17
   5  -5  31   29.55    3.17
   0   5  31   26.88    3.39
   8  -3 -31   13.12    2.73
  -3  -5 -31   11.96    2.68
  -8   3  31   10.21    2.61
   5  -8  31   15.27    2.30
   3   5  31   11.54    2.95
  -6  -2 -31   10.11    2.74
   8  -6 -31   10.27    2.63
   2  -8  31   12.42    2.02
  -8   6  31    5.96    2.38
   6   2  31    8.34    2.82
   5  -6 -31   24.56    3.28
  -6   1 -31   28.84    3.32
  -1  -5  31   26.21    2.79
   6  -1  31   28.39    3.41
  -5   6  31   25.84    3.34
   2  -6 -31   13.59    2.73
  -6   4 -31   23.10    2.83
   6  -4  31   22.77    2.94
  -2   6  31   23.93    3.33
  -4  -2  31   18.42    2.70
  -1  -6 -31   27.71    3.57
   7  -1 -31   30.89    3.32
   1   6  31   28.54    3.63
  -7   1  31   26.73    3.26
   6  -7  31   26.39    2.97
  -7   0 -31   16.94    2.96
   7  -7 -31   24.11    3.35
  -7   7  31   18.05    3.11
   0  -7  31   21.02    2.44
   7   0  31   19.54    3.24
   4  -7 -31   19.30    3.05
  -7   3 -31   26.74    3.16
   7  -3  31   17.46    3.03
  -3  -4  31   20.07    2.64
  -4   7  31   17.33    3.03
   1  -7 -31   17.77    2.99
   7  -6  31   18.72    2.89
  -6  -1  31   20.72    2.92
  -1   7  31   22.10    3.36
  -2  -7 -31    8.91    2.67
   2   7  31   10.91    2.95
  -9   2  31    8.45    2.49
   7  -9  31   10.89    2.29
  -8   2 -31   15.88    2.85
   6  -8 -31   17.87    3.16
  -6   8  31   16.87    3.14
   8  -2  31   17.72    3.21
  -2  -6  31   21.25    2.54
   3  -8 -31   11.39    2.57
  -5  -3  31   13.29    2.43
   8  -5  31   11.94    2.57
  -3   8  31   14.76    2.89
   0  -8 -31    2.41    2.21
  -8   0  31    5.54    2.26
   8  -8  31    3.88    2.14
   0   8  31    1.13    2.24
   5  -9 -31    9.10    2.63
  -4  -5  31    9.35    2.17
  -5   9  31    7.61    2.67
   9  -4  31    4.38    2.45
   2  -9 -31    8.81    2.63
   9  -7  31   13.55    2.76
  -2   9  31   14.70    2.81
  -7  -2  31    7.73    2.37
  -1   1 -32   14.62    2.37
   1   0 -32   17.35    2.68
   0  -1 -32   15.86    2.61
   0   1  32   17.85    2.75
   1  -1  32   13.44    2.47
  -1   0  32   18.25    2.70
   0   2 -32    5.98    1.97
   2  -2 -32    6.66    2.25
  -2   0 -32    7.16    2.17
   0  -2  32   10.28    2.29
   2   0  32   10.27    2.31
  -2   2  32   10.58    2.36
  -1  -2 -32    8.89    2.41
   3  -1 -32   15.06    2.50
  -2   3 -32   15.73    2.31
   1   2  32   14.99    2.73
   2  -3  32   13.69    2.42
  -3   1  32   16.26    2.67
  -3  -1 -32    0.12    1.90
   4  -3 -32    0.00    1.89
   1  -4  32    3.91    1.87
  -4   3  32    2.00    1.96
   3   1  32    3.05    2.20
   1  -3 -32    4.36    2.10
  -3   2 -32    5.30    2.03
   2   1 -32    5.73    1.99
   3  -2  32    5.84    2.13
  -1   3  32   10.68    2.53
  -2  -1  32    7.74    2.20
   5  -2 -32   11.71    2.53
  -2  -3 -32   10.44    2.51
   2   3  32   11.42    2.65
  -5   2  32    8.00    2.28
   3  -5  32    8.28    2.18
   6  -4 -32    8.21    2.38
  -4  -2 -32    7.78    2.44
  -6   4  32    4.69    2.29
   4   2  32    7.42    2.56
   2  -6  32    8.28    1.98
   3  -4 -32   10.54    2.52
  -4   1 -32   11.45    2.40
  -3   4  32   11.34    2.49
  -1  -3  32   14.76    2.43
   4  -1  32    8.76    2.48
   0  -4 -32    8.00    2.37
   4   0 -32   11.28    2.33
   0   4  32    9.27    2.61
   4  -4  32   10.63    2.40
  -4   0  32   12.66    2.55
   7  -3 -32    9.54    2.46
  -3  -4 -32    9.15    2.57
  -7   3  32   10.52    2.55
   4  -7  32   12.35    2.27
   3   4  32   12.90    2.88
  -5  -3 -32    5.00    2.57
   8  -5 -32    7.48    2.46
  -8   5  32    1.83    2.27
   5   3  32    7.43    2.65
   3  -8  32    5.03    1.74
   5  -5 -32   10.19    2.46
  -5   0 -32    6.89    2.33
   5   0  32    7.13    2.48
  -5   5  32    6.45    2.39
   0  -5  32   12.93    2.28
  -5   3 -32    3.99    2.07
   2  -5 -32    9.52    2.47
  -2   5  32    5.43    2.36
   5  -3  32    7.06    2.41
  -3  -2  32   10.24    2.41
  -1  -5 -32    7.01    2.46
   6  -1 -32    9.77    2.38
   5  -6  32    8.91    2.27
  -6   1  32    4.04    2.23
   1   5  32    7.09    2.54
  -4  -5 -32    0.37    2.21
   9  -4 -32    5.91    2.39
   4   5  32    5.54    2.55
  -9   4  32    1.76    2.19
   5  -9  32    3.00    1.78
   7  -6 -32    7.20    2.37
  -6  -1 -32    1.57    2.28
   1  -7  32    6.83    1.91
  -7   6  32    5.69    2.49
   6   1  32    1.02    2.39
   4  -6 -32   20.19    2.93
  -6   2 -32   12.03    2.56
  -2  -4  32   20.58    2.68
  -4   6  32   15.49    2.89
   6  -2  32   11.17    2.57
   1  -6 -32    7.46    2.42
   6  -5  32    3.42    2.30
  -5  -1  32    5.96    2.22
  -1   6  32    3.75    2.39
   8  -2 -32    6.42    2.37
  -2  -6 -32    3.98    2.39
   6  -8  32    1.60    1.94
  -8   2  32    1.02    2.08
   2   6  32    5.39    2.55
  -7   1 -32    5.76    2.49
   6  -7 -32    9.13    2.50
  -6   7  32    4.44    2.30
  -1  -6  32    6.08    1.93
   7  -1  32    2.72    2.24
   3  -7 -32    1.55    2.07
  -4  -3  32    3.68    2.01
  -3   7  32    4.39    2.38
   7  -4  32    1.45    2.14
   0  -7 -32    4.69    2.40
   0   7  32    7.76    2.57
   7  -7  32    5.76    2.17
  -7   0  32    6.81    2.38
  -8   3 -32    3.34    2.19
   5  -8 -32    3.05    2.18
  -5   8  32    8.13    2.67
   8  -3  32    7.75    2.50
  -3  -5  32    3.25    1.87
   2  -8 -32    3.90    2.41
  -6  -2  32    8.28    2.26
  -2   8  32    4.20    2.40
   8  -6  32    3.59    2.17
   4  -9 -32    4.43    2.47
  -4   9  32    3.42    2.36
  -5  -4  32    4.65    2.04
   9  -5  32    8.10    2.62
   0   0 -33   15.52    2.55
   0   0  33   13.92    2.52
  -1  -1 -33    5.67    2.17
  -1   2 -33    7.29    1.94
   2  -1 -33    7.12    2.15
   1   1  33    5.73    2.24
  -2   1  33    6.09    2.21
   1  -2  33    8.91    2.22
   1  -2 -33    1.73    1.92
   1   1 -33    6.73    2.05
  -2   1 -33    7.42    2.12
  -1   2  33    3.99    2.18
  -1  -1  33    1.69    1.86
   2  -1  33    0.14    1.88
  -2  -2 -33    7.73    2.44
   4  -2 -33    3.99    2.09
   2  -4  33   11.45    2.36
   2   2  33    7.16    2.45
  -4   2  33    6.59    2.31
  -3   0 -33    8.34    2.43
   3  -3 -33    4.83    2.21
   3   0  33    9.61    2.50
  -3   3  33    9.87    2.54
   0  -3  33   12.98    2.42
   3   0 -33    1.06    1.72
  -3   3 -33    4.51    1.89
   0  -3 -33    5.16    2.12
   0   3  33    0.11    1.92
   3  -3  33    5.07    2.05
  -3   0  33    4.80    2.16
  -3  -3 -33    5.73    2.43
   6  -3 -33    0.03    1.95
   3   3  33    3.91    2.41
   3  -6  33    5.16    1.93
  -6   3  33    1.70    2.11
  -4  -1 -33    6.19    2.24
   5  -4 -33    2.85    2.08
  -5   4  33    3.93    2.29
   4   1  33    3.00    2.30
   1  -5  33    4.31    1.99
  -4   2 -33   -0.92    1.74
   2  -4 -33    2.64    2.05
  -2  -2  33   -2.37    1.73
  -2   4  33   -0.31    1.91
   4  -2  33   -0.18    1.99
  -1  -4 -33    5.00    2.21
   5  -1 -33    4.82    2.14
  -5   1  33    3.59    2.15
   1   4  33    2.61    2.23
   4  -5  33    5.07    2.01
  -4  -4 -33    5.53    2.44
   8  -4 -33    3.22    2.21
   4  -8  33    2.37    1.81
  -8   4  33    3.07    2.30
   4   4  33    1.46    2.35
   7  -5 -33   -1.85    2.00
  -5  -2 -33    2.83    2.23
  -7   5  33    0.27    2.13
   5   2  33    5.11    2.48
   2  -7  33    0.48    1.66
  -5   1 -33    8.42    2.42
   4  -5 -33   14.07    2.71
  -4   5  33    8.62    2.55
  -1  -4  33   12.96    2.46
   5  -1  33   14.13    2.85
   1  -5 -33    5.94    2.41
  -1   5  33    0.05    2.18
   5  -4  33    0.78    2.05
  -4  -1  33    3.85    2.11
  -2  -5 -33    5.88    2.53
   7  -2 -33    7.12    2.35
  -7   2  33    5.48    2.41
   5  -7  33    4.69    2.04
   2   5  33    6.76    2.69
   6  -6 -33    3.62    2.16
  -6   0 -33    5.01    2.43
  -6   6  33    1.80    2.24
   0  -6  33    2.49    1.78
   6   0  33    4.98    2.46
   3  -6 -33    4.36    2.24
  -6   3 -33    4.51    2.08
   6  -3  33    5.89    2.38
  -3   6  33    5.01    2.39
  -3  -3  33    1.75    1.96
   0  -6 -33    2.48    2.13
   6  -6  33    5.86    2.17
   0   6  33    2.54    2.43
  -6   0  33    3.88    2.22
  -7   2 -33    2.68    2.15
   5  -7 -33    4.69    2.39
   7  -2  33    4.51    2.33
  -2  -5  33    6.30    2.02
  -5   7  33    0.39    2.19
   2  -7 -33    4.74    2.28
   7  -5  33    7.62    2.52
  -2   7  33    7.03    2.45
  -5  -2  33    2.71    2.00
   4  -8 -33    3.83    2.30
  -4   8  33    1.84    2.25
  -4  -4  33    1.90    1.93
   8  -4  33    2.44    2.28
   1  -1 -34    1.09    1.93
  -1   0 -34    1.89    1.86
   0   1 -34   -0.14    1.72
   1   0  34   -1.16    1.89
   0  -1  34    2.35    2.02
  -1   1  34    2.90    1.99
   3  -2 -34   13.13    2.63
  -2  -1 -34    9.23    2.41
  -3   2  34   11.12    2.57
   1  -3  34    9.22    2.31
   2   1  34   16.89    2.80
   2   0 -34    8.17    2.19
  -2   2 -34    2.87    1.75
   0  -2 -34    5.71    2.23
   0   2  34    5.17    2.28
  -2   0  34    4.16    2.09
   2  -2  34    5.52    2.14
  -3  -2 -34    3.39    2.36
   5  -3 -34    4.48    2.19
   3   2  34    4.53    2.41
   2  -5  34    3.06    1.86
  -5   3  34    2.85    2.13
   2  -3 -34    1.22    2.00
  -3   1 -34    1.03    1.89
   3  -1  34    0.50    1.99
  -1  -2  34    2.09    1.91
  -2   3  34    2.12    2.03
   4  -1 -34    5.31    2.11
  -1  -3 -34    9.97    2.51
  -4   1  34    2.12    2.08
   3  -4  34    9.19    2.31
   1   3  34    6.52    2.48
  -4  -3 -34    3.48    2.30
   7  -4 -34    3.60    2.23
   3  -7  34    5.59    1.99
   4   3  34    2.07    2.38
  -7   4  34   -1.61    2.10
  -4   0 -34    3.19    2.22
   4  -4 -34    2.56    2.19
  -4   4  34    0.34    2.14
   4   0  34    8.20    2.48
   0  -4  34    3.88    2.05
   1  -4 -34    4.00    2.24
   4  -3  34    4.66    2.28
  -3  -1  34    3.25    2.03
  -1   4  34    3.89    2.28
   6  -2 -34    0.83    2.01
  -2  -4 -34    1.17    2.18
  -6   2  34   -2.01    1.89
   4  -6  34    4.40    2.12
   2   4  34   -0.07    2.08
   6  -5 -34    4.52    2.35
  -5  -1 -34    3.52    2.26
  -6   5  34    2.69    2.23
   5   1  34    5.26    2.39
   1  -6  34    2.54    1.87
   3  -5 -34    3.30    2.21
  -5   2 -34    2.92    2.09
   5  -2  34    3.02    2.35
  -2  -3  34    2.93    1.99
  -3   5  34    1.52    2.29
   0  -5 -34    2.57    2.14
   0   5  34    1.79    2.26
   5  -5  34    2.07    2.09
  -5   0  34    0.43    2.10
   5  -6 -34    1.32    2.15
  -6   1 -34    1.93    2.20
   6  -1  34    5.15    2.45
  -1  -5  34   -0.78    1.72
  -5   6  34    1.10    2.16
   2  -6 -34    4.78    2.26
   6  -4  34    6.18    2.31
  -2   6  34    6.72    2.44
  -4  -2  34    7.41    2.33
  -1  -6 -34    5.47    2.46
   1   6  34   -0.22    2.21
  -7   1  34    2.32    2.19
   6  -7  34    3.65    2.09
   4  -7 -34   -1.36    1.96
  -3  -4  34   -1.71    1.75
  -4   7  34   -1.36    2.25
   7  -3  34    3.09    2.34
   1  -7 -34    4.26    2.39
  -1   7  34    3.53    2.45
   7  -6  34    2.38    2.19
  -6  -1  34    2.97    2.27
   0  -1 -35   22.39    2.88
  -1   1 -35   19.12    2.72
   1   0 -35   19.19    2.74
  -1   0  35   14.01    2.69
   1  -1  35   21.80    3.11
   0   1  35   16.35    2.83
   2  -2 -35   33.90    3.47
  -2   0 -35   25.55    3.16
  -2   2  35   28.56    3.43
   0  -2  35   30.75    3.24
   2   0  35   27.25    3.37
  -1  -2 -35   22.57    3.09
   3  -1 -35   26.68    3.16
   1   2  35   22.75    3.20
  -3   1  35   23.85    3.17
   2  -3  35   25.70    3.10
   4  -3 -35   20.20    2.94
  -3  -1 -35   16.56    2.93
  -4   3  35   17.86    3.02
   1  -4  35   15.80    2.58
   3   1  35   18.59    3.05
   1  -3 -35    7.52    2.29
  -3   2 -35   10.44    2.27
  -1   3  35    8.93    2.60
   3  -2  35   10.27    2.60
  -2  -1  35   14.58    2.65
  -2  -3 -35   20.17    3.12
   5  -2 -35   19.73    3.05
   3  -5  35   18.41    2.81
  -5   2  35   15.94    2.92
   2   3  35   21.94    3.49
   6  -4 -35   14.19    2.91
  -4  -2 -35    8.18    2.67
  -6   4  35    7.50    2.66
   2  -6  35   15.24    2.49
   4   2  35    9.89    2.78
   3  -4 -35   28.21    3.41
  -4   1 -35   27.62    3.27
  -3   4  35   21.93    3.22
  -1  -3  35   21.62    2.90
   4  -1  35   22.14    3.34
   0  -4 -35   15.54    2.85
  -4   0  35   14.10    2.78
   0   4  35   18.90    3.13
   4  -4  35   15.85    2.71
   7  -3 -35   12.16    2.73
  -3  -4 -35   11.32    2.87
   4  -7  35   10.90    2.37
  -7   3  35   15.11    2.86
   3   4  35   15.40    3.12
  -5   0 -35   17.11    2.81
   5  -5 -35   17.22    2.95
   5   0  35   20.03    3.22
   0  -5  35   15.55    2.54
  -5   5  35   14.38    2.85
   2  -5 -35   13.57    2.81
  -2   5  35   15.04    2.98
  -3  -2  35   11.94    2.54
   5  -3  35    7.95    2.47
  -1  -5 -35   15.88    3.05
  -6   1  35   11.00    2.65
   5  -6  35   15.45    2.68
   1   5  35   11.97    2.93
   4  -6 -35   15.13    2.87
  -6   2 -35   19.15    2.92
  -2  -4  35   14.92    2.58
  -4   6  35   12.27    2.86
   6  -2  35   19.81    3.27
   1  -6 -35   13.41    2.89
   6  -5  35   12.93    2.75
  -5  -1  35   15.16    2.84
  -1   6  35   21.02    3.34
   3  -7 -35    9.91    2.75
  -4  -3  35    8.25    2.39
   7  -4  35   13.11    2.86
  -3   7  35   11.14    2.97
   0   0 -36   -0.23    1.73
   0   0  36    1.10    1.98
  -1  -1 -36   -1.34    1.88
   2  -1 -36   -1.62    1.87
  -2   1  36   -0.38    2.02
   1   1  36    4.89    2.29
   1  -2  36    0.78    1.91
  -2   1 -36    0.25    1.72
   1  -2 -36   -0.52    1.80
  -1   2  36    3.02    2.19
   2  -1  36   -0.76    1.96
  -1  -1  36    0.80    1.98
  -2  -2 -36   -1.05    2.02
   4  -2 -36    1.94    2.08
   2   2  36    1.86    2.26
  -4   2  36    2.34    2.21
   2  -4  36    0.39    1.89
  -3   0 -36   -0.51    2.00
   3  -3 -36    4.60    2.26
   3   0  36    1.01    2.16
  -3   3  36    3.78    2.32
   0  -3  36    3.66    1.96
   0  -3 -36    0.59    2.16
  -3   0  36    1.28    2.11
   3  -3  36    0.49    1.98
   0   3  36    3.23    2.18
   6  -3 -36   -2.33    1.93
  -3  -3 -36    1.73    2.33
   3   3  36   -0.83    2.12
  -6   3  36    1.90    2.16
   3  -6  36    3.83    1.91
   5  -4 -36    1.92    2.15
  -4  -1 -36   -2.46    1.85
  -5   4  36   -1.63    2.06
   4   1  36   -1.91    2.09
   1  -5  36    0.19    1.78
   2  -4 -36   -2.34    1.90
  -2   4  36   -0.39    1.97
  -2  -2  36    0.34    2.02
   4  -2  36    0.99    2.06
  -1  -4 -36   -2.32    1.93
   4  -5  36   -1.15    1.92
  -5   1  36    1.14    2.04
   1   4  36   -1.06    2.14
  -5   1 -36    0.66    2.09
   4  -5 -36    1.32    2.05
  -1  -4  36   -0.16    1.81
   5  -1  36    4.77    2.33
  -4   5  36   -0.44    2.16
   1  -5 -36   -1.25    2.03
   5  -4  36    0.55    2.11
  -1   5  36   -0.68    2.09
  -4  -1  36    3.24    2.23
   3  -6 -36    0.80    2.14
  -3   6  36   -0.15    2.19
   6  -3  36    2.75    2.39
  -3  -3  36    2.04    2.02
  -1   0 -37    3.19    1.95
   1  -1 -37    3.40    2.02
  -1   1  37    2.59    2.11
   0  -1  37    5.33    2.23
   1   0  37    5.17    2.26
   3  -2 -37    6.55    2.32
  -2  -1 -37   -0.61    2.00
   1  -3  37    4.68    2.20
   2   1  37    4.54    2.33
  -3   2  37    5.54    2.27
   0  -2 -37    4.39    2.13
  -2   0  37    0.08    2.02
   2  -2  37   -2.42    1.82
   0   2  37    2.84    2.18
  -3  -2 -37   -0.18    2.12
   5  -3 -37    2.98    2.20
   3   2  37    3.99    2.54
  -5   3  37    0.91    2.21
   2  -5  37    2.86    2.01
   2  -3 -37    0.94    1.99
  -3   1 -37    2.19    2.03
  -2   3  37    1.31    2.10
  -1  -2  37    1.00    2.02
   3  -1  37   -0.64    2.07
  -1  -3 -37    2.51    2.23
   1   3  37    0.26    2.19
  -4   1  37    0.40    1.98
   3  -4  37   -1.90    1.89
   4  -4 -37    1.88    2.08
  -4   0 -37   -0.33    2.04
   4   0  37   -2.86    2.04
  -4   4  37    1.50    2.28
   0  -4  37   -0.15    1.96
   1  -4 -37    2.77    2.20
   4  -3  37    0.34    2.03
  -1   4  37   -1.32    2.06
  -3  -1  37    1.53    2.12
   3  -5 -37   -1.87    2.06
   5  -2  37    1.20    2.27
  -3   5  37   -2.16    2.06
  -2  -3  37    1.34    2.06
   0  -1 -38    5.28    2.23
   1  -1  38    6.20    2.38
   0   1  38    4.03    2.34
  -1   0  38    5.21    2.29
  -2   0 -38   16.35    2.74
   2  -2 -38   17.99    2.93
   0  -2  38   16.30    2.86
   2   0  38   15.70    3.02
  -2   2  38   16.98    2.95
  -1  -2 -38   14.52    2.78
   1   2  38   13.49    2.87
   2  -3  38   11.74    2.58
  -3   1  38   10.01    2.52
   1  -3 -38   14.59    2.85
   3  -2  38   14.19    2.87
  -1   3  38   11.56    2.72
  -2  -1  38   15.86    2.87
   0   0  39    2.27    2.24
   0   0   0    0.00    0.00
;
_shelx_hkl_checksum              41438
loop_
_space_group_symop_operation_xyz
'x, y, z'
'-y, x-y, z'
'-x+y, -x, z'
'x+2/3, y+1/3, z+1/3'
'-y+2/3, x-y+1/3, z+1/3'
'-x+y+2/3, -x+1/3, z+1/3'
'x+1/3, y+2/3, z+2/3'
'-y+1/3, x-y+2/3, z+2/3'
'-x+y+1/3, -x+2/3, z+2/3'
'-x, -y, -z'
'y, -x+y, -z'
'x-y, x, -z'
'-x+2/3, -y+1/3, -z+1/3'
'y+2/3, -x+y+1/3, -z+1/3'
'x-y+2/3, x+1/3, -z+1/3'
'-x+1/3, -y+2/3, -z+2/3'
'y+1/3, -x+y+2/3, -z+2/3'
'x-y+1/3, x+2/3, -z+2/3'
loop_
_atom_site_label
_atom_site_type_symbol
_atom_site_fract_x
_atom_site_fract_y
_atom_site_fract_z
_atom_site_U_iso_or_equiv
_atom_site_adp_type
_atom_site_occupancy
_atom_site_site_symmetry_order
_atom_site_calc_flag
_atom_site_refinement_flags_posn
_atom_site_refinement_flags_adp
_atom_site_refinement_flags_occupancy
_atom_site_disorder_assembly
_atom_site_disorder_group
Pb1 Pb 0.3333 0.6667 0.1667 0.04080(11) Uani 1 6 d S T P . .
Pb2 Pb 0.6667 0.3333 0.12068(2) 0.04054(9) Uani 1 3 d S T P . .
S S 0.19923(10) 0.15828(11) 0.27671(4) 0.0672(3) Uani 1 1 d . . . . .
O1 O 0.4061(3) 0.5511(3) 0.20677(9) 0.0674(8) Uani 1 1 d . . . . .
O2 O 0.5070(2) 0.2616(3) 0.16987(9) 0.0620(8) Uani 1 1 d . . . . .
N1 N 0.3760(3) 0.2302(3) 0.22204(10) 0.0429(8) Uani 1 1 d . . . . .
N3 N 0.3116(3) 0.3653(3) 0.23564(10) 0.0483(8) Uani 1 1 d . . . . .
C2 C 0.3009(3) 0.2561(3) 0.24308(12) 0.0440(9) Uani 1 1 d . . . . .
C4 C 0.3963(3) 0.4502(4) 0.20767(13) 0.0480(10) Uani 1 1 d . . . . .
C5 C 0.4585(3) 0.4119(4) 0.18390(13) 0.0485(10) Uani 1 1 d . . . . .
H5 H 0.5072 0.4612 0.1627 0.058 Uiso 1 1 calc R U . . .
C6 C 0.4518(3) 0.3029(3) 0.19008(12) 0.0456(10) Uani 1 1 d . . . . .
C9 C 0.2387(4) 0.4032(4) 0.25993(15) 0.0697(13) Uani 1 1 d . . . . .
H91 H 0.2235 0.4566 0.2432 0.084 Uiso 1 1 calc R U . . .
H92 H 0.1625 0.3339 0.2668 0.084 Uiso 1 1 calc R U . . .
C7 C 0.3804(4) 0.1212(4) 0.23257(14) 0.0574(11) Uani 1 1 d . . . . .
H71 H 0.4071 0.0959 0.2084 0.069 Uiso 1 1 calc R U . . .
H72 H 0.3009 0.0578 0.2397 0.069 Uiso 1 1 calc R U . . .
C8 C 0.4631(5) 0.1418(5) 0.26862(15) 0.0853(16) Uani 1 1 d . . . . .
H81 H 0.4347 0.1632 0.2929 0.102 Uiso 1 1 calc R U . . .
H82 H 0.5417 0.2052 0.2618 0.102 Uiso 1 1 calc R U . . .
H83 H 0.4657 0.0703 0.2741 0.102 Uiso 1 1 calc R U . . .
C10 C 0.3010(5) 0.4646(5) 0.29888(17) 0.0969(18) Uani 1 1 d . . . . .
H101 H 0.3148 0.4112 0.3156 0.116 Uiso 1 1 calc R U . . .
H102 H 0.2526 0.4884 0.3141 0.116 Uiso 1 1 calc R U . . .
H103 H 0.3759 0.5337 0.2921 0.116 Uiso 1 1 calc R U . . .
loop_
_atom_site_aniso_label
_atom_site_aniso_U_11
_atom_site_aniso_U_22
_atom_site_aniso_U_33
_atom_site_aniso_U_23
_atom_site_aniso_U_13
_atom_site_aniso_U_12
Pb1 0.03369(13) 0.03369(13) 0.0550(2) 0.000 0.000 0.01685(6)
Pb2 0.03923(11) 0.03923(11) 0.04317(16) 0.000 0.000 0.01961(5)
S 0.0580(7) 0.0624(7) 0.0591(8) 0.0033(6) 0.0182(6) 0.0135(6)
O1 0.079(2) 0.0525(19) 0.077(2) 0.0045(16) -0.0135(17) 0.0378(17)
O2 0.0556(18) 0.0654(19) 0.063(2) -0.0029(16) 0.0147(15) 0.0289(16)
N1 0.0370(17) 0.0389(18) 0.046(2) -0.0018(15) 0.0024(15) 0.0141(15)
N3 0.0416(19) 0.055(2) 0.051(2) -0.0028(17) 0.0003(16) 0.0263(17)
C2 0.037(2) 0.046(2) 0.042(2) -0.0064(19) -0.0034(18) 0.0154(19)
C4 0.043(2) 0.047(2) 0.049(3) 0.000(2) -0.012(2) 0.018(2)
C5 0.040(2) 0.049(2) 0.046(2) 0.007(2) 0.0018(19) 0.014(2)
C6 0.035(2) 0.048(2) 0.046(2) -0.005(2) 0.0009(19) 0.0155(19)
C9 0.071(3) 0.077(3) 0.073(3) -0.004(3) 0.008(3) 0.046(3)
C7 0.059(3) 0.045(2) 0.067(3) 0.004(2) 0.006(2) 0.025(2)
C8 0.105(4) 0.092(4) 0.081(4) 0.002(3) -0.012(3) 0.066(4)
C10 0.109(5) 0.114(5) 0.081(4) -0.024(4) 0.002(3) 0.065(4)
loop_
_atom_type_symbol
_atom_type_description
_atom_type_scat_dispersion_real
_atom_type_scat_dispersion_imag
_atom_type_scat_source
C C 0.0033 0.0016 'International Tables Vol C Tables 4.2.6.8 and 6.1.1.4'
H H 0.0000 0.0000 'International Tables Vol C Tables 4.2.6.8 and 6.1.1.4'
N N 0.0061 0.0033 'International Tables Vol C Tables 4.2.6.8 and 6.1.1.4'
O O 0.0106 0.0060 'International Tables Vol C Tables 4.2.6.8 and 6.1.1.4'
Pb Pb -3.3944 10.1111 'International Tables Vol C Tables 4.2.6.8 and 6.1.1.4'
S S 0.1246 0.1234 'International Tables Vol C Tables 4.2.6.8 and 6.1.1.4'
loop_
_geom_angle_atom_site_label_1
_geom_angle_atom_site_label_2
_geom_angle_atom_site_label_3
_geom_angle
_geom_angle_site_symmetry_1
_geom_angle_site_symmetry_3
O1 Pb1 O1 95.69(10) 15 14_455
O1 Pb1 O1 84.31(10) 15 2_665
O1 Pb1 O1 180.0 14_455 2_665
O1 Pb1 O1 180.0 15 3_565
O1 Pb1 O1 84.31(10) 14_455 3_565
O1 Pb1 O1 95.69(10) 2_665 3_565
O1 Pb1 O1 95.69(10) 15 13_565
O1 Pb1 O1 95.69(10) 14_455 13_565
O1 Pb1 O1 84.31(10) 2_665 13_565
O1 Pb1 O1 84.31(10) 3_565 13_565
O1 Pb1 O1 84.31(10) 15 .
O1 Pb1 O1 84.31(10) 14_455 .
O1 Pb1 O1 95.69(10) 2_665 .
O1 Pb1 O1 95.69(10) 3_565 .
O1 Pb1 O1 180.0 13_565 .
O2 Pb2 O2 81.13(11) 2_655 3_665
O2 Pb2 O2 81.13(11) 2_655 .
O2 Pb2 O2 81.13(11) 3_665 .
O2 Pb2 S 84.78(7) 2_655 14
O2 Pb2 S 120.75(8) 3_665 14
O2 Pb2 S 151.72(7) . 14
O2 Pb2 S 120.75(8) 2_655 13
O2 Pb2 S 151.72(7) 3_665 13
O2 Pb2 S 84.78(7) . 13
S Pb2 S 81.56(3) 14 13
O2 Pb2 S 151.72(7) 2_655 15
O2 Pb2 S 84.78(7) 3_665 15
O2 Pb2 S 120.75(8) . 15
S Pb2 S 81.56(3) 14 15
S Pb2 S 81.56(3) 13 15
C2 S Pb2 98.67(13) . 13
C4 O1 Pb1 140.4(3) . .
C6 O2 Pb2 137.4(3) . .
C2 N1 C6 122.9(3) . .
C2 N1 C7 119.8(3) . .
C6 N1 C7 117.3(3) . .
C2 N3 C4 123.3(3) . .
C2 N3 C9 119.8(3) . .
C4 N3 C9 116.7(3) . .
N1 C2 N3 117.0(3) . .
N1 C2 S 121.3(3) . .
N3 C2 S 121.7(3) . .
O1 C4 C5 126.6(4) . .
O1 C4 N3 117.4(4) . .
C5 C4 N3 116.1(4) . .
C4 C5 C6 122.8(4) . .
C4 C5 H5 118.6 . .
C6 C5 H5 118.6 . .
O2 C6 C5 126.7(4) . .
O2 C6 N1 116.3(4) . .
C5 C6 N1 117.0(4) . .
C10 C9 N3 110.7(4) . .
C10 C9 H91 109.5 . .
N3 C9 H91 109.5 . .
C10 C9 H92 109.5 . .
N3 C9 H92 109.5 . .
H91 C9 H92 108.1 . .
N1 C7 C8 111.7(3) . .
N1 C7 H71 109.3 . .
C8 C7 H71 109.3 . .
N1 C7 H72 109.3 . .
C8 C7 H72 109.3 . .
H71 C7 H72 108.0 . .
C7 C8 H81 109.5 . .
C7 C8 H82 109.5 . .
H81 C8 H82 109.5 . .
C7 C8 H83 109.5 . .
H81 C8 H83 109.5 . .
H82 C8 H83 109.5 . .
C9 C10 H101 109.5 . .
C9 C10 H102 109.5 . .
H101 C10 H102 109.5 . .
C9 C10 H103 109.5 . .
H101 C10 H103 109.5 . .
H102 C10 H103 109.5 . .
loop_
_geom_bond_atom_site_label_1
_geom_bond_atom_site_label_2
_geom_bond_distance
_geom_bond_site_symmetry_2
Pb1 O1 2.488(3) 15
Pb1 O1 2.488(3) 14_455
Pb1 O1 2.488(3) 2_665
Pb1 O1 2.488(3) 3_565
Pb1 O1 2.488(3) 13_565
Pb1 O1 2.489(3) .
Pb2 O2 2.389(3) 2_655
Pb2 O2 2.389(3) 3_665
Pb2 O2 2.389(3) .
Pb2 S 3.1292(12) 14
Pb2 S 3.1292(12) 13
Pb2 S 3.1293(12) 15
S C2 1.683(4) .
S Pb2 3.1292(12) 13
O1 C4 1.249(5) .
O2 C6 1.265(4) .
N1 C2 1.357(4) .
N1 C6 1.406(5) .
N1 C7 1.480(5) .
N3 C2 1.371(5) .
N3 C4 1.418(5) .
N3 C9 1.484(5) .
C4 C5 1.369(5) .
C5 C6 1.384(5) .
C5 H5 0.9300 .
C9 C10 1.484(6) .
C9 H91 0.9700 .
C9 H92 0.9700 .
C7 C8 1.507(6) .
C7 H71 0.9700 .
C7 H72 0.9700 .
C8 H81 0.9600 .
C8 H82 0.9600 .
C8 H83 0.9600 .
C10 H101 0.9600 .
C10 H102 0.9600 .
C10 H103 0.9600 .
loop_
_geom_torsion_atom_site_label_1
_geom_torsion_atom_site_label_2
_geom_torsion_atom_site_label_3
_geom_torsion_atom_site_label_4
_geom_torsion
_geom_torsion_site_symmetry_1
_geom_torsion_site_symmetry_2
_geom_torsion_site_symmetry_3
_geom_torsion_site_symmetry_4
C6 N1 C2 N3 -7.9(5) . . . .
C7 N1 C2 N3 172.0(3) . . . .
C6 N1 C2 S 172.0(3) . . . .
C7 N1 C2 S -8.1(5) . . . .
C4 N3 C2 N1 -0.3(5) . . . .
C9 N3 C2 N1 -175.4(3) . . . .
C4 N3 C2 S 179.8(3) . . . .
C9 N3 C2 S 4.7(5) . . . .
Pb2 S C2 N1 -82.6(3) 13 . . .
Pb2 S C2 N3 97.3(3) 13 . . .
Pb1 O1 C4 C5 83.1(6) . . . .
Pb1 O1 C4 N3 -96.1(5) . . . .
C2 N3 C4 O1 -172.6(3) . . . .
C9 N3 C4 O1 2.6(5) . . . .
C2 N3 C4 C5 8.1(5) . . . .
C9 N3 C4 C5 -176.7(3) . . . .
O1 C4 C5 C6 172.6(4) . . . .
N3 C4 C5 C6 -8.2(6) . . . .
Pb2 O2 C6 C5 11.6(6) . . . .
Pb2 O2 C6 N1 -168.5(2) . . . .
C4 C5 C6 O2 -179.2(4) . . . .
C4 C5 C6 N1 0.8(5) . . . .
C2 N1 C6 O2 -172.2(3) . . . .
C7 N1 C6 O2 8.0(5) . . . .
C2 N1 C6 C5 7.8(5) . . . .
C7 N1 C6 C5 -172.1(3) . . . .
C2 N3 C9 C10 88.4(5) . . . .
C4 N3 C9 C10 -87.0(5) . . . .
C2 N1 C7 C8 -84.7(4) . . . .
C6 N1 C7 C8 95.2(4) . . . .

_cod_database_fobs_code 1529237
