#------------------------------------------------------------------------------
#$Date: 2015-12-09 13:39:15 +0200 (Wed, 09 Dec 2015) $
#$Revision: 170960 $
#$URL: svn://www.crystallography.net/cod/cif/1/53/19/1531941.cif $
#------------------------------------------------------------------------------
#
# This file is available in the Crystallography Open Database (COD),
# http://www.crystallography.net/
#
# All data on this site have been placed in the public domain by the
# contributors.
#
data_1531941
loop_
_publ_author_name
'Barnett, Brandon R.'
'Moore, Curtis E.'
'Chandrasekaran, Perumalreddy'
'Sproules, Stephen'
'Rheingold, Arnold L.'
'DeBeer, Serena'
'Figueroa, Joshua S.'
_publ_section_title
;
 Metal-only Lewis pairs between group 10 metals and Tl(i) or Ag(i):
 insights into the electronic consequences of Z-type ligand binding
;
_journal_issue                   12
_journal_name_full               'Chem. Sci.'
_journal_page_first              7169
_journal_paper_doi               10.1039/C5SC03104D
_journal_volume                  6
_journal_year                    2015
_chemical_formula_moiety         'C62 H74 N2 Pt Tl, C F3 O3 S, 2(C4 H10 O)'
_chemical_formula_sum            'C71 H94 F3 N2 O5 Pt S Tl'
_chemical_formula_weight         1544.00
_chemical_name_common            '[TlPt(CNArDipp2)2]OTf'
_space_group_crystal_system      triclinic
_space_group_IT_number           2
_space_group_name_Hall           '-P 1'
_space_group_name_H-M_alt        'P -1'
_symmetry_space_group_name_Hall  '-P 1'
_symmetry_space_group_name_H-M   'P -1'
_atom_sites_solution_hydrogens   geom
_atom_sites_solution_primary     direct
_atom_sites_solution_secondary   difmap
_audit_creation_date             2015-07-14
_audit_creation_method
;
Olex2 1.2-beta
(compiled 2015.01.26 svn.r3150 for OlexSys, GUI svn.r4998)
;
_audit_update_record
;
2015-07-22 deposited with the CCDC.
2015-09-17 downloaded from the CCDC.
;
_cell_angle_alpha                66.887(3)
_cell_angle_beta                 70.018(3)
_cell_angle_gamma                71.465(3)
_cell_formula_units_Z            2
_cell_length_a                   13.9500(8)
_cell_length_b                   16.2777(10)
_cell_length_c                   17.6213(10)
_cell_measurement_reflns_used    9942
_cell_measurement_temperature    100(2)
_cell_measurement_theta_max      25.39
_cell_measurement_theta_min      2.33
_cell_volume                     3379.6(4)
_computing_cell_refinement       'SAINT v8.34A (Bruker, 2013)'
_computing_data_collection       'APEX2 v2013.6-2 (Bruker, 2013)'
_computing_data_reduction        'SAINT v8.34A (Bruker, 2013)'
_computing_molecular_graphics    'Olex2 (Dolomanov et al., 2009)'
_computing_publication_material  'Olex2 (Dolomanov et al., 2009)'
_computing_structure_refinement  'XL (Sheldrick, 2008)'
_computing_structure_solution    'XS (Sheldrick, 2008)'
_diffrn_ambient_temperature      100.0
_diffrn_detector                 'Bruker Photon-100 area detector'
_diffrn_detector_area_resol_mean 10.5
_diffrn_detector_type            'CMOS area detector'
_diffrn_measured_fraction_theta_full 0.999
_diffrn_measured_fraction_theta_max 0.996
_diffrn_measurement_device       'four-circle KAPPA diffractometer'
_diffrn_measurement_device_type  'Bruker Photon100 Imus'
_diffrn_measurement_method       '\w and \f scans'
_diffrn_radiation_monochromator  'Double Bounce Multilayer Mirror'
_diffrn_radiation_probe          x-ray
_diffrn_radiation_type           MoK\a
_diffrn_radiation_wavelength     0.71073
_diffrn_reflns_av_R_equivalents  0.0365
_diffrn_reflns_av_unetI/netI     0.0289
_diffrn_reflns_laue_measured_fraction_full 0.999
_diffrn_reflns_laue_measured_fraction_max 0.996
_diffrn_reflns_limit_h_max       16
_diffrn_reflns_limit_h_min       -16
_diffrn_reflns_limit_k_max       19
_diffrn_reflns_limit_k_min       -19
_diffrn_reflns_limit_l_max       21
_diffrn_reflns_limit_l_min       -21
_diffrn_reflns_number            69661
_diffrn_reflns_point_group_measured_fraction_full 0.999
_diffrn_reflns_point_group_measured_fraction_max 0.996
_diffrn_reflns_theta_full        25.000
_diffrn_reflns_theta_max         25.408
_diffrn_reflns_theta_min         2.288
_diffrn_source                   'microfocus sealed X-ray tube'
_diffrn_source_type              'Incoatec I\mus'
_exptl_absorpt_coefficient_mu    4.537
_exptl_absorpt_correction_T_max  0.7452
_exptl_absorpt_correction_T_min  0.5046
_exptl_absorpt_correction_type   multi-scan
_exptl_absorpt_process_details
;
SADABS-2008/1 (Bruker,2008) was used for absorption correction.
wR2(int) was 0.0940 before and 0.0526 after correction.
The Ratio of minimum to maximum transmission is 0.6771.
The \l/2 correction factor is 0.0015.
;
_exptl_crystal_colour            Yellow
_exptl_crystal_colour_primary    yellow
_exptl_crystal_density_diffrn    1.517
_exptl_crystal_description       Plate
_exptl_crystal_F_000             1552
_exptl_crystal_size_max          0.203
_exptl_crystal_size_mid          0.151
_exptl_crystal_size_min          0.055
_refine_diff_density_max         2.795
_refine_diff_density_min         -2.750
_refine_diff_density_rms         0.105
_refine_ls_extinction_method     none
_refine_ls_goodness_of_fit_ref   1.057
_refine_ls_hydrogen_treatment    constr
_refine_ls_matrix_type           full
_refine_ls_number_parameters     683
_refine_ls_number_reflns         12410
_refine_ls_number_restraints     57
_refine_ls_restrained_S_all      1.104
_refine_ls_R_factor_all          0.0468
_refine_ls_R_factor_gt           0.0344
_refine_ls_shift/su_max          0.002
_refine_ls_shift/su_mean         0.000
_refine_ls_structure_factor_coef Fsqd
_refine_ls_weighting_details
'w=1/[\s^2^(Fo^2^)+(0.0273P)^2^+11.3561P] where P=(Fo^2^+2Fc^2^)/3'
_refine_ls_weighting_scheme      calc
_refine_ls_wR_factor_gt          0.0737
_refine_ls_wR_factor_ref         0.0790
_reflns_Friedel_coverage         0.000
_reflns_number_gt                10267
_reflns_number_total             12410
_reflns_threshold_expression     'I > 2\s(I)'
_cod_data_source_file            c5sc03104d2.cif
_cod_data_source_block           JFig671
_cod_depositor_comments
;
The following automatic conversions were performed:

'_diffrn_radiation_probe' value 'X-ray' changed to 'x-ray' according
to
/usr/data/users/saulius/crontab/automatic-downloads/rss-feeds/RSC/lib/dictionaries/cif_core.dic
dictionary named 'cif_core.dic' version 2.4.2 from 2011-04-26.

'_exptl_crystal_colour_primary' value 'Yellow' changed to 'yellow'
according to
/usr/data/users/saulius/crontab/automatic-downloads/rss-feeds/RSC/lib/dictionaries/cif_core.dic
dictionary named 'cif_core.dic' version 2.4.2 from 2011-04-26.

Automatic conversion script
Id: cif_fix_values 3271 2015-04-21 07:52:19Z andrius 

 Adding full bibliography for 1531937--1531946.cif.
;
_cod_database_code               1531941
_shelxl_version_number           2014/6
_shelx_space_group_comment
;
The symmetry employed for this shelxl refinement is uniquely defined
by the following loop, which should always be used as a source of
symmetry information in preference to the above space-group names.
They are only intended as comments.
;
_shelx_estimated_absorpt_t_max   0.788
_shelx_estimated_absorpt_t_min   0.459
_olex2_refinement_description
;
1. Fixed Uiso
 At 1.2 times of:
  All C(H) groups
 At 1.5 times of:
  All C(H,H,H) groups
2. Rigid body (RIGU) restrains
 F1, F3, F2, C63, S1, O3, O1, O2
 with sigma for 1-2 distances of 0.002 and sigma for 1-3 distances of 0.002
3.a Ternary CH refined with riding coordinates:
 C30(H30), C15(H15), C18(H18), C27(H27), C54(H54), C57(H57), C45(H45), C60(H60)
3.b Aromatic/amide H refined with riding coordinates:
 C13(H13), C12(H12), C11(H11), C7(H7), C6(H6), C5(H5), C23(H23), C24(H24),
 C25(H25), C37(H37), C36(H36), C35(H35), C50(H50), C51(H51), C52(H52), C41(H41),
  C42(H42), C43(H43)
3.c Idealised Me refined as rotating group:
 C16(H16A,H16B,H16C), C17(H17A,H17B,H17C), C20(H20A,H20B,H20C), C19(H19A,H19B,
 H19C), C31(H31A,H31B,H31C), C32(H32A,H32B,H32C), C28(H28A,H28B,H28C), C29(H29A,
 H29B,H29C), C56(H56A,H56B,H56C), C55(H55A,H55B,H55C), C58(H58A,H58B,H58C),
 C59(H59A,H59B,H59C), C47(H47A,H47B,H47C), C46(H46A,H46B,H46C), C61(H61A,H61B,
 H61C), C62(H62A,H62B,H62C)
;
_shelx_res_file
;
    jfig671_1_0m_sq_sq.res created by SHELXL-2014/7

TITL JFig671_1_0m in P-1
CELL 0.71073 13.95 16.2777 17.6213 66.887 70.018 71.465
ZERR 2 0.0008 0.001 0.001 0.003 0.003 0.003
LATT 1
SFAC C H F N O Pt S Tl
UNIT 142 188 6 4 10 2 2 2
RIGU 0.002 0.002 F1 F3 F2 C63 S1 O3 O1 O2

L.S. 10 0 76
PLAN  10 0 0
SIZE 0.203 0.151 0.055
TEMP -173.15
BOND $H
ABIN
fmap 2
acta 50
OMIT 0 0 2
OMIT 1 0 1
OMIT 1 -1 1
OMIT 2 0 2
REM <olex2.extras>
REM <HklSrc "%.\\jfig671_1_0m_sq_sq.hkl">
REM </olex2.extras>

WGHT    0.027300   11.356100
FVAR       0.07924
PT1   6    0.306119    0.351436    0.258354    11.00000    0.03077    0.03626 =
         0.02509   -0.01187   -0.00519   -0.01690
TL1   8    0.167856    0.396668    0.405828    11.00000    0.05598    0.05219 =
         0.02922   -0.01855   -0.00002   -0.02538
S1    7   -0.026968    0.583209    0.341428    11.00000    0.05017    0.05898 =
         0.03741   -0.00882   -0.00023   -0.02211
O1    5   -0.021214    0.489030    0.360186    11.00000    0.07772    0.07044 =
         0.05683   -0.02386    0.00623   -0.03707
O2    5   -0.126926    0.641484    0.358082    11.00000    0.07009    0.09143 =
         0.09123   -0.01951    0.01562   -0.01451
O3    5    0.047599    0.598281    0.369544    11.00000    0.12256    0.09100 =
         0.12915   -0.03942   -0.05456   -0.03344
N1    4    0.488176    0.430392    0.240164    11.00000    0.03133    0.04633 =
         0.02031   -0.01744    0.00086   -0.01938
F2    3    0.115134    0.573009    0.203977    11.00000    0.09643    0.13460 =
         0.06867    0.00445    0.03655   -0.00364
F3    3    0.024912    0.704215    0.194626    11.00000    0.09490    0.12572 =
         0.10932    0.03090    0.01552   -0.00831
C30   1    0.489914    0.351056    0.457721    11.00000    0.03762    0.04761 =
         0.02207   -0.01869    0.00296   -0.01596
AFIX  13
H30   2    0.553484    0.352322    0.409068    11.00000   -1.20000
AFIX   0
N2    4    0.194741    0.219214    0.253942    11.00000    0.03108    0.02911 =
         0.01371   -0.00223   -0.00632   -0.01232
C1    1    0.414146    0.406884    0.248734    11.00000    0.03606    0.04017 =
         0.01805   -0.01137   -0.00297   -0.01317
C3    1    0.571035    0.458442    0.243677    11.00000    0.02919    0.03992 =
         0.02206   -0.00846   -0.00569   -0.01889
C8    1    0.668566    0.440418    0.189139    11.00000    0.03165    0.03525 =
         0.01632   -0.00459   -0.00262   -0.01758
C9    1    0.683986    0.392179    0.127354    11.00000    0.02342    0.03967 =
         0.01941   -0.00940   -0.00098   -0.01731
C14   1    0.689260    0.444171    0.041130    11.00000    0.02615    0.03772 =
         0.02184   -0.00931   -0.00152   -0.01417
C15   1    0.678681    0.546993    0.010008    11.00000    0.04223    0.03985 =
         0.02388   -0.00923   -0.00402   -0.02062
AFIX  13
H15   2    0.671018    0.565357    0.060033    11.00000   -1.20000
AFIX   0
C16   1    0.776001    0.575096   -0.056350    11.00000    0.04534    0.04368 =
         0.02839    0.00066   -0.00745   -0.02277
AFIX 137
H16A  2    0.837029    0.543173   -0.032659    11.00000   -1.50000
H16B  2    0.768541    0.641252   -0.072348    11.00000   -1.50000
H16C  2    0.785191    0.558985   -0.106833    11.00000   -1.50000
AFIX   0
C17   1    0.580010    0.596424   -0.022380    11.00000    0.04732    0.04151 =
         0.03902   -0.01346   -0.00727   -0.01378
AFIX 137
H17A  2    0.586299    0.582028   -0.073137    11.00000   -1.50000
H17B  2    0.571261    0.662541   -0.036871    11.00000   -1.50000
H17C  2    0.519257    0.576371    0.022118    11.00000   -1.50000
AFIX   0
C13   1    0.703268    0.399069   -0.015721    11.00000    0.03259    0.04988 =
         0.02050   -0.01187   -0.00367   -0.01873
AFIX  43
H13   2    0.707732    0.433044   -0.074210    11.00000   -1.20000
AFIX   0
C12   1    0.710756    0.306571    0.011002    11.00000    0.03589    0.04665 =
         0.02831   -0.02005   -0.00548   -0.01553
AFIX  43
H12   2    0.720751    0.276954   -0.028896    11.00000   -1.20000
AFIX   0
C11   1    0.703783    0.256374    0.095884    11.00000    0.03544    0.03899 =
         0.03007   -0.01176   -0.01089   -0.01492
AFIX  43
H11   2    0.708204    0.192377    0.113980    11.00000   -1.20000
AFIX   0
C10   1    0.690457    0.297796    0.155024    11.00000    0.02828    0.03855 =
         0.02282   -0.00789   -0.00572   -0.01672
C18   1    0.688173    0.239290    0.247601    11.00000    0.03528    0.04094 =
         0.02499   -0.00946   -0.00327   -0.01913
AFIX  13
H18   2    0.664875    0.281282    0.282383    11.00000   -1.20000
AFIX   0
C20   1    0.796942    0.184422    0.255706    11.00000    0.03768    0.07965 =
         0.02935    0.00133   -0.01342   -0.02442
AFIX 137
H20A  2    0.821426    0.142553    0.222178    11.00000   -1.50000
H20B  2    0.794956    0.149207    0.315670    11.00000   -1.50000
H20C  2    0.844626    0.226101    0.234500    11.00000   -1.50000
AFIX   0
C19   1    0.611013    0.176190    0.282975    11.00000    0.03934    0.05207 =
         0.03197   -0.00238   -0.00888   -0.02528
AFIX 137
H19A  2    0.542137    0.212494    0.274742    11.00000   -1.50000
H19B  2    0.606098    0.144664    0.343908    11.00000   -1.50000
H19C  2    0.635411    0.131021    0.252917    11.00000   -1.50000
AFIX   0
C7    1    0.748812    0.468657    0.195407    11.00000    0.02915    0.04331 =
         0.02476   -0.01260   -0.00185   -0.01743
AFIX  43
H7    2    0.816250    0.458798    0.158431    11.00000   -1.20000
AFIX   0
C6    1    0.732021    0.511034    0.254820    11.00000    0.03457    0.04751 =
         0.03270   -0.01432   -0.00832   -0.02093
AFIX  43
H6    2    0.788135    0.529054    0.258746    11.00000   -1.20000
AFIX   0
C5    1    0.633472    0.527307    0.308703    11.00000    0.04156    0.04761 =
         0.03026   -0.01964   -0.00715   -0.01955
AFIX  43
H5    2    0.622995    0.556293    0.349202    11.00000   -1.20000
AFIX   0
C4    1    0.550137    0.501694    0.304041    11.00000    0.03396    0.04269 =
         0.02298   -0.01234   -0.00399   -0.01553
C21   1    0.443113    0.515599    0.360911    11.00000    0.03598    0.04330 =
         0.02546   -0.01907   -0.00169   -0.01854
C22   1    0.415407    0.443437    0.435412    11.00000    0.03415    0.04071 =
         0.02519   -0.02226   -0.00195   -0.01243
C31   1    0.443205    0.272983    0.469355    11.00000    0.06867    0.04297 =
         0.04853   -0.01974   -0.02401   -0.01004
AFIX 137
H31A  2    0.380177    0.270407    0.516420    11.00000   -1.50000
H31B  2    0.494179    0.215160    0.482303    11.00000   -1.50000
H31C  2    0.425156    0.283067    0.416840    11.00000   -1.50000
AFIX   0
C32   1    0.524811    0.333566    0.537224    11.00000    0.04366    0.06503 =
         0.04367   -0.02994   -0.01213   -0.00752
AFIX 137
H32A  2    0.464136    0.330839    0.586334    11.00000   -1.50000
H32B  2    0.556885    0.383256    0.528220    11.00000   -1.50000
H32C  2    0.575743    0.275413    0.547991    11.00000   -1.50000
AFIX   0
C23   1    0.315980    0.456395    0.488544    11.00000    0.04077    0.04088 =
         0.02462   -0.01857    0.00269   -0.01545
AFIX  43
H23   2    0.297083    0.409335    0.540238    11.00000   -1.20000
AFIX   0
C24   1    0.244458    0.537088    0.466817    11.00000    0.03421    0.04815 =
         0.03352   -0.02417    0.00275   -0.01164
AFIX  43
H24   2    0.176737    0.545414    0.503784    11.00000   -1.20000
AFIX   0
C25   1    0.270742    0.606158    0.391362    11.00000    0.04395    0.04194 =
         0.03427   -0.02099   -0.00406   -0.01230
AFIX  43
H25   2    0.219719    0.660221    0.375712    11.00000   -1.20000
AFIX   0
C26   1    0.371051    0.597184    0.338276    11.00000    0.04175    0.04122 =
         0.02758   -0.01486   -0.00695   -0.01422
C27   1    0.397730    0.674234    0.255831    11.00000    0.04914    0.05711 =
         0.03254   -0.00152   -0.01059   -0.02464
AFIX  13
H27   2    0.475544    0.664380    0.236170    11.00000   -1.20000
AFIX   0
C28   1    0.356806    0.768019    0.267171    11.00000    0.18125    0.06494 =
         0.04587    0.00294   -0.04517   -0.06349
AFIX 137
H28A  2    0.280326    0.782016    0.281547    11.00000   -1.50000
H28B  2    0.382993    0.814071    0.214088    11.00000   -1.50000
H28C  2    0.380677    0.768523    0.313201    11.00000   -1.50000
AFIX   0
C29   1    0.358705    0.672688    0.186638    11.00000    0.14229    0.07245 =
         0.03786   -0.00901   -0.03815   -0.03537
AFIX 137
H29A  2    0.391061    0.614451    0.175091    11.00000   -1.50000
H29B  2    0.376978    0.723136    0.134708    11.00000   -1.50000
H29C  2    0.282694    0.679470    0.205110    11.00000   -1.50000
AFIX   0
C2    1    0.227992    0.273448    0.258556    11.00000    0.03198    0.03037 =
         0.02151   -0.00807   -0.00847   -0.00948
C33   1    0.154927    0.143984    0.269827    11.00000    0.03001    0.02244 =
         0.02246   -0.00457   -0.00748   -0.01105
C38   1    0.106291    0.101116    0.355233    11.00000    0.02811    0.02733 =
         0.01987   -0.00532   -0.00750   -0.00777
C37   1    0.071255    0.023904    0.371126    11.00000    0.03721    0.02973 =
         0.02297   -0.00708   -0.00031   -0.01457
AFIX  43
H37   2    0.038647   -0.007344    0.427875    11.00000   -1.20000
AFIX   0
C36   1    0.082654   -0.008809    0.306214    11.00000    0.04895    0.03012 =
         0.03003   -0.00950    0.00045   -0.02336
AFIX  43
H36   2    0.057921   -0.061919    0.318789    11.00000   -1.20000
AFIX   0
C35   1    0.130075    0.035713    0.222865    11.00000    0.04320    0.03450 =
         0.02450   -0.01285   -0.00295   -0.01774
AFIX  43
H35   2    0.137048    0.012847    0.178822    11.00000   -1.20000
AFIX   0
C34   1    0.167357    0.112825    0.202843    11.00000    0.02990    0.02929 =
         0.02075   -0.00808   -0.00611   -0.01039
C48   1    0.220041    0.161442    0.112893    11.00000    0.02949    0.03630 =
         0.02052   -0.01381   -0.00051   -0.01734
C49   1    0.161006    0.218274    0.054092    11.00000    0.03184    0.03781 =
         0.02186   -0.01240   -0.00162   -0.01564
C50   1    0.212007    0.259544   -0.029468    11.00000    0.03839    0.05058 =
         0.02087   -0.00864   -0.00719   -0.01498
AFIX  43
H50   2    0.172516    0.297671   -0.070007    11.00000   -1.20000
AFIX   0
C51   1    0.319096    0.245563   -0.053798    11.00000    0.03928    0.05298 =
         0.02096   -0.00941    0.00354   -0.02323
AFIX  43
H51   2    0.353140    0.274368   -0.110903    11.00000   -1.20000
AFIX   0
C52   1    0.376633    0.190558    0.003653    11.00000    0.02888    0.04817 =
         0.03623   -0.02091    0.00234   -0.01601
AFIX  43
H52   2    0.450568    0.181469   -0.014307    11.00000   -1.20000
AFIX   0
C53   1    0.329650    0.147229    0.088242    11.00000    0.03358    0.03405 =
         0.03097   -0.01608   -0.00585   -0.01133
C54   1    0.397783    0.082773    0.148151    11.00000    0.03322    0.04768 =
         0.03795   -0.01501   -0.00944   -0.00995
AFIX  13
H54   2    0.350848    0.063776    0.206480    11.00000   -1.20000
AFIX   0
C56   1    0.455168   -0.003563    0.123172    11.00000    0.05620    0.04321 =
         0.07657   -0.01830   -0.03183   -0.01072
AFIX 137
H56A  2    0.404276   -0.033425    0.123126    11.00000   -1.50000
H56B  2    0.495956   -0.045511    0.164250    11.00000   -1.50000
H56C  2    0.502041    0.012926    0.066135    11.00000   -1.50000
AFIX   0
C55   1    0.474477    0.129100    0.152630    11.00000    0.04420    0.04827 =
         0.06732   -0.02734   -0.03005    0.00070
AFIX 137
H55A  2    0.516056    0.085569    0.192587    11.00000   -1.50000
H55B  2    0.435680    0.181922    0.172194    11.00000   -1.50000
H55C  2    0.520861    0.149509    0.095979    11.00000   -1.50000
AFIX   0
C57   1    0.042057    0.235163    0.078823    11.00000    0.02743    0.04564 =
         0.02349   -0.00819   -0.00380   -0.01291
AFIX  13
H57   2    0.019207    0.208108    0.142112    11.00000   -1.20000
AFIX   0
C58   1   -0.008427    0.336189    0.055373    11.00000    0.03380    0.05936 =
         0.04691   -0.01915   -0.00517   -0.01336
AFIX 137
H58A  2    0.013354    0.365369    0.084121    11.00000   -1.50000
H58B  2   -0.084538    0.343777    0.073280    11.00000   -1.50000
H58C  2    0.013282    0.364703   -0.006434    11.00000   -1.50000
AFIX   0
C59   1    0.004360    0.187358    0.039092    11.00000    0.03662    0.06414 =
         0.04806   -0.02203   -0.01117   -0.01779
AFIX 137
H59A  2   -0.072030    0.198217    0.056644    11.00000   -1.50000
H59B  2    0.033587    0.121533    0.058141    11.00000   -1.50000
H59C  2    0.027224    0.211511   -0.023118    11.00000   -1.50000
AFIX   0
C39   1    0.094940    0.139484    0.423015    11.00000    0.03338    0.02840 =
         0.01777   -0.00507   -0.00028   -0.01738
C40   1    0.178188    0.118650    0.458983    11.00000    0.04069    0.03394 =
         0.01860    0.00044   -0.00917   -0.01890
C41   1    0.164757    0.156155    0.521940    11.00000    0.06153    0.05061 =
         0.02372   -0.00229   -0.01693   -0.03129
AFIX  43
H41   2    0.220234    0.141469    0.547840    11.00000   -1.20000
AFIX   0
C42   1    0.072653    0.214070    0.547319    11.00000    0.07086    0.05121 =
         0.02166   -0.01674    0.00297   -0.03685
AFIX  43
H42   2    0.064807    0.238936    0.590209    11.00000   -1.20000
AFIX   0
C43   1   -0.007052    0.235155    0.509960    11.00000    0.04406    0.04554 =
         0.03555   -0.02477    0.00641   -0.01834
AFIX  43
H43   2   -0.069751    0.276060    0.526648    11.00000   -1.20000
AFIX   0
C44   1    0.000830    0.198478    0.448114    11.00000    0.03338    0.03392 =
         0.03279   -0.01525    0.00074   -0.01848
C45   1   -0.087490    0.226312    0.405182    11.00000    0.02948    0.04247 =
         0.06308   -0.03180   -0.01467   -0.00191
AFIX  13
H45   2   -0.084404    0.174229    0.387173    11.00000   -1.20000
AFIX   0
C47   1   -0.071976    0.308628    0.325117    11.00000    0.06279    0.05102 =
         0.09066   -0.00832   -0.05077   -0.00706
AFIX 137
H47A  2   -0.129207    0.325678    0.297916    11.00000   -1.50000
H47B  2   -0.005436    0.293020    0.285473    11.00000   -1.50000
H47C  2   -0.071313    0.360101    0.340494    11.00000   -1.50000
AFIX   0
C46   1   -0.196076    0.246127    0.464304    11.00000    0.02983    0.09010 =
         0.12237   -0.08162   -0.00896   -0.00253
AFIX 137
H46A  2   -0.206227    0.303618    0.474609    11.00000   -1.50000
H46B  2   -0.201669    0.196200    0.518581    11.00000   -1.50000
H46C  2   -0.249623    0.251207    0.437447    11.00000   -1.50000
AFIX   0
C60   1    0.280053    0.054308    0.433432    11.00000    0.03697    0.03910 =
         0.03304    0.00061   -0.01318   -0.01395
AFIX  13
H60   2    0.282414    0.048845    0.378212    11.00000   -1.20000
AFIX   0
C61   1    0.282750   -0.040141    0.499534    11.00000    0.04794    0.05315 =
         0.10215    0.01912   -0.01784   -0.00866
AFIX 137
H61A  2    0.282241   -0.036940    0.554062    11.00000   -1.50000
H61B  2    0.346312   -0.082391    0.480635    11.00000   -1.50000
H61C  2    0.221436   -0.062005    0.506537    11.00000   -1.50000
AFIX   0
C62   1    0.375860    0.088981    0.420273    11.00000    0.04113    0.06512 =
         0.06196   -0.01280   -0.00999   -0.01853
AFIX 137
H62A  2    0.376694    0.092929    0.474118    11.00000   -1.50000
H62B  2    0.373361    0.149645    0.377183    11.00000   -1.50000
H62C  2    0.439121    0.046661    0.401057    11.00000   -1.50000
AFIX   0

C63   1    0.021783    0.617598    0.227008    11.00000    0.07955    0.12206 =
         0.04927    0.00254    0.00121   -0.00610
F1    3   -0.044521    0.615217    0.192036    11.00000    0.16081    0.26272 =
         0.07276   -0.01873   -0.03589   -0.04683
HKLF 4

REM  JFig671_1_0m in P-1
REM R1 =  0.0344 for   10267 Fo > 4sig(Fo)  and  0.0468 for all   12410 data
REM    683 parameters refined using     57 restraints

END

WGHT      0.0272     11.3398

REM Highest difference peak  2.795,  deepest hole -2.750,  1-sigma level  0.105
Q1    1   0.2148  0.3478  0.4133  11.00000  0.05    2.80
Q2    1   0.5456  0.6988 -0.1104  11.00000  0.05    1.63
Q3    1   0.1329  0.3899  0.3877  11.00000  0.05    1.51
Q4    1  -0.0202  0.5513  0.4459  11.00000  0.05    1.32
Q5    1  -0.1344  0.5839  0.3388  11.00000  0.05    1.09
Q6    1   0.0550  0.7190  0.2390  11.00000  0.05    0.96
Q7    1   0.0185  0.6642  0.1723  11.00000  0.05    0.96
Q8    1   0.0060  0.5408  0.1900  11.00000  0.05    0.94
Q9    1   0.3386  0.2979  0.2540  11.00000  0.05    0.80
Q10   1   0.6280  0.1477  0.0681  11.00000  0.05    0.71
;
_shelx_res_checksum              52297
_shelx_fab_checksum              24963
_shelx_fab_file
;
    2    0    0    -37.88      0.00
    3    0    0      4.07      0.00
    4    0    0      9.23      0.00
    5    0    0     -7.85      0.00
    6    0    0     -4.58      0.00
    7    0    0      8.98      0.00
    8    0    0      3.56      0.00
    9    0    0     -2.51      0.00
   10    0    0     -1.65      0.00
   11    0    0      2.81      0.00
   12    0    0      1.59      0.00
   13    0    0      0.14      0.00
   14    0    0     -1.13      0.00
   15    0    0     -1.27      0.00
  -15    1    0     -1.06      0.00
  -14    1    0     -0.42      0.00
  -13    1    0      0.41      0.00
  -12    1    0      1.56      0.00
  -11    1    0      3.23      0.00
  -10    1    0     -3.16      0.00
   -9    1    0     -2.93      0.00
   -8    1    0      5.75      0.00
   -7    1    0      9.56      0.00
   -6    1    0     -7.88      0.00
   -5    1    0     -4.30      0.00
   -4    1    0     10.94      0.00
   -3    1    0     -8.70      0.00
   -2    1    0    -46.02      0.00
   -1    1    0     41.98      0.00
    2    1    0     -5.64      0.00
    3    1    0      6.12      0.00
    4    1    0      4.34      0.00
    5    1    0     -7.63      0.00
    6    1    0     -1.22      0.00
    7    1    0      5.42      0.00
    8    1    0      2.49      0.00
    9    1    0     -1.27      0.00
   10    1    0     -0.69      0.00
   11    1    0      1.98      0.00
   12    1    0      0.86      0.00
   13    1    0     -0.68      0.00
   14    1    0     -0.93      0.00
   15    1    0     -0.01      0.00
  -14    2    0     -0.32      0.00
  -13    2    0     -0.53      0.00
  -12    2    0      1.69      0.00
  -11    2    0      2.58      0.00
  -10    2    0     -3.98      0.00
   -9    2    0     -1.68      0.00
   -8    2    0      5.95      0.00
   -7    2    0      7.44      0.00
   -6    2    0     -8.79      0.00
   -5    2    0      0.08      0.00
   -4    2    0      9.43      0.00
   -3    2    0    -12.27      0.00
   -2    2    0    -31.18      0.00
   -1    2    0     37.26      0.00
    1    2    0    -12.19      0.00
    2    2    0      9.91      0.00
    3    2    0     -2.37      0.00
    4    2    0      2.47      0.00
    5    2    0     -6.43      0.00
    6    2    0     -1.19      0.00
    7    2    0      1.55      0.00
    8    2    0      2.36      0.00
    9    2    0     -1.17      0.00
   10    2    0      0.54      0.00
   11    2    0      0.99      0.00
   12    2    0     -0.62      0.00
   13    2    0     -0.99      0.00
   14    2    0      0.35      0.00
   15    2    0      1.40      0.00
  -14    3    0     -1.80      0.00
  -13    3    0     -1.09      0.00
  -12    3    0      2.65      0.00
  -11    3    0      1.24      0.00
  -10    3    0     -3.19      0.00
   -9    3    0     -1.60      0.00
   -8    3    0      4.31      0.00
   -7    3    0      4.50      0.00
   -6    3    0     -8.58      0.00
   -5    3    0      3.75      0.00
   -4    3    0      9.11      0.00
   -3    3    0     -7.53      0.00
   -2    3    0    -19.92      0.00
   -1    3    0     12.77      0.00
    0    3    0     -2.94      0.00
    1    3    0      1.85      0.00
    2    3    0      3.97      0.00
    3    3    0     -3.75      0.00
    4    3    0      0.22      0.00
    5    3    0     -8.20      0.00
    6    3    0     -3.16      0.00
    7    3    0     -0.16      0.00
    8    3    0      1.93      0.00
    9    3    0     -1.39      0.00
   10    3    0      1.84      0.00
   11    3    0     -0.55      0.00
   12    3    0     -1.97      0.00
   13    3    0     -0.25      0.00
   14    3    0      0.96      0.00
   15    3    0      1.59      0.00
  -14    4    0     -2.76      0.00
  -13    4    0      0.02      0.00
  -12    4    0      2.54      0.00
  -11    4    0      0.12      0.00
  -10    4    0     -1.97      0.00
   -9    4    0     -1.97      0.00
   -8    4    0      3.45      0.00
   -7    4    0      0.01      0.00
   -6    4    0     -7.29      0.00
   -5    4    0      6.48      0.00
   -4    4    0      7.69      0.00
   -3    4    0     -3.73      0.00
   -2    4    0    -12.21      0.00
   -1    4    0     -1.30      0.00
    0    4    0    -13.65      0.00
    1    4    0      3.33      0.00
    2    4    0      1.41      0.00
    3    4    0     -1.33      0.00
    4    4    0     -5.49      0.00
    5    4    0     -9.75      0.00
    6    4    0     -3.32      0.00
    7    4    0      0.12      0.00
    8    4    0      1.09      0.00
    9    4    0     -1.00      0.00
   10    4    0      2.26      0.00
   11    4    0     -2.12      0.00
   12    4    0     -1.81      0.00
   13    4    0      0.65      0.00
   14    4    0     -0.24      0.00
   15    4    0      1.53      0.00
  -13    5    0      0.01      0.00
  -12    5    0      0.69      0.00
  -11    5    0      0.32      0.00
  -10    5    0     -0.68      0.00
   -9    5    0     -0.76      0.00
   -8    5    0      1.69      0.00
   -7    5    0     -4.64      0.00
   -6    5    0     -3.21      0.00
   -5    5    0      6.72      0.00
   -4    5    0      4.91      0.00
   -3    5    0     -0.23      0.00
   -2    5    0     -5.03      0.00
   -1    5    0     -7.56      0.00
    0    5    0    -15.12      0.00
    1    5    0      3.78      0.00
    2    5    0      1.41      0.00
    3    5    0     -1.14      0.00
    4    5    0     -8.37      0.00
    5    5    0     -7.48      0.00
    6    5    0     -2.43      0.00
    7    5    0      0.35      0.00
    8    5    0      0.50      0.00
    9    5    0      0.03      0.00
   10    5    0      1.47      0.00
   11    5    0     -2.78      0.00
   12    5    0      0.01      0.00
   13    5    0      0.50      0.00
   14    5    0     -1.18      0.00
   15    5    0      1.65      0.00
  -13    6    0     -1.69      0.00
  -12    6    0      0.13      0.00
  -11    6    0      1.07      0.00
  -10    6    0      0.12      0.00
   -9    6    0      0.43      0.00
   -8    6    0     -1.11      0.00
   -7    6    0     -5.39      0.00
   -6    6    0      1.87      0.00
   -5    6    0      4.45      0.00
   -4    6    0      2.87      0.00
   -3    6    0      1.23      0.00
   -2    6    0     -1.11      0.00
   -1    6    0     -7.69      0.00
    0    6    0    -10.57      0.00
    1    6    0      1.37      0.00
    2    6    0     -0.20      0.00
    3    6    0      1.54      0.00
    4    6    0     -6.52      0.00
    5    6    0     -3.96      0.00
    6    6    0     -2.74      0.00
    7    6    0      1.18      0.00
    8    6    0      0.22      0.00
    9    6    0      0.38      0.00
   10    6    0     -0.42      0.00
   11    6    0     -2.05      0.00
   12    6    0      1.93      0.00
   13    6    0     -0.06      0.00
   14    6    0     -0.66      0.00
   15    6    0      0.79      0.00
  -12    7    0      0.66      0.00
  -11    7    0      0.54      0.00
  -10    7    0      0.46      0.00
   -9    7    0      1.16      0.00
   -8    7    0     -2.21      0.00
   -7    7    0     -2.93      0.00
   -6    7    0      4.48      0.00
   -5    7    0      1.17      0.00
   -4    7    0      1.24      0.00
   -3    7    0      0.17      0.00
   -2    7    0      1.86      0.00
   -1    7    0     -4.89      0.00
    0    7    0     -7.64      0.00
    1    7    0     -2.27      0.00
    2    7    0      0.53      0.00
    3    7    0      4.86      0.00
    4    7    0     -3.14      0.00
    5    7    0     -1.89      0.00
    6    7    0     -1.41      0.00
    7    7    0      2.71      0.00
    8    7    0     -1.09      0.00
    9    7    0     -0.40      0.00
   10    7    0     -1.86      0.00
   11    7    0     -0.29      0.00
   12    7    0      2.41      0.00
   13    7    0     -0.36      0.00
   14    7    0     -0.39      0.00
   15    7    0     -0.23      0.00
  -12    8    0     -0.06      0.00
  -11    8    0      0.07      0.00
  -10    8    0      1.08      0.00
   -9    8    0      1.63      0.00
   -8    8    0     -1.90      0.00
   -7    8    0     -0.43      0.00
   -6    8    0      3.73      0.00
   -5    8    0     -0.89      0.00
   -4    8    0      1.29      0.00
   -3    8    0     -0.86      0.00
   -2    8    0      2.57      0.00
   -1    8    0     -3.63      0.00
    0    8    0     -4.82      0.00
    1    8    0     -4.48      0.00
    2    8    0      0.31      0.00
    3    8    0      5.98      0.00
    4    8    0     -0.07      0.00
    5    8    0      0.08      0.00
    6    8    0      2.24      0.00
    7    8    0      2.27      0.00
    8    8    0     -2.13      0.00
    9    8    0     -0.88      0.00
   10    8    0     -1.41      0.00
   11    8    0      1.36      0.00
   12    8    0      1.05      0.00
   13    8    0     -0.65      0.00
   14    8    0     -0.75      0.00
   15    8    0     -0.08      0.00
  -11    9    0      0.31      0.00
  -10    9    0      0.80      0.00
   -9    9    0      1.06      0.00
   -8    9    0     -0.92      0.00
   -7    9    0      0.55      0.00
   -6    9    0      0.87      0.00
   -5    9    0      0.33      0.00
   -4    9    0      2.55      0.00
   -3    9    0     -2.05      0.00
   -2    9    0      1.85      0.00
   -1    9    0     -0.37      0.00
    0    9    0     -2.63      0.00
    1    9    0     -8.58      0.00
    2    9    0     -0.09      0.00
    3    9    0      5.40      0.00
    4    9    0      1.62      0.00
    5    9    0      2.21      0.00
    6    9    0      3.44      0.00
    7    9    0      1.29      0.00
    8    9    0     -1.43      0.00
    9    9    0     -0.77      0.00
   10    9    0      0.26      0.00
   11    9    0      1.65      0.00
   12    9    0     -0.80      0.00
   13    9    0     -0.40      0.00
   14    9    0     -0.90      0.00
   15    9    0      0.19      0.00
  -11   10    0     -0.22      0.00
  -10   10    0     -0.56      0.00
   -9   10    0      0.51      0.00
   -8   10    0      0.33      0.00
   -7   10    0     -0.89      0.00
   -6   10    0     -1.42      0.00
   -5   10    0      2.84      0.00
   -4   10    0      2.05      0.00
   -3   10    0     -1.95      0.00
   -2   10    0      3.40      0.00
   -1   10    0      2.93      0.00
    0   10    0     -4.18      0.00
    1   10    0     -9.79      0.00
    2   10    0      1.08      0.00
    3   10    0      2.47      0.00
    4   10    0      2.62      0.00
    5   10    0      1.87      0.00
    6   10    0      1.91      0.00
    7   10    0      1.94      0.00
    8   10    0     -1.13      0.00
    9   10    0     -0.29      0.00
   10   10    0      0.79      0.00
   11   10    0      0.93      0.00
   12   10    0     -1.17      0.00
   13   10    0      0.06      0.00
   14   10    0     -0.95      0.00
  -10   11    0     -1.54      0.00
   -9   11    0      0.91      0.00
   -8   11    0      0.21      0.00
   -7   11    0     -2.69      0.00
   -6   11    0     -1.48      0.00
   -5   11    0      2.91      0.00
   -4   11    0      0.53      0.00
   -3   11    0     -0.04      0.00
   -2   11    0      4.91      0.00
   -1   11    0      2.96      0.00
    0   11    0     -4.61      0.00
    1   11    0     -6.44      0.00
    2   11    0      0.39      0.00
    3   11    0      0.45      0.00
    4   11    0      3.18      0.00
    5   11    0     -0.72      0.00
    6   11    0      1.05      0.00
    7   11    0      1.78      0.00
    8   11    0     -1.58      0.00
    9   11    0     -0.25      0.00
   10   11    0     -0.31      0.00
   11   11    0      1.16      0.00
   12   11    0     -0.88      0.00
   13   11    0     -0.35      0.00
   14   11    0     -0.52      0.00
   -9   12    0      1.33      0.00
   -8   12    0     -0.84      0.00
   -7   12    0     -1.85      0.00
   -6   12    0     -0.85      0.00
   -5   12    0      1.00      0.00
   -4   12    0     -0.06      0.00
   -3   12    0      1.04      0.00
   -2   12    0      5.38      0.00
   -1   12    0      2.39      0.00
    0   12    0     -2.98      0.00
    1   12    0     -3.95      0.00
    2   12    0     -0.41      0.00
    3   12    0      1.14      0.00
    4   12    0      1.90      0.00
    5   12    0     -2.26      0.00
    6   12    0      1.14      0.00
    7   12    0      0.21      0.00
    8   12    0     -1.52      0.00
    9   12    0     -1.11      0.00
   10   12    0     -0.41      0.00
   11   12    0      1.79      0.00
   12   12    0     -1.42      0.00
   13   12    0     -0.46      0.00
   -8   13    0     -0.77      0.00
   -7   13    0      0.13      0.00
   -6   13    0     -1.09      0.00
   -5   13    0     -0.07      0.00
   -4   13    0     -0.22      0.00
   -3   13    0      1.46      0.00
   -2   13    0      6.29      0.00
   -1   13    0      1.65      0.00
    0   13    0     -2.11      0.00
    1   13    0     -1.82      0.00
    2   13    0      0.70      0.00
    3   13    0      1.20      0.00
    4   13    0     -0.18      0.00
    5   13    0     -1.85      0.00
    6   13    0      1.20      0.00
    7   13    0     -0.84      0.00
    8   13    0     -0.95      0.00
    9   13    0     -1.17      0.00
   10   13    0      0.42      0.00
   11   13    0      1.21      0.00
   12   13    0     -1.17      0.00
   13   13    0      0.14      0.00
   -7   14    0      0.27      0.00
   -6   14    0     -1.19      0.00
   -5   14    0      0.01      0.00
   -4   14    0     -0.63      0.00
   -3   14    0      2.26      0.00
   -2   14    0      5.54      0.00
   -1   14    0      0.48      0.00
    0   14    0     -0.85      0.00
    1   14    0      0.91      0.00
    2   14    0      1.21      0.00
    3   14    0      0.56      0.00
    4   14    0     -1.16      0.00
    5   14    0     -1.10      0.00
    6   14    0      1.03      0.00
    7   14    0     -0.59      0.00
    8   14    0      0.36      0.00
    9   14    0     -0.63      0.00
   10   14    0      0.13      0.00
   11   14    0      0.83      0.00
   12   14    0     -0.02      0.00
   -5   15    0     -0.10      0.00
   -4   15    0     -0.80      0.00
   -3   15    0      2.02      0.00
   -2   15    0      2.32      0.00
   -1   15    0      0.69      0.00
    0   15    0      0.11      0.00
    1   15    0      1.58      0.00
    2   15    0      1.07      0.00
    3   15    0      1.00      0.00
    4   15    0     -1.39      0.00
    5   15    0     -0.62      0.00
    6   15    0      0.77      0.00
    7   15    0      0.64      0.00
    8   15    0      1.03      0.00
    9   15    0     -1.03      0.00
   10   15    0     -0.14      0.00
   11   15    0      0.96      0.00
   -4   16    0     -0.55      0.00
   -3   16    0      0.32      0.00
   -2   16    0      0.09      0.00
   -1   16    0      1.43      0.00
    0   16    0     -1.10      0.00
    1   16    0      0.55      0.00
    2   16    0      1.36      0.00
    3   16    0      1.11      0.00
    4   16    0     -1.05      0.00
    5   16    0      0.24      0.00
    6   16    0      0.44      0.00
    7   16    0      1.04      0.00
    8   16    0     -0.12      0.00
    9   16    0     -1.17      0.00
   10   16    0      0.29      0.00
   -2   17    0      0.39      0.00
   -1   17    0      0.55      0.00
    0   17    0     -2.01      0.00
    1   17    0     -0.15      0.00
    2   17    0      1.01      0.00
    3   17    0      0.10      0.00
    4   17    0      0.45      0.00
    5   17    0      0.80      0.00
    6   17    0     -0.37      0.00
    7   17    0      0.09      0.00
    8   17    0     -1.27      0.00
    3   18    0     -0.38      0.00
    4   18    0      1.72      0.00
   -7  -17    1     -1.39      0.00
   -6  -17    1     -1.85      0.00
   -5  -17    1     -0.11      0.00
   -4  -17    1      1.73      0.00
   -3  -17    1     -0.11      0.00
   -2  -17    1     -0.69      0.00
   -1  -17    1     -0.50      0.00
    0  -17    1     -0.34      0.00
    1  -17    1     -1.90      0.00
   -9  -16    1     -0.04      0.00
   -8  -16    1     -0.42      0.00
   -7  -16    1     -1.24      0.00
   -6  -16    1     -1.18      0.00
   -5  -16    1      0.88      0.00
   -4  -16    1      0.69      0.00
   -3  -16    1     -0.73      0.00
   -2  -16    1      0.47      0.00
   -1  -16    1     -0.32      0.00
    0  -16    1     -2.02      0.00
    1  -16    1     -0.81      0.00
    2  -16    1      0.44      0.00
    3  -16    1     -1.32      0.00
  -10  -15    1      0.11      0.00
   -9  -15    1     -0.42      0.00
   -8  -15    1      0.04      0.00
   -7  -15    1      0.12      0.00
   -6  -15    1     -0.24      0.00
   -5  -15    1      0.80      0.00
   -4  -15    1     -0.79      0.00
   -3  -15    1     -0.59      0.00
   -2  -15    1      0.95      0.00
   -1  -15    1      0.04      0.00
    0  -15    1     -0.91      0.00
    1  -15    1      0.47      0.00
    2  -15    1     -0.77      0.00
    3  -15    1      0.91      0.00
    4  -15    1     -0.35      0.00
    5  -15    1     -1.01      0.00
  -11  -14    1      0.82      0.00
  -10  -14    1     -0.03      0.00
   -9  -14    1     -0.08      0.00
   -8  -14    1      1.25      0.00
   -7  -14    1      0.71      0.00
   -6  -14    1     -0.21      0.00
   -5  -14    1      0.85      0.00
   -4  -14    1     -1.65      0.00
   -3  -14    1     -0.96      0.00
   -2  -14    1      0.73      0.00
   -1  -14    1      1.66      0.00
    0  -14    1      0.72      0.00
    1  -14    1      0.04      0.00
    2  -14    1      1.04      0.00
    3  -14    1      3.63      0.00
    4  -14    1     -1.75      0.00
    5  -14    1     -1.08      0.00
    6  -14    1      0.48      0.00
  -12  -13    1      0.83      0.00
  -11  -13    1     -0.17      0.00
  -10  -13    1      0.93      0.00
   -9  -13    1     -0.05      0.00
   -8  -13    1      1.45      0.00
   -7  -13    1     -0.04      0.00
   -6  -13    1      0.16      0.00
   -5  -13    1      1.16      0.00
   -4  -13    1     -2.93      0.00
   -3  -13    1     -0.81      0.00
   -2  -13    1      1.33      0.00
   -1  -13    1      2.47      0.00
    0  -13    1      0.03      0.00
    1  -13    1     -0.16      0.00
    2  -13    1      4.07      0.00
    3  -13    1      3.80      0.00
    4  -13    1     -1.85      0.00
    5  -13    1     -0.68      0.00
    6  -13    1      0.12      0.00
    7  -13    1     -0.19      0.00
    8  -13    1      0.26      0.00
  -13  -12    1     -0.10      0.00
  -12  -12    1     -0.48      0.00
  -11  -12    1     -0.15      0.00
  -10  -12    1      1.42      0.00
   -9  -12    1     -1.31      0.00
   -8  -12    1      0.82      0.00
   -7  -12    1     -0.76      0.00
   -6  -12    1      1.29      0.00
   -5  -12    1      0.00      0.00
   -4  -12    1     -3.63      0.00
   -3  -12    1      1.12      0.00
   -2  -12    1      1.41      0.00
   -1  -12    1      1.37      0.00
    0  -12    1     -1.54      0.00
    1  -12    1      0.41      0.00
    2  -12    1      4.92      0.00
    3  -12    1      2.91      0.00
    4  -12    1     -1.25      0.00
    5  -12    1     -0.47      0.00
    6  -12    1      0.38      0.00
    7  -12    1     -0.21      0.00
    8  -12    1     -0.43      0.00
    9  -12    1      0.59      0.00
  -13  -11    1     -0.72      0.00
  -12  -11    1     -0.47      0.00
  -11  -11    1      0.07      0.00
  -10  -11    1      0.43      0.00
   -9  -11    1     -1.68      0.00
   -8  -11    1     -0.29      0.00
   -7  -11    1     -0.45      0.00
   -6  -11    1      1.96      0.00
   -5  -11    1     -1.86      0.00
   -4  -11    1     -2.03      0.00
   -3  -11    1      2.20      0.00
   -2  -11    1      0.96      0.00
   -1  -11    1     -0.18      0.00
    0  -11    1     -3.88      0.00
    1  -11    1      0.97      0.00
    2  -11    1      5.02      0.00
    3  -11    1      2.49      0.00
    4  -11    1     -1.67      0.00
    5  -11    1      1.26      0.00
    6  -11    1      0.43      0.00
    7  -11    1     -1.90      0.00
    8  -11    1     -0.62      0.00
    9  -11    1      0.87      0.00
   10  -11    1     -0.87      0.00
  -14  -10    1     -0.02      0.00
  -13  -10    1     -0.28      0.00
  -12  -10    1     -0.24      0.00
  -11  -10    1     -0.64      0.00
  -10  -10    1      0.51      0.00
   -9  -10    1     -1.11      0.00
   -8  -10    1     -1.25      0.00
   -7  -10    1      0.39      0.00
   -6  -10    1      1.60      0.00
   -5  -10    1     -1.52      0.00
   -4  -10    1      0.29      0.00
   -3  -10    1      1.97      0.00
   -2  -10    1      2.29      0.00
   -1  -10    1     -3.94      0.00
    0  -10    1     -6.63      0.00
    1  -10    1      2.85      0.00
    2  -10    1      5.16      0.00
    3  -10    1      1.12      0.00
    4  -10    1     -1.81      0.00
    5  -10    1      4.22      0.00
    6  -10    1     -1.25      0.00
    7  -10    1     -2.63      0.00
    8  -10    1      0.16      0.00
    9  -10    1      0.52      0.00
   10  -10    1     -0.95      0.00
  -14   -9    1     -0.17      0.00
  -13   -9    1      0.23      0.00
  -12   -9    1     -1.35      0.00
  -11   -9    1     -0.17      0.00
  -10   -9    1      1.25      0.00
   -9   -9    1     -1.16      0.00
   -8   -9    1     -1.14      0.00
   -7   -9    1     -0.35      0.00
   -6   -9    1      2.23      0.00
   -5   -9    1      0.57      0.00
   -4   -9    1      1.77      0.00
   -3   -9    1      3.44      0.00
   -2   -9    1      3.36      0.00
   -1   -9    1     -9.08      0.00
    0   -9    1     -5.72      0.00
    1   -9    1      4.03      0.00
    2   -9    1      3.05      0.00
    3   -9    1     -0.46      0.00
    4   -9    1     -0.32      0.00
    5   -9    1      4.55      0.00
    6   -9    1     -3.04      0.00
    7   -9    1     -0.56      0.00
    8   -9    1      0.59      0.00
    9   -9    1      0.19      0.00
   10   -9    1     -0.42      0.00
   11   -9    1     -1.02      0.00
  -14   -8    1     -0.30      0.00
  -13   -8    1     -0.35      0.00
  -12   -8    1     -1.68      0.00
  -11   -8    1      1.56      0.00
  -10   -8    1      0.33      0.00
   -9   -8    1     -1.47      0.00
   -8   -8    1     -1.51      0.00
   -7   -8    1     -1.34      0.00
   -6   -8    1      4.18      0.00
   -5   -8    1      0.89      0.00
   -4   -8    1      3.28      0.00
   -3   -8    1      5.42      0.00
   -2   -8    1      3.03      0.00
   -1   -8    1     -9.84      0.00
    0   -8    1     -2.90      0.00
    1   -8    1      1.11      0.00
    2   -8    1      0.88      0.00
    3   -8    1     -0.10      0.00
    4   -8    1      0.71      0.00
    5   -8    1      1.54      0.00
    6   -8    1     -2.35      0.00
    7   -8    1      2.00      0.00
    8   -8    1     -0.26      0.00
    9   -8    1      0.35      0.00
   10   -8    1      0.91      0.00
   11   -8    1      0.32      0.00
   12   -8    1      0.01      0.00
  -15   -7    1     -0.26      0.00
  -14   -7    1     -0.52      0.00
  -13   -7    1     -0.88      0.00
  -12   -7    1     -0.33      0.00
  -11   -7    1      2.70      0.00
  -10   -7    1     -1.60      0.00
   -9   -7    1     -1.87      0.00
   -8   -7    1     -2.15      0.00
   -7   -7    1      0.08      0.00
   -6   -7    1      3.33      0.00
   -5   -7    1     -0.11      0.00
   -4   -7    1      4.18      0.00
   -3   -7    1      5.66      0.00
   -2   -7    1      3.02      0.00
   -1   -7    1     -7.96      0.00
    0   -7    1     -1.94      0.00
    1   -7    1     -2.88      0.00
    2   -7    1      0.29      0.00
    3   -7    1      0.78      0.00
    4   -7    1      1.16      0.00
    5   -7    1     -0.71      0.00
    6   -7    1      0.38      0.00
    7   -7    1      2.58      0.00
    8   -7    1     -2.03      0.00
    9   -7    1      0.56      0.00
   10   -7    1      1.75      0.00
   11   -7    1      0.67      0.00
   12   -7    1     -0.08      0.00
  -15   -6    1     -0.57      0.00
  -14   -6    1     -0.35      0.00
  -13   -6    1     -1.30      0.00
  -12   -6    1      1.49      0.00
  -11   -6    1      2.63      0.00
  -10   -6    1     -3.08      0.00
   -9   -6    1     -1.47      0.00
   -8   -6    1     -1.31      0.00
   -7   -6    1      1.44      0.00
   -6   -6    1     -0.08      0.00
   -5   -6    1      0.26      0.00
   -4   -6    1      2.73      0.00
   -3   -6    1      4.09      0.00
   -2   -6    1      1.05      0.00
   -1   -6    1     -5.38      0.00
    0   -6    1     -0.70      0.00
    1   -6    1     -8.58      0.00
    2   -6    1     -1.55      0.00
    3   -6    1      2.03      0.00
    4   -6    1      3.08      0.00
    5   -6    1     -0.34      0.00
    6   -6    1      3.06      0.00
    7   -6    1      0.57      0.00
    8   -6    1     -3.85      0.00
    9   -6    1      0.60      0.00
   10   -6    1      1.57      0.00
   11   -6    1      0.95      0.00
   12   -6    1     -0.13      0.00
   13   -6    1     -0.33      0.00
  -15   -5    1      0.38      0.00
  -14   -5    1     -0.83      0.00
  -13   -5    1     -1.50      0.00
  -12   -5    1      2.78      0.00
  -11   -5    1      1.12      0.00
  -10   -5    1     -3.16      0.00
   -9   -5    1      0.15      0.00
   -8   -5    1     -0.55      0.00
   -7   -5    1      1.49      0.00
   -6   -5    1     -1.94      0.00
   -5   -5    1      0.21      0.00
   -4   -5    1     -0.86      0.00
   -3   -5    1      0.71      0.00
   -2   -5    1     -1.30      0.00
   -1   -5    1      0.13      0.00
    0   -5    1     -2.39      0.00
    1   -5    1    -17.67      0.00
    2   -5    1     -2.78      0.00
    3   -5    1      2.71      0.00
    4   -5    1      4.57      0.00
    5   -5    1      1.92      0.00
    6   -5    1      4.02      0.00
    7   -5    1     -3.21      0.00
    8   -5    1     -3.30      0.00
    9   -5    1      0.51      0.00
   10   -5    1      0.80      0.00
   11   -5    1      0.65      0.00
   12   -5    1     -0.86      0.00
   13   -5    1      0.20      0.00
  -15   -4    1      1.33      0.00
  -14   -4    1     -1.46      0.00
  -13   -4    1     -0.49      0.00
  -12   -4    1      2.49      0.00
  -11   -4    1     -1.09      0.00
  -10   -4    1     -1.84      0.00
   -9   -4    1      1.09      0.00
   -8   -4    1     -0.48      0.00
   -7   -4    1      1.56      0.00
   -6   -4    1     -3.27      0.00
   -5   -4    1     -2.00      0.00
   -4   -4    1     -4.17      0.00
   -3   -4    1     -0.63      0.00
   -2   -4    1     -2.95      0.00
   -1   -4    1      4.66      0.00
    0   -4    1     -7.82      0.00
    1   -4    1    -23.34      0.00
    2   -4    1     -3.72      0.00
    3   -4    1     -1.07      0.00
    4   -4    1      5.63      0.00
    5   -4    1      5.55      0.00
    6   -4    1      2.07      0.00
    7   -4    1     -5.45      0.00
    8   -4    1     -0.01      0.00
    9   -4    1     -0.65      0.00
   10   -4    1     -0.44      0.00
   11   -4    1     -0.79      0.00
   12   -4    1      0.07      0.00
   13   -4    1      2.18      0.00
   14   -4    1     -0.42      0.00
  -15   -3    1      1.51      0.00
  -14   -3    1     -0.32      0.00
  -13   -3    1      0.61      0.00
  -12   -3    1      0.90      0.00
  -11   -3    1     -2.21      0.00
  -10   -3    1     -0.34      0.00
   -9   -3    1      0.70      0.00
   -8   -3    1      0.06      0.00
   -7   -3    1      0.52      0.00
   -6   -3    1     -4.75      0.00
   -5   -3    1     -3.79      0.00
   -4   -3    1     -3.78      0.00
   -3   -3    1     -0.42      0.00
   -2   -3    1     -8.44      0.00
   -1   -3    1     11.88      0.00
    0   -3    1    -14.97      0.00
    1   -3    1    -22.36      0.00
    2   -3    1     -5.51      0.00
    3   -3    1     -6.55      0.00
    4   -3    1      7.81      0.00
    5   -3    1      7.74      0.00
    6   -3    1     -1.47      0.00
    7   -3    1     -4.29      0.00
    8   -3    1      3.01      0.00
    9   -3    1     -1.67      0.00
   10   -3    1     -1.68      0.00
   11   -3    1     -1.73      0.00
   12   -3    1      2.31      0.00
   13   -3    1      1.86      0.00
   14   -3    1     -2.24      0.00
  -15   -2    1      1.78      0.00
  -14   -2    1      1.35      0.00
  -13   -2    1      0.37      0.00
  -12   -2    1     -0.21      0.00
  -11   -2    1     -1.74      0.00
  -10   -2    1      0.39      0.00
   -9   -2    1     -0.07      0.00
   -8   -2    1      0.87      0.00
   -7   -2    1     -0.99      0.00
   -6   -2    1     -3.56      0.00
   -5   -2    1     -3.76      0.00
   -4   -2    1     -1.00      0.00
   -3   -2    1     -4.26      0.00
   -2   -2    1     -6.97      0.00
   -1   -2    1     18.75      0.00
    0   -2    1    -29.22      0.00
    1   -2    1     -1.53      0.00
    2   -2    1     -4.00      0.00
    3   -2    1    -13.82      0.00
    4   -2    1      7.75      0.00
    5   -2    1      7.49      0.00
    6   -2    1     -4.48      0.00
    7   -2    1     -1.75      0.00
    8   -2    1      5.59      0.00
    9   -2    1     -1.02      0.00
   10   -2    1     -3.26      0.00
   11   -2    1     -1.36      0.00
   12   -2    1      3.25      0.00
   13   -2    1      0.25      0.00
   14   -2    1     -2.04      0.00
   15   -2    1     -0.20      0.00
  -15   -1    1      1.51      0.00
  -14   -1    1      1.28      0.00
  -13   -1    1     -0.54      0.00
  -12   -1    1     -0.25      0.00
  -11   -1    1     -0.74      0.00
  -10   -1    1      0.44      0.00
   -9   -1    1     -0.55      0.00
   -8   -1    1      1.48      0.00
   -7   -1    1     -0.56      0.00
   -6   -1    1     -0.24      0.00
   -5   -1    1     -4.16      0.00
   -4   -1    1     -0.01      0.00
   -3   -1    1     -4.93      0.00
   -2   -1    1      5.07      0.00
   -1   -1    1     -0.01      0.00
    1   -1    1     49.95      0.00
    2   -1    1    -12.85      0.00
    3   -1    1    -24.19      0.00
    4   -1    1      8.26      0.00
    5   -1    1      6.61      0.00
    6   -1    1     -7.77      0.00
    7   -1    1      1.50      0.00
    8   -1    1      8.21      0.00
    9   -1    1     -1.12      0.00
   10   -1    1     -4.74      0.00
   11   -1    1     -0.08      0.00
   12   -1    1      3.26      0.00
   13   -1    1      0.26      0.00
   14   -1    1     -0.63      0.00
   15   -1    1      0.32      0.00
  -15    0    1      0.12      0.00
  -14    0    1     -0.02      0.00
  -13    0    1     -1.00      0.00
  -12    0    1      0.11      0.00
  -11    0    1      0.12      0.00
  -10    0    1      0.71      0.00
   -9    0    1     -1.38      0.00
   -8    0    1      1.51      0.00
   -7    0    1      2.17      0.00
   -6    0    1      2.13      0.00
   -5    0    1     -6.68      0.00
   -4    0    1      1.22      0.00
   -3    0    1      2.12      0.00
   -2    0    1      0.89      0.00
   -1    0    1    -30.49      0.00
    1    0    1     85.35      0.00
    2    0    1    -37.64      0.00
    3    0    1    -20.67      0.00
    4    0    1     12.96      0.00
    5    0    1      3.22      0.00
    6    0    1    -10.47      0.00
    7    0    1      5.70      0.00
    8    0    1      8.09      0.00
    9    0    1     -2.08      0.00
   10    0    1     -4.51      0.00
   11    0    1      1.01      0.00
   12    0    1      3.37      0.00
   13    0    1      1.19      0.00
   14    0    1     -0.10      0.00
   15    0    1     -0.27      0.00
  -15    1    1     -1.26      0.00
  -14    1    1     -0.78      0.00
  -13    1    1     -0.40      0.00
  -12    1    1      0.30      0.00
  -11    1    1      0.99      0.00
  -10    1    1      0.71      0.00
   -9    1    1     -3.18      0.00
   -8    1    1      2.24      0.00
   -7    1    1      5.94      0.00
   -6    1    1      1.90      0.00
   -5    1    1     -9.50      0.00
   -4    1    1      5.08      0.00
   -3    1    1      3.57      0.00
   -2    1    1    -21.17      0.00
   -1    1    1    -28.35      0.00
    2    1    1    -41.90      0.00
    3    1    1     -0.91      0.00
    4    1    1     13.35      0.00
    5    1    1     -1.53      0.00
    6    1    1     -9.01      0.00
    7    1    1      8.11      0.00
    8    1    1      5.60      0.00
    9    1    1     -1.40      0.00
   10    1    1     -3.53      0.00
   11    1    1      1.45      0.00
   12    1    1      3.22      0.00
   13    1    1      1.26      0.00
   14    1    1     -0.77      0.00
   15    1    1     -0.61      0.00
  -14    2    1      0.09      0.00
  -13    2    1      0.44      0.00
  -12    2    1     -0.08      0.00
  -11    2    1      1.63      0.00
  -10    2    1     -0.46      0.00
   -9    2    1     -3.65      0.00
   -8    2    1      3.82      0.00
   -7    2    1      8.06      0.00
   -6    2    1      0.01      0.00
   -5    2    1     -9.86      0.00
   -4    2    1      8.35      0.00
   -3    2    1     -2.55      0.00
   -2    2    1    -31.27      0.00
   -1    2    1     -6.66      0.00
    0    2    1     86.72      0.00
    1    2    1     24.69      0.00
    2    2    1    -16.27      0.00
    3    2    1      8.57      0.00
    4    2    1      8.72      0.00
    5    2    1     -2.28      0.00
    6    2    1     -5.47      0.00
    7    2    1      6.71      0.00
    8    2    1      3.86      0.00
    9    2    1     -0.29      0.00
   10    2    1     -2.67      0.00
   11    2    1      2.13      0.00
   12    2    1      2.27      0.00
   13    2    1     -0.01      0.00
   14    2    1     -1.12      0.00
   15    2    1      0.33      0.00
  -14    3    1      1.27      0.00
  -13    3    1     -0.26      0.00
  -12    3    1     -0.09      0.00
  -11    3    1      1.87      0.00
  -10    3    1     -1.45      0.00
   -9    3    1     -2.52      0.00
   -8    3    1      3.30      0.00
   -7    3    1      8.34      0.00
   -6    3    1     -1.81      0.00
   -5    3    1     -7.81      0.00
   -4    3    1      9.90      0.00
   -3    3    1     -5.08      0.00
   -2    3    1    -26.48      0.00
   -1    3    1     -0.05      0.00
    0    3    1     50.72      0.00
    1    3    1      8.18      0.00
    2    3    1      2.07      0.00
    3    3    1      4.63      0.00
    4    3    1      6.94      0.00
    5    3    1     -2.52      0.00
    6    3    1     -5.15      0.00
    7    3    1      3.72      0.00
    8    3    1      3.20      0.00
    9    3    1     -0.50      0.00
   10    3    1     -1.28      0.00
   11    3    1      2.89      0.00
   12    3    1      0.29      0.00
   13    3    1     -1.60      0.00
   14    3    1      0.01      0.00
   15    3    1      1.13      0.00
   16    3    1      0.61      0.00
  -14    4    1      0.46      0.00
  -13    4    1     -1.18      0.00
  -12    4    1      0.98      0.00
  -11    4    1      1.42      0.00
  -10    4    1     -1.50      0.00
   -9    4    1     -2.44      0.00
   -8    4    1      1.94      0.00
   -7    4    1      7.88      0.00
   -6    4    1     -4.58      0.00
   -5    4    1     -4.63      0.00
   -4    4    1     10.47      0.00
   -3    4    1     -3.55      0.00
   -2    4    1    -19.82      0.00
   -1    4    1     -2.05      0.00
    0    4    1     21.31      0.00
    1    4    1      0.63      0.00
    2    4    1      5.20      0.00
    3    4    1      3.08      0.00
    4    4    1      4.33      0.00
    5    4    1     -7.59      0.00
    6    4    1     -6.44      0.00
    7    4    1      2.10      0.00
    8    4    1      2.48      0.00
    9    4    1     -1.43      0.00
   10    4    1      0.23      0.00
   11    4    1      2.80      0.00
   12    4    1     -2.17      0.00
   13    4    1     -1.96      0.00
   14    4    1      0.98      0.00
   15    4    1      0.77      0.00
   16    4    1      1.95      0.00
  -13    5    1     -0.55      0.00
  -12    5    1      0.70      0.00
  -11    5    1      0.55      0.00
  -10    5    1     -0.78      0.00
   -9    5    1     -2.44      0.00
   -8    5    1      2.14      0.00
   -7    5    1      4.45      0.00
   -6    5    1     -7.60      0.00
   -5    5    1     -0.50      0.00
   -4    5    1      9.11      0.00
   -3    5    1     -1.39      0.00
   -2    5    1    -12.90      0.00
   -1    5    1     -2.56      0.00
    0    5    1      2.05      0.00
    1    5    1     -3.30      0.00
    2    5    1      6.89      0.00
    3    5    1      2.57      0.00
    4    5    1     -1.56      0.00
    5    5    1    -12.87      0.00
    6    5    1     -5.33      0.00
    7    5    1      1.08      0.00
    8    5    1      1.44      0.00
    9    5    1     -1.87      0.00
   10    5    1      1.65      0.00
   11    5    1      1.57      0.00
   12    5    1     -3.63      0.00
   13    5    1     -1.19      0.00
   14    5    1      0.22      0.00
   15    5    1      0.70      0.00
   16    5    1      2.59      0.00
  -13    6    1     -0.75      0.00
  -12    6    1     -1.18      0.00
  -11    6    1      0.89      0.00
  -10    6    1      0.36      0.00
   -9    6    1     -1.74      0.00
   -8    6    1      1.64      0.00
   -7    6    1     -0.82      0.00
   -6    6    1     -6.85      0.00
   -5    6    1      3.55      0.00
   -4    6    1      6.13      0.00
   -3    6    1      0.47      0.00
   -2    6    1     -7.61      0.00
   -1    6    1     -2.36      0.00
    0    6    1     -6.35      0.00
    1    6    1     -2.77      0.00
    2    6    1      5.48      0.00
    3    6    1      1.69      0.00
    4    6    1     -4.90      0.00
    5    6    1    -13.66      0.00
    6    6    1     -4.04      0.00
    7    6    1     -0.41      0.00
    8    6    1      1.04      0.00
    9    6    1     -1.16      0.00
   10    6    1      2.46      0.00
   11    6    1     -0.49      0.00
   12    6    1     -2.82      0.00
   13    6    1     -0.42      0.00
   14    6    1     -0.64      0.00
   15    6    1      1.09      0.00
  -12    7    1     -1.22      0.00
  -11    7    1      1.49      0.00
  -10    7    1      0.34      0.00
   -9    7    1     -1.35      0.00
   -8    7    1      0.39      0.00
   -7    7    1     -3.53      0.00
   -6    7    1     -2.52      0.00
   -5    7    1      5.22      0.00
   -4    7    1      2.43      0.00
   -3    7    1      0.34      0.00
   -2    7    1     -3.99      0.00
   -1    7    1      0.46      0.00
    0    7    1     -8.13      0.00
    1    7    1     -3.76      0.00
    2    7    1      3.20      0.00
    3    7    1      3.76      0.00
    4    7    1     -4.97      0.00
    5    7    1    -11.69      0.00
    6    7    1     -4.43      0.00
    7    7    1     -0.03      0.00
    8    7    1      0.68      0.00
    9    7    1     -0.58      0.00
   10    7    1      1.50      0.00
   11    7    1     -1.89      0.00
   12    7    1     -0.26      0.00
   13    7    1      0.00      0.00
   14    7    1     -0.33      0.00
   15    7    1      0.40      0.00
  -12    8    1     -0.15      0.00
  -11    8    1      0.42      0.00
  -10    8    1     -0.13      0.00
   -9    8    1     -0.30      0.00
   -8    8    1     -0.26      0.00
   -7    8    1     -3.62      0.00
   -6    8    1      1.50      0.00
   -5    8    1      3.73      0.00
   -4    8    1     -0.11      0.00
   -3    8    1     -0.39      0.00
   -2    8    1     -0.85      0.00
   -1    8    1      1.63      0.00
    0    8    1     -8.81      0.00
    1    8    1     -3.19      0.00
    2    8    1      2.44      0.00
    3    8    1      5.52      0.00
    4    8    1     -3.60      0.00
    5    8    1     -8.59      0.00
    6    8    1     -2.91      0.00
    7    8    1      1.76      0.00
    8    8    1     -1.01      0.00
    9    8    1     -0.92      0.00
   10    8    1     -0.19      0.00
   11    8    1     -1.29      0.00
   12    8    1      1.76      0.00
   13    8    1     -0.07      0.00
   14    8    1     -0.05      0.00
   15    8    1     -0.73      0.00
  -11    9    1     -0.42      0.00
  -10    9    1      0.50      0.00
   -9    9    1      0.67      0.00
   -8    9    1     -0.90      0.00
   -7    9    1     -2.36      0.00
   -6    9    1      2.86      0.00
   -5    9    1      1.52      0.00
   -4    9    1      0.78      0.00
   -3    9    1     -1.12      0.00
   -2    9    1     -0.76      0.00
   -1    9    1      0.55      0.00
    0    9    1     -5.70      0.00
    1    9    1     -2.80      0.00
    2    9    1     -0.50      0.00
    3    9    1      6.57      0.00
    4    9    1     -1.72      0.00
    5    9    1     -3.87      0.00
    6    9    1      0.74      0.00
    7    9    1      1.85      0.00
    8    9    1     -1.83      0.00
    9    9    1     -1.47      0.00
   10    9    1     -0.37      0.00
   11    9    1      0.35      0.00
   12    9    1      1.65      0.00
   13    9    1     -0.57      0.00
   14    9    1     -0.23      0.00
   15    9    1     -0.98      0.00
  -10   10    1      0.63      0.00
   -9   10    1      0.07      0.00
   -8   10    1     -0.27      0.00
   -7   10    1     -1.01      0.00
   -6   10    1      1.34      0.00
   -5   10    1      1.18      0.00
   -4   10    1      2.92      0.00
   -3   10    1     -2.40      0.00
   -2   10    1     -1.16      0.00
   -1   10    1      2.12      0.00
    0   10    1     -2.78      0.00
    1   10    1     -6.28      0.00
    2   10    1     -2.00      0.00
    3   10    1      6.46      0.00
    4   10    1     -0.91      0.00
    5   10    1      1.24      0.00
    6   10    1      2.32      0.00
    7   10    1      1.65      0.00
    8   10    1     -0.76      0.00
    9   10    1     -1.67      0.00
   10   10    1      1.05      0.00
   11   10    1      1.01      0.00
   12   10    1      0.56      0.00
   13   10    1     -0.67      0.00
   14   10    1     -0.47      0.00
   15   10    1     -0.79      0.00
  -10   11    1     -0.37      0.00
   -9   11    1     -0.52      0.00
   -8   11    1      1.58      0.00
   -7   11    1     -1.92      0.00
   -6   11    1     -0.84      0.00
   -5   11    1      1.82      0.00
   -4   11    1      3.10      0.00
   -3   11    1     -2.17      0.00
   -2   11    1      0.60      0.00
   -1   11    1      4.00      0.00
    0   11    1     -3.06      0.00
    1   11    1     -7.26      0.00
    2   11    1     -1.32      0.00
    3   11    1      2.88      0.00
    4   11    1     -0.01      0.00
    5   11    1      3.81      0.00
    6   11    1      1.44      0.00
    7   11    1      2.27      0.00
    8   11    1     -0.34      0.00
    9   11    1     -0.99      0.00
   10   11    1      1.56      0.00
   11   11    1      0.73      0.00
   12   11    1      0.41      0.00
   13   11    1     -0.67      0.00
   14   11    1     -0.64      0.00
   -9   12    1      0.02      0.00
   -8   12    1      1.82      0.00
   -7   12    1     -3.60      0.00
   -6   12    1     -1.33      0.00
   -5   12    1      1.34      0.00
   -4   12    1      1.69      0.00
   -3   12    1     -0.74      0.00
   -2   12    1      2.20      0.00
   -1   12    1      4.26      0.00
    0   12    1     -2.52      0.00
    1   12    1     -5.18      0.00
    2   12    1     -2.20      0.00
    3   12    1     -0.30      0.00
    4   12    1      1.65      0.00
    5   12    1      3.33      0.00
    6   12    1      0.10      0.00
    7   12    1      1.81      0.00
    8   12    1     -0.87      0.00
    9   12    1     -0.43      0.00
   10   12    1      0.36      0.00
   11   12    1      1.16      0.00
   12   12    1      0.50      0.00
   13   12    1     -1.18      0.00
   14   12    1     -0.21      0.00
   -8   13    1      0.37      0.00
   -7   13    1     -2.76      0.00
   -6   13    1     -0.90      0.00
   -5   13    1      0.01      0.00
   -4   13    1      0.22      0.00
   -3   13    1      0.42      0.00
   -2   13    1      3.73      0.00
   -1   13    1      3.90      0.00
    0   13    1     -1.81      0.00
    1   13    1     -4.19      0.00
    2   13    1     -2.24      0.00
    3   13    1     -0.69      0.00
    4   13    1      2.26      0.00
    5   13    1      1.58      0.00
    6   13    1     -0.88      0.00
    7   13    1      0.81      0.00
    8   13    1     -1.56      0.00
    9   13    1     -0.87      0.00
   10   13    1     -0.31      0.00
   11   13    1      1.70      0.00
   12   13    1      0.06      0.00
   13   13    1     -1.23      0.00
   -7   14    1     -0.46      0.00
   -6   14    1     -1.05      0.00
   -5   14    1     -0.65      0.00
   -4   14    1     -0.15      0.00
   -3   14    1      1.90      0.00
   -2   14    1      5.10      0.00
   -1   14    1      2.13      0.00
    0   14    1     -1.84      0.00
    1   14    1     -2.67      0.00
    2   14    1     -0.29      0.00
    3   14    1     -0.62      0.00
    4   14    1      1.69      0.00
    5   14    1     -0.26      0.00
    6   14    1     -0.69      0.00
    7   14    1      0.24      0.00
    8   14    1     -1.82      0.00
    9   14    1     -0.76      0.00
   10   14    1     -0.40      0.00
   11   14    1      1.39      0.00
   12   14    1      0.16      0.00
   -6   15    1     -1.37      0.00
   -5   15    1     -0.27      0.00
   -4   15    1      0.54      0.00
   -3   15    1      2.65      0.00
   -2   15    1      4.18      0.00
   -1   15    1      0.29      0.00
    0   15    1     -0.65      0.00
    2   15    1      1.08      0.00
    3   15    1      0.05      0.00
    4   15    1      0.85      0.00
    5   15    1     -1.49      0.00
    6   15    1      0.15      0.00
    7   15    1      0.04      0.00
    8   15    1     -0.26      0.00
    9   15    1     -0.37      0.00
   10   15    1     -0.97      0.00
   11   15    1      1.19      0.00
   12   15    1      0.29      0.00
   -4   16    1      0.76      0.00
   -3   16    1      1.37      0.00
   -2   16    1      1.66      0.00
   -1   16    1      0.26      0.00
    0   16    1      0.39      0.00
    1   16    1      0.96      0.00
    2   16    1      1.49      0.00
    3   16    1      1.92      0.00
    4   16    1     -0.18      0.00
    5   16    1     -1.42      0.00
    6   16    1      0.49      0.00
    7   16    1      0.67      0.00
    8   16    1      1.50      0.00
    9   16    1     -0.97      0.00
   10   16    1     -0.95      0.00
   -2   17    1      0.07      0.00
   -1   17    1      0.83      0.00
    0   17    1     -0.30      0.00
    1   17    1      0.85      0.00
    2   17    1      1.34      0.00
    3   17    1      2.88      0.00
    4   17    1     -0.88      0.00
    5   17    1      0.05      0.00
    6   17    1      0.26      0.00
    7   17    1      1.14      0.00
    8   17    1      1.12      0.00
    9   17    1     -1.40      0.00
    1   18    1      0.42      0.00
    2   18    1      0.42      0.00
    3   18    1      1.93      0.00
    4   18    1     -0.30      0.00
    5   18    1      1.36      0.00
    6   18    1     -0.50      0.00
   -5  -17    2     -1.76      0.00
   -4  -17    2      1.03      0.00
   -3  -17    2      0.92      0.00
   -2  -17    2     -1.11      0.00
   -1  -17    2     -0.96      0.00
   -8  -16    2      0.81      0.00
   -7  -16    2      0.18      0.00
   -6  -16    2     -3.10      0.00
   -5  -16    2     -1.21      0.00
   -4  -16    2      2.13      0.00
   -3  -16    2      0.25      0.00
   -2  -16    2     -1.52      0.00
   -1  -16    2     -0.44      0.00
    0  -16    2     -0.09      0.00
    1  -16    2     -1.74      0.00
    2  -16    2      1.37      0.00
    3  -16    2     -1.11      0.00
   -9  -15    2     -0.56      0.00
   -8  -15    2      0.42      0.00
   -7  -15    2     -0.43      0.00
   -6  -15    2     -2.66      0.00
   -5  -15    2     -0.07      0.00
   -4  -15    2      1.54      0.00
   -3  -15    2     -0.75      0.00
   -2  -15    2     -0.40      0.00
   -1  -15    2     -0.47      0.00
    0  -15    2     -1.92      0.00
    1  -15    2     -1.05      0.00
    2  -15    2      0.63      0.00
    3  -15    2     -2.63      0.00
    4  -15    2      0.28      0.00
    5  -15    2      0.50      0.00
  -11  -14    2      1.53      0.00
  -10  -14    2     -0.11      0.00
   -9  -14    2     -0.66      0.00
   -8  -14    2      0.40      0.00
   -7  -14    2      0.67      0.00
   -6  -14    2     -1.63      0.00
   -5  -14    2      0.01      0.00
   -4  -14    2      0.78      0.00
   -3  -14    2     -1.29      0.00
   -2  -14    2      0.24      0.00
   -1  -14    2     -0.99      0.00
    0  -14    2     -0.80      0.00
    1  -14    2      0.54      0.00
    2  -14    2     -1.14      0.00
    3  -14    2     -0.66      0.00
    4  -14    2      0.36      0.00
    5  -14    2     -1.23      0.00
    6  -14    2      0.29      0.00
  -11  -13    2      1.35      0.00
  -10  -13    2     -0.43      0.00
   -9  -13    2      0.43      0.00
   -8  -13    2      0.92      0.00
   -7  -13    2      2.20      0.00
   -6  -13    2     -1.39      0.00
   -5  -13    2      0.52      0.00
   -4  -13    2      0.37      0.00
   -3  -13    2     -2.64      0.00
   -2  -13    2      0.24      0.00
   -1  -13    2      0.11      0.00
    0  -13    2      1.53      0.00
    1  -13    2      0.72      0.00
    2  -13    2     -0.40      0.00
    3  -13    2      2.34      0.00
    4  -13    2     -0.58      0.00
    5  -13    2     -1.96      0.00
    6  -13    2      0.45      0.00
    7  -13    2      0.30      0.00
  -12  -12    2      0.20      0.00
  -11  -12    2      0.21      0.00
  -10  -12    2      0.49      0.00
   -9  -12    2      0.75      0.00
   -8  -12    2      1.16      0.00
   -7  -12    2      2.73      0.00
   -6  -12    2     -0.75      0.00
   -5  -12    2      1.58      0.00
   -4  -12    2     -1.41      0.00
   -3  -12    2     -3.33      0.00
   -2  -12    2      1.17      0.00
   -1  -12    2      1.71      0.00
    0  -12    2      2.01      0.00
    1  -12    2      0.47      0.00
    2  -12    2      1.62      0.00
    3  -12    2      3.29      0.00
    4  -12    2     -0.44      0.00
    5  -12    2     -2.39      0.00
    6  -12    2      0.64      0.00
    7  -12    2      0.72      0.00
    8  -12    2     -0.42      0.00
    9  -12    2     -0.04      0.00
  -13  -11    2      0.07      0.00
  -12  -11    2     -0.74      0.00
  -11  -11    2      0.16      0.00
  -10  -11    2      0.51      0.00
   -9  -11    2     -0.23      0.00
   -8  -11    2      1.00      0.00
   -7  -11    2      1.86      0.00
   -6  -11    2      0.74      0.00
   -5  -11    2      1.10      0.00
   -4  -11    2     -3.42      0.00
   -3  -11    2     -1.60      0.00
   -2  -11    2      1.60      0.00
   -1  -11    2      2.66      0.00
    0  -11    2      0.65      0.00
    1  -11    2      0.17      0.00
    2  -11    2      2.98      0.00
    3  -11    2      3.34      0.00
    4  -11    2     -0.43      0.00
    5  -11    2     -3.16      0.00
    6  -11    2      1.96      0.00
    7  -11    2      0.08      0.00
    8  -11    2     -0.56      0.00
    9  -11    2      0.91      0.00
   10  -11    2      0.02      0.00
  -13  -10    2     -0.73      0.00
  -12  -10    2      0.17      0.00
  -11  -10    2     -0.44      0.00
  -10  -10    2     -0.33      0.00
   -9  -10    2     -0.25      0.00
   -8  -10    2     -0.44      0.00
   -7  -10    2      0.89      0.00
   -6  -10    2      1.50      0.00
   -5  -10    2     -0.49      0.00
   -4  -10    2     -3.45      0.00
   -3  -10    2      0.07      0.00
   -2  -10    2      1.53      0.00
   -1  -10    2      3.10      0.00
    0  -10    2     -3.37      0.00
    1  -10    2      0.46      0.00
    2  -10    2      5.10      0.00
    3  -10    2      3.12      0.00
    4  -10    2     -1.98      0.00
    5  -10    2     -1.76      0.00
    6  -10    2      3.00      0.00
    7  -10    2     -2.64      0.00
    8  -10    2     -0.34      0.00
    9  -10    2      1.24      0.00
   10  -10    2     -0.49      0.00
  -14   -9    2      0.52      0.00
  -13   -9    2     -0.18      0.00
  -12   -9    2      0.84      0.00
  -11   -9    2     -2.00      0.00
  -10   -9    2      0.62      0.00
   -9   -9    2     -0.20      0.00
   -8   -9    2     -1.88      0.00
   -7   -9    2      0.58      0.00
   -6   -9    2      0.34      0.00
   -5   -9    2     -0.32      0.00
   -4   -9    2     -2.70      0.00
   -3   -9    2      1.07      0.00
   -2   -9    2      3.05      0.00
   -1   -9    2      0.43      0.00
    0   -9    2     -8.50      0.00
    1   -9    2      3.44      0.00
    2   -9    2      6.78      0.00
    3   -9    2      1.43      0.00
    4   -9    2     -2.71      0.00
    5   -9    2      1.81      0.00
    6   -9    2      1.27      0.00
    7   -9    2     -4.80      0.00
    8   -9    2      0.81      0.00
    9   -9    2      1.05      0.00
   10   -9    2     -0.85      0.00
   11   -9    2     -2.33      0.00
  -14   -8    2      0.38      0.00
  -13   -8    2      0.40      0.00
  -12   -8    2     -0.32      0.00
  -11   -8    2     -1.98      0.00
  -10   -8    2      1.94      0.00
   -9   -8    2     -1.02      0.00
   -8   -8    2     -1.53      0.00
   -7   -8    2     -1.05      0.00
   -6   -8    2     -0.03      0.00
   -5   -8    2      1.03      0.00
   -4   -8    2     -2.07      0.00
   -3   -8    2      3.56      0.00
   -2   -8    2      4.51      0.00
   -1   -8    2     -4.29      0.00
    0   -8    2     -9.76      0.00
    1   -8    2      6.43      0.00
    2   -8    2      5.11      0.00
    3   -8    2     -0.03      0.00
    4   -8    2     -1.33      0.00
    5   -8    2      3.30      0.00
    6   -8    2     -2.02      0.00
    7   -8    2     -3.72      0.00
    8   -8    2      2.12      0.00
    9   -8    2      0.55      0.00
   10   -8    2     -0.82      0.00
   11   -8    2     -2.07      0.00
   12   -8    2      0.19      0.00
  -14   -7    2     -0.20      0.00
  -13   -7    2      0.00      0.00
  -12   -7    2     -1.38      0.00
  -11   -7    2     -0.45      0.00
  -10   -7    2      1.88      0.00
   -9   -7    2     -1.93      0.00
   -8   -7    2     -1.52      0.00
   -7   -7    2     -2.72      0.00
   -6   -7    2      1.70      0.00
   -5   -7    2      0.19      0.00
   -4   -7    2      0.26      0.00
   -3   -7    2      6.02      0.00
   -2   -7    2      5.10      0.00
   -1   -7    2     -6.48      0.00
    0   -7    2     -8.08      0.00
    1   -7    2      6.49      0.00
    2   -7    2      2.19      0.00
    3   -7    2      0.17      0.00
    4   -7    2     -0.30      0.00
    5   -7    2      1.85      0.00
    6   -7    2     -3.65      0.00
    7   -7    2     -0.62      0.00
    8   -7    2      2.19      0.00
    9   -7    2     -0.03      0.00
   10   -7    2      0.31      0.00
   11   -7    2     -0.66      0.00
   12   -7    2      0.66      0.00
  -14   -6    2     -0.80      0.00
  -13   -6    2     -0.63      0.00
  -12   -6    2     -1.56      0.00
  -11   -6    2      1.65      0.00
  -10   -6    2      1.01      0.00
   -9   -6    2     -3.34      0.00
   -8   -6    2     -1.84      0.00
   -7   -6    2     -2.01      0.00
   -6   -6    2      1.86      0.00
   -5   -6    2     -1.34      0.00
   -4   -6    2      3.71      0.00
   -3   -6    2      6.35      0.00
   -2   -6    2      5.20      0.00
   -1   -6    2     -7.39      0.00
    0   -6    2     -4.88      0.00
    1   -6    2      5.10      0.00
    2   -6    2     -1.81      0.00
    3   -6    2      0.76      0.00
    4   -6    2      1.04      0.00
    5   -6    2      0.91      0.00
    6   -6    2     -3.08      0.00
    7   -6    2      1.99      0.00
    8   -6    2      0.30      0.00
    9   -6    2     -0.51      0.00
   10   -6    2      1.30      0.00
   11   -6    2      0.46      0.00
   12   -6    2      0.72      0.00
   13   -6    2     -0.42      0.00
  -15   -5    2     -0.67      0.00
  -14   -5    2     -0.67      0.00
  -13   -5    2     -1.80      0.00
  -12   -5    2     -0.68      0.00
  -11   -5    2      3.66      0.00
  -10   -5    2     -0.75      0.00
   -9   -5    2     -3.83      0.00
   -8   -5    2     -0.83      0.00
   -7   -5    2     -0.98      0.00
   -6   -5    2      0.52      0.00
   -5   -5    2     -0.88      0.00
   -4   -5    2      5.09      0.00
   -3   -5    2      4.77      0.00
   -2   -5    2      3.14      0.00
   -1   -5    2     -6.73      0.00
    0   -5    2      0.87      0.00
    1   -5    2     -1.28      0.00
    2   -5    2     -8.22      0.00
    3   -5    2      3.07      0.00
    4   -5    2      3.79      0.00
    5   -5    2      0.97      0.00
    6   -5    2     -1.11      0.00
    7   -5    2      2.63      0.00
    8   -5    2     -2.68      0.00
    9   -5    2     -0.45      0.00
   10   -5    2      1.16      0.00
   11   -5    2      1.64      0.00
   12   -5    2     -0.28      0.00
   13   -5    2     -1.75      0.00
   14   -5    2      0.53      0.00
  -15   -4    2      0.19      0.00
  -14   -4    2     -1.09      0.00
  -13   -4    2     -2.69      0.00
  -12   -4    2      1.16      0.00
  -11   -4    2      3.71      0.00
  -10   -4    2     -2.52      0.00
   -9   -4    2     -2.06      0.00
   -8   -4    2     -0.02      0.00
   -7   -4    2     -0.15      0.00
   -6   -4    2     -0.31      0.00
   -5   -4    2     -0.78      0.00
   -4   -4    2      3.87      0.00
   -3   -4    2      2.38      0.00
   -2   -4    2      1.55      0.00
   -1   -4    2     -4.38      0.00
    0   -4    2      5.74      0.00
    1   -4    2    -13.78      0.00
    2   -4    2    -13.13      0.00
    3   -4    2      4.75      0.00
    4   -4    2      4.60      0.00
    5   -4    2      2.14      0.00
    6   -4    2      1.67      0.00
    7   -4    2      0.72      0.00
    8   -4    2     -3.95      0.00
    9   -4    2     -0.02      0.00
   10   -4    2      0.07      0.00
   11   -4    2      1.92      0.00
   12   -4    2     -2.15      0.00
   13   -4    2     -0.80      0.00
   14   -4    2      2.13      0.00
  -15   -3    2      0.82      0.00
  -14   -3    2     -1.69      0.00
  -13   -3    2     -1.62      0.00
  -12   -3    2      2.07      0.00
  -11   -3    2      1.84      0.00
  -10   -3    2     -2.83      0.00
   -9   -3    2      0.00      0.00
   -8   -3    2      0.02      0.00
   -7   -3    2      0.89      0.00
   -6   -3    2     -2.73      0.00
   -5   -3    2     -1.73      0.00
   -4   -3    2      1.93      0.00
   -3   -3    2      2.23      0.00
   -2   -3    2     -1.06      0.00
   -1   -3    2     -3.35      0.00
    0   -3    2     11.99      0.00
    1   -3    2    -29.19      0.00
    2   -3    2    -16.48      0.00
    3   -3    2      1.56      0.00
    4   -3    2      4.93      0.00
    5   -3    2      5.33      0.00
    6   -3    2      2.93      0.00
    7   -3    2     -2.04      0.00
    8   -3    2     -2.50      0.00
    9   -3    2     -0.39      0.00
   10   -3    2     -1.29      0.00
   11   -3    2      0.74      0.00
   12   -3    2     -2.08      0.00
   13   -3    2      1.53      0.00
   14   -3    2      1.58      0.00
  -15   -2    2      0.76      0.00
  -14   -2    2     -0.71      0.00
  -13   -2    2      0.31      0.00
  -12   -2    2      1.39      0.00
  -11   -2    2      0.28      0.00
  -10   -2    2     -2.14      0.00
   -9   -2    2      0.79      0.00
   -8   -2    2      0.12      0.00
   -7   -2    2      0.47      0.00
   -6   -2    2     -5.74      0.00
   -5   -2    2     -1.54      0.00
   -4   -2    2      0.86      0.00
   -3   -2    2      2.78      0.00
   -2   -2    2     -9.94      0.00
   -1   -2    2      6.46      0.00
    0   -2    2     13.49      0.00
    1   -2    2    -47.96      0.00
    2   -2    2    -13.17      0.00
    3   -2    2     -3.04      0.00
    4   -2    2      6.13      0.00
    5   -2    2      7.36      0.00
    6   -2    2      2.27      0.00
    7   -2    2     -3.52      0.00
    8   -2    2     -0.01      0.00
    9   -2    2     -0.53      0.00
   10   -2    2     -2.31      0.00
   11   -2    2     -0.73      0.00
   12   -2    2     -0.32      0.00
   13   -2    2      1.62      0.00
   14   -2    2     -0.44      0.00
   15   -2    2     -1.78      0.00
  -15   -1    2      0.77      0.00
  -14   -1    2      0.81      0.00
  -13   -1    2      1.28      0.00
  -12   -1    2      0.45      0.00
  -11   -1    2     -0.27      0.00
  -10   -1    2     -1.57      0.00
   -9   -1    2      0.81      0.00
   -8   -1    2      0.37      0.00
   -7   -1    2     -0.55      0.00
   -6   -1    2     -6.11      0.00
   -5   -1    2     -0.49      0.00
   -4   -1    2      0.62      0.00
   -3   -1    2     -0.34      0.00
   -2   -1    2    -13.16      0.00
   -1   -1    2     22.70      0.00
    0   -1    2     -9.23      0.00
    1   -1    2    -45.43      0.00
    2   -1    2      3.86      0.00
    3   -1    2    -13.28      0.00
    4   -1    2      4.06      0.00
    5   -1    2      8.08      0.00
    6   -1    2      1.16      0.00
    7   -1    2     -4.02      0.00
    8   -1    2      3.62      0.00
    9   -1    2      0.28      0.00
   10   -1    2     -3.64      0.00
   11   -1    2     -1.59      0.00
   12   -1    2      1.12      0.00
   13   -1    2      0.45      0.00
   14   -1    2     -1.08      0.00
   15   -1    2     -0.70      0.00
  -14    0    2      0.95      0.00
  -13    0    2      1.04      0.00
  -12    0    2     -0.16      0.00
  -11    0    2     -0.62      0.00
  -10    0    2     -0.99      0.00
   -9    0    2      0.89      0.00
   -8    0    2      0.45      0.00
   -7    0    2     -0.56      0.00
   -6    0    2     -4.06      0.00
   -5    0    2      0.34      0.00
   -4    0    2     -0.30      0.00
   -3    0    2     -1.56      0.00
   -2    0    2     -4.51      0.00
   -1    0    2     16.03      0.00
    0    0    2    -31.83      0.00
    1    0    2      3.58      0.00
    2    0    2     10.83      0.00
    3    0    2    -30.79      0.00
    4    0    2      4.33      0.00
    5    0    2      9.88      0.00
    6    0    2     -2.26      0.00
    7    0    2     -3.10      0.00
    8    0    2      7.92      0.00
    9    0    2     -0.10      0.00
   10    0    2     -4.71      0.00
   11    0    2     -1.60      0.00
   12    0    2      2.07      0.00
   13    0    2      0.50      0.00
   14    0    2     -0.11      0.00
   15    0    2      0.33      0.00
  -14    1    2     -0.44      0.00
  -13    1    2      0.36      0.00
  -12    1    2     -0.32      0.00
  -11    1    2     -0.91      0.00
  -10    1    2      0.12      0.00
   -9    1    2      0.16      0.00
   -8    1    2     -0.06      0.00
   -7    1    2      0.89      0.00
   -6    1    2     -0.79      0.00
   -5    1    2     -0.46      0.00
   -4    1    2     -1.50      0.00
   -3    1    2      3.25      0.00
   -2    1    2     -3.16      0.00
   -1    1    2     -9.09      0.00
    0    1    2    -11.88      0.00
    2    1    2     -7.42      0.00
    3    1    2    -32.81      0.00
    4    1    2     11.03      0.00
    5    1    2      8.75      0.00
    6    1    2     -6.99      0.00
    7    1    2      0.51      0.00
    8    1    2      9.56      0.00
    9    1    2     -1.10      0.00
   10    1    2     -4.24      0.00
   11    1    2     -1.53      0.00
   12    1    2      2.74      0.00
   13    1    2      1.60      0.00
   14    1    2      0.55      0.00
   15    1    2      0.15      0.00
  -14    2    2     -1.91      0.00
  -13    2    2      0.81      0.00
  -12    2    2     -0.09      0.00
  -11    2    2     -0.91      0.00
  -10    2    2      0.69      0.00
   -9    2    2     -1.67      0.00
   -8    2    2      0.46      0.00
   -7    2    2      3.22      0.00
   -6    2    2      1.88      0.00
   -5    2    2     -3.39      0.00
   -4    2    2     -0.87      0.00
   -3    2    2      6.42      0.00
   -2    2    2    -13.69      0.00
   -1    2    2    -19.18      0.00
    0    2    2     25.24      0.00
    1    2    2     65.49      0.00
    2    2    2    -18.84      0.00
    3    2    2    -14.35      0.00
    4    2    2     13.65      0.00
    5    2    2      5.36      0.00
    6    2    2     -7.16      0.00
    7    2    2      4.07      0.00
    8    2    2      8.13      0.00
    9    2    2     -0.51      0.00
   10    2    2     -3.43      0.00
   11    2    2     -1.41      0.00
   12    2    2      3.21      0.00
   13    2    2      2.15      0.00
   14    2    2     -0.40      0.00
   15    2    2      0.08      0.00
   16    2    2      0.32      0.00
  -14    3    2     -1.33      0.00
  -13    3    2      2.02      0.00
  -12    3    2     -0.20      0.00
  -11    3    2     -0.57      0.00
  -10    3    2      0.13      0.00
   -9    3    2     -2.20      0.00
   -8    3    2      1.58      0.00
   -7    3    2      4.19      0.00
   -6    3    2      3.51      0.00
   -5    3    2     -5.91      0.00
   -4    3    2      1.42      0.00
   -3    3    2      4.65      0.00
   -2    3    2    -20.44      0.00
   -1    3    2    -15.57      0.00
    0    3    2     37.09      0.00
    1    3    2     48.35      0.00
    2    3    2    -10.33      0.00
    3    3    2     -0.23      0.00
    4    3    2     11.04      0.00
    5    3    2      5.72      0.00
    6    3    2     -4.53      0.00
    7    3    2      4.22      0.00
    8    3    2      6.42      0.00
    9    3    2      0.58      0.00
   10    3    2     -2.97      0.00
   11    3    2     -0.15      0.00
   12    3    2      3.49      0.00
   13    3    2      0.90      0.00
   14    3    2     -1.54      0.00
   15    3    2      1.15      0.00
   16    3    2      0.15      0.00
  -13    4    2      1.65      0.00
  -12    4    2      0.02      0.00
  -11    4    2      0.20      0.00
  -10    4    2     -0.50      0.00
   -9    4    2     -1.67      0.00
   -8    4    2      0.62      0.00
   -7    4    2      4.90      0.00
   -6    4    2      4.66      0.00
   -5    4    2     -7.24      0.00
   -4    4    2      3.71      0.00
   -3    4    2      2.40      0.00
   -2    4    2    -19.61      0.00
   -1    4    2    -13.29      0.00
    0    4    2     30.43      0.00
    1    4    2     29.70      0.00
    2    4    2     -2.89      0.00
    3    4    2      4.08      0.00
    4    4    2      9.85      0.00
    5    4    2      5.71      0.00
    6    4    2     -5.49      0.00
    7    4    2      2.86      0.00
    8    4    2      5.31      0.00
    9    4    2      0.58      0.00
   10    4    2     -2.50      0.00
   11    4    2      1.85      0.00
   12    4    2      2.91      0.00
   13    4    2     -1.50      0.00
   14    4    2     -1.00      0.00
   15    4    2      1.69      0.00
   16    4    2     -0.02      0.00
  -13    5    2      0.46      0.00
  -12    5    2      1.04      0.00
  -11    5    2      0.32      0.00
  -10    5    2     -0.83      0.00
   -9    5    2     -1.73      0.00
   -8    5    2     -0.45      0.00
   -7    5    2      6.44      0.00
   -6    5    2      2.52      0.00
   -5    5    2     -8.18      0.00
   -4    5    2      5.56      0.00
   -3    5    2      1.76      0.00
   -2    5    2    -15.03      0.00
   -1    5    2    -11.27      0.00
    0    5    2     19.57      0.00
    1    5    2     12.17      0.00
    2    5    2      0.68      0.00
    3    5    2      6.54      0.00
    4    5    2      7.30      0.00
    5    5    2      0.00      0.00
    6    5    2     -8.17      0.00
    7    5    2      2.58      0.00
    8    5    2      3.79      0.00
    9    5    2     -0.43      0.00
   10    5    2     -2.11      0.00
   11    5    2      3.53      0.00
   12    5    2      0.90      0.00
   13    5    2     -3.06      0.00
   14    5    2     -0.05      0.00
   15    5    2      0.88      0.00
   16    5    2      1.05      0.00
  -13    6    2      0.26      0.00
  -12    6    2      0.59      0.00
  -11    6    2     -0.39      0.00
  -10    6    2     -0.13      0.00
   -9    6    2     -1.44      0.00
   -8    6    2     -0.21      0.00
   -7    6    2      5.55      0.00
   -6    6    2     -2.54      0.00
   -5    6    2     -6.65      0.00
   -4    6    2      6.80      0.00
   -3    6    2      2.21      0.00
   -2    6    2     -9.88      0.00
   -1    6    2     -9.52      0.00
    0    6    2      9.24      0.00
    1    6    2      1.96      0.00
    2    6    2      3.68      0.00
    3    6    2      6.06      0.00
    4    6    2      3.14      0.00
    5    6    2     -7.09      0.00
    6    6    2     -8.42      0.00
    7    6    2      1.55      0.00
    8    6    2      2.16      0.00
    9    6    2     -1.41      0.00
   10    6    2     -0.90      0.00
   11    6    2      3.82      0.00
   12    6    2     -1.78      0.00
   13    6    2     -2.87      0.00
   14    6    2     -0.53      0.00
   15    6    2      0.46      0.00
   16    6    2      1.90      0.00
  -12    7    2     -1.05      0.00
  -11    7    2     -0.10      0.00
  -10    7    2      1.20      0.00
   -9    7    2     -1.45      0.00
   -8    7    2     -0.54      0.00
   -7    7    2      2.58      0.00
   -6    7    2     -5.16      0.00
   -5    7    2     -2.06      0.00
   -4    7    2      6.06      0.00
   -3    7    2      1.77      0.00
   -2    7    2     -7.12      0.00
   -1    7    2     -6.66      0.00
    0    7    2      4.26      0.00
    1    7    2     -3.04      0.00
    2    7    2      3.14      0.00
    3    7    2      5.39      0.00
    4    7    2      0.94      0.00
    5    7    2    -11.35      0.00
    6    7    2     -8.23      0.00
    7    7    2     -0.64      0.00
    8    7    2      1.76      0.00
    9    7    2     -1.68      0.00
   10    7    2      0.87      0.00
   11    7    2      2.10      0.00
   12    7    2     -2.90      0.00
   13    7    2     -1.50      0.00
   14    7    2     -1.35      0.00
   15    7    2      0.79      0.00
   16    7    2      0.97      0.00
  -12    8    2     -0.92      0.00
  -11    8    2      0.36      0.00
  -10    8    2      1.03      0.00
   -9    8    2     -1.96      0.00
   -8    8    2     -0.72      0.00
   -7    8    2      0.15      0.00
   -6    8    2     -4.11      0.00
   -5    8    2      2.17      0.00
   -4    8    2      2.81      0.00
   -3    8    2      0.45      0.00
   -2    8    2     -4.78      0.00
   -1    8    2     -1.68      0.00
    0    8    2      0.39      0.00
    1    8    2     -6.39      0.00
    2    8    2      3.65      0.00
    3    8    2      5.87      0.00
    4    8    2     -0.03      0.00
    5    8    2    -12.96      0.00
    6    8    2     -8.55      0.00
    7    8    2     -0.84      0.00
    8    8    2      1.13      0.00
    9    8    2     -1.91      0.00
   10    8    2      1.16      0.00
   11    8    2     -0.04      0.00
   12    8    2     -1.59      0.00
   13    8    2      0.00      0.00
   14    8    2     -1.17      0.00
   15    8    2      0.41      0.00
  -11    9    2     -0.39      0.00
  -10    9    2      0.41      0.00
   -9    9    2     -1.08      0.00
   -8    9    2     -0.91      0.00
   -7    9    2     -1.66      0.00
   -6    9    2     -1.76      0.00
   -5    9    2      3.63      0.00
   -4    9    2      0.18      0.00
   -3    9    2      0.30      0.00
   -2    9    2     -3.06      0.00
   -1    9    2     -0.08      0.00
    0    9    2     -2.81      0.00
    1    9    2     -4.55      0.00
    2    9    2      3.92      0.00
    3    9    2      5.19      0.00
    4    9    2      0.43      0.00
    5    9    2    -12.17      0.00
    6    9    2     -6.20      0.00
    7    9    2      0.30      0.00
    8    9    2     -0.98      0.00
    9    9    2     -2.29      0.00
   10    9    2     -0.15      0.00
   11    9    2     -0.43      0.00
   12    9    2      0.21      0.00
   13    9    2      0.65      0.00
   14    9    2     -0.61      0.00
   15    9    2     -0.52      0.00
  -10   10    2      0.73      0.00
   -9   10    2     -0.19      0.00
   -8   10    2     -1.83      0.00
   -7   10    2     -1.58      0.00
   -6   10    2     -0.31      0.00
   -5   10    2      3.25      0.00
   -4   10    2      0.63      0.00
   -3   10    2      0.18      0.00
   -2   10    2     -3.81      0.00
   -1   10    2     -0.60      0.00
    0   10    2     -1.74      0.00
    1   10    2     -3.25      0.00
    2   10    2      0.78      0.00
    3   10    2      5.98      0.00
    4   10    2      1.37      0.00
    5   10    2     -8.64      0.00
    6   10    2     -1.49      0.00
    7   10    2      0.44      0.00
    8   10    2     -1.77      0.00
    9   10    2     -2.68      0.00
   10   10    2     -0.84      0.00
   11   10    2      0.61      0.00
   12   10    2      0.62      0.00
   13   10    2      0.36      0.00
   14   10    2     -0.28      0.00
   15   10    2     -0.98      0.00
  -10   11    2      0.55      0.00
   -9   11    2     -0.74      0.00
   -8   11    2     -0.92      0.00
   -7   11    2     -0.21      0.00
   -6   11    2     -1.20      0.00
   -5   11    2      2.64      0.00
   -4   11    2      2.33      0.00
   -3   11    2     -0.47      0.00
   -2   11    2     -3.86      0.00
   -1   11    2      0.47      0.00
    0   11    2     -0.78      0.00
    1   11    2     -5.36      0.00
    2   11    2     -0.78      0.00
    3   11    2      6.51      0.00
    4   11    2      0.46      0.00
    5   11    2     -3.43      0.00
    6   11    2      2.19      0.00
    7   11    2      0.76      0.00
    8   11    2     -0.71      0.00
    9   11    2     -2.83      0.00
   10   11    2      0.28      0.00
   11   11    2      1.23      0.00
   12   11    2      0.29      0.00
   13   11    2     -0.07      0.00
   14   11    2     -0.24      0.00
   15   11    2     -0.91      0.00
   -9   12    2     -1.14      0.00
   -8   12    2      1.54      0.00
   -7   12    2     -0.76      0.00
   -6   12    2     -2.86      0.00
   -5   12    2      1.91      0.00
   -4   12    2      3.22      0.00
   -3   12    2     -0.61      0.00
   -2   12    2     -2.37      0.00
   -1   12    2      1.85      0.00
    0   12    2     -1.09      0.00
    1   12    2     -5.17      0.00
    2   12    2     -1.12      0.00
    3   12    2      3.54      0.00
    4   12    2     -0.67      0.00
    5   12    2      1.13      0.00
    6   12    2      3.64      0.00
    7   12    2      0.95      0.00
    8   12    2     -0.09      0.00
    9   12    2     -1.86      0.00
   10   12    2      1.34      0.00
   11   12    2      1.05      0.00
   12   12    2      0.43      0.00
   13   12    2     -0.40      0.00
   14   12    2     -0.33      0.00
   -8   13    2      2.30      0.00
   -7   13    2     -2.38      0.00
   -6   13    2     -3.10      0.00
   -5   13    2      0.79      0.00
   -4   13    2      2.61      0.00
   -3   13    2     -1.13      0.00
   -2   13    2     -0.30      0.00
   -1   13    2      3.39      0.00
    0   13    2     -0.93      0.00
    1   13    2     -3.66      0.00
    2   13    2     -2.52      0.00
    3   13    2      0.57      0.00
    4   13    2     -0.63      0.00
    5   13    2      3.72      0.00
    6   13    2      2.56      0.00
    7   13    2     -0.02      0.00
    8   13    2      0.08      0.00
    9   13    2     -0.95      0.00
   10   13    2      1.06      0.00
   11   13    2      1.07      0.00
   12   13    2      0.68      0.00
   13   13    2     -0.58      0.00
   14   13    2     -0.24      0.00
   -7   14    2     -2.22      0.00
   -6   14    2     -2.21      0.00
   -5   14    2     -0.29      0.00
   -4   14    2      0.73      0.00
   -3   14    2     -0.67      0.00
   -2   14    2      2.93      0.00
   -1   14    2      3.74      0.00
    0   14    2     -2.09      0.00
    1   14    2     -3.17      0.00
    2   14    2     -2.36      0.00
    3   14    2     -0.68      0.00
    4   14    2     -0.02      0.00
    5   14    2      3.85      0.00
    6   14    2     -0.02      0.00
    7   14    2     -0.23      0.00
    8   14    2     -0.49      0.00
    9   14    2     -1.05      0.00
   10   14    2      0.70      0.00
   11   14    2      1.06      0.00
   12   14    2      0.91      0.00
   13   14    2     -0.43      0.00
   -6   15    2     -1.43      0.00
   -5   15    2     -0.96      0.00
   -4   15    2     -0.02      0.00
   -3   15    2      2.08      0.00
   -2   15    2      4.79      0.00
   -1   15    2      1.76      0.00
    0   15    2     -3.11      0.00
    1   15    2     -2.26      0.00
    2   15    2     -0.58      0.00
    3   15    2     -1.27      0.00
    4   15    2      0.97      0.00
    5   15    2      1.64      0.00
    6   15    2     -1.18      0.00
    7   15    2      0.26      0.00
    8   15    2     -1.49      0.00
    9   15    2     -0.51      0.00
   10   15    2      0.29      0.00
   11   15    2      0.73      0.00
   12   15    2      1.23      0.00
   -4   16    2      1.18      0.00
   -3   16    2      3.55      0.00
   -2   16    2      3.61      0.00
   -1   16    2      0.24      0.00
    0   16    2     -2.21      0.00
    1   16    2     -1.07      0.00
    2   16    2      1.14      0.00
    3   16    2     -0.44      0.00
    4   16    2      1.89      0.00
    5   16    2     -1.07      0.00
    6   16    2     -0.58      0.00
    7   16    2      0.16      0.00
    8   16    2     -0.60      0.00
    9   16    2      0.35      0.00
   10   16    2     -0.49      0.00
   11   16    2      0.51      0.00
   -2   17    2      1.66      0.00
   -1   17    2      0.04      0.00
    0   17    2     -1.16      0.00
    1   17    2     -0.12      0.00
    2   17    2      2.18      0.00
    3   17    2      1.59      0.00
    4   17    2      1.86      0.00
    5   17    2     -2.22      0.00
    6   17    2      0.38      0.00
    7   17    2      0.25      0.00
    8   17    2      1.11      0.00
    9   17    2      0.13      0.00
   10   17    2     -0.60      0.00
    0   18    2     -0.79      0.00
    1   18    2      0.52      0.00
    2   18    2      1.72      0.00
    3   18    2      2.68      0.00
    4   18    2      0.98      0.00
    5   18    2     -1.05      0.00
    6   18    2      0.93      0.00
    7   18    2      0.32      0.00
   -6  -16    3      0.65      0.00
   -5  -16    3     -2.71      0.00
   -4  -16    3      0.34      0.00
   -3  -16    3      1.39      0.00
   -2  -16    3     -1.23      0.00
   -1  -16    3     -1.31      0.00
    0  -16    3      0.57      0.00
    1  -16    3      0.98      0.00
    2  -16    3      0.47      0.00
   -8  -15    3      0.24      0.00
   -7  -15    3      0.95      0.00
   -6  -15    3     -1.23      0.00
   -5  -15    3     -2.79      0.00
   -4  -15    3      1.62      0.00
   -3  -15    3      1.11      0.00
   -2  -15    3     -1.83      0.00
   -1  -15    3     -0.10      0.00
    0  -15    3     -0.55      0.00
    1  -15    3     -1.54      0.00
    2  -15    3      1.72      0.00
    3  -15    3      0.43      0.00
    4  -15    3     -1.59      0.00
  -10  -14    3      0.63      0.00
   -9  -14    3     -0.74      0.00
   -8  -14    3      0.11      0.00
   -7  -14    3     -0.16      0.00
   -6  -14    3     -1.64      0.00
   -5  -14    3     -2.18      0.00
   -4  -14    3      1.62      0.00
   -3  -14    3      0.65      0.00
   -2  -14    3     -0.95      0.00
   -1  -14    3      0.53      0.00
    0  -14    3     -2.82      0.00
    1  -14    3     -1.50      0.00
    2  -14    3      1.46      0.00
    3  -14    3     -2.09      0.00
    4  -14    3     -0.84      0.00
    5  -14    3      0.29      0.00
    6  -14    3      0.68      0.00
  -11  -13    3      1.18      0.00
  -10  -13    3      0.16      0.00
   -9  -13    3     -1.15      0.00
   -8  -13    3      0.26      0.00
   -7  -13    3      0.01      0.00
   -6  -13    3     -1.06      0.00
   -5  -13    3     -2.13      0.00
   -4  -13    3      1.69      0.00
   -3  -13    3      0.32      0.00
   -2  -13    3     -0.69      0.00
   -1  -13    3     -0.16      0.00
    0  -13    3     -2.41      0.00
    1  -13    3      0.06      0.00
    2  -13    3      0.32      0.00
    3  -13    3     -1.91      0.00
    4  -13    3     -0.56      0.00
    5  -13    3     -0.56      0.00
    6  -13    3      0.26      0.00
    7  -13    3      0.81      0.00
  -12  -12    3      1.00      0.00
  -11  -12    3      0.79      0.00
  -10  -12    3      0.04      0.00
   -9  -12    3     -0.14      0.00
   -8  -12    3      0.43      0.00
   -7  -12    3      1.76      0.00
   -6  -12    3     -0.36      0.00
   -5  -12    3     -1.30      0.00
   -4  -12    3      1.74      0.00
   -3  -12    3     -1.46      0.00
   -2  -12    3     -0.95      0.00
   -1  -12    3      0.07      0.00
    0  -12    3      0.23      0.00
    1  -12    3      0.73      0.00
    2  -12    3      0.50      0.00
    3  -12    3     -0.35      0.00
    4  -12    3     -0.36      0.00
    5  -12    3     -0.50      0.00
    6  -12    3     -0.76      0.00
    7  -12    3      1.61      0.00
    8  -12    3     -0.06      0.00
  -12  -11    3      0.09      0.00
  -11  -11    3      0.29      0.00
  -10  -11    3      0.66      0.00
   -9  -11    3     -0.10      0.00
   -8  -11    3      1.00      0.00
   -7  -11    3      3.53      0.00
   -6  -11    3      0.63      0.00
   -5  -11    3      0.26      0.00
   -4  -11    3      0.20      0.00
   -3  -11    3     -3.08      0.00
   -2  -11    3     -0.06      0.00
   -1  -11    3      0.90      0.00
    0  -11    3      2.57      0.00
    1  -11    3      0.23      0.00
    2  -11    3      1.39      0.00
    3  -11    3      0.88      0.00
    4  -11    3      0.71      0.00
    5  -11    3     -1.28      0.00
    6  -11    3     -1.35      0.00
    7  -11    3      2.83      0.00
    8  -11    3     -0.55      0.00
    9  -11    3     -0.63      0.00
  -13  -10    3      1.00      0.00
  -12  -10    3     -1.10      0.00
  -11  -10    3      1.19      0.00
  -10  -10    3     -0.55      0.00
   -9  -10    3     -0.31      0.00
   -8  -10    3      1.74      0.00
   -7  -10    3      2.82      0.00
   -6  -10    3      2.11      0.00
   -5  -10    3      0.67      0.00
   -4  -10    3     -1.63      0.00
   -3  -10    3     -2.80      0.00
   -2  -10    3      0.57      0.00
   -1  -10    3      1.97      0.00
    0  -10    3      3.38      0.00
    1  -10    3     -1.56      0.00
    2  -10    3      2.89      0.00
    3  -10    3      2.45      0.00
    4  -10    3      0.55      0.00
    5  -10    3     -3.43      0.00
    6  -10    3      0.26      0.00
    7  -10    3      2.51      0.00
    8  -10    3     -1.41      0.00
    9  -10    3      0.99      0.00
   10  -10    3      0.86      0.00
  -13   -9    3      0.20      0.00
  -12   -9    3     -0.05      0.00
  -11   -9    3      0.91      0.00
  -10   -9    3     -2.18      0.00
   -9   -9    3      0.99      0.00
   -8   -9    3      0.29      0.00
   -7   -9    3      1.17      0.00
   -6   -9    3      2.77      0.00
   -5   -9    3     -0.16      0.00
   -4   -9    3     -2.18      0.00
   -3   -9    3     -2.62      0.00
   -2   -9    3      0.99      0.00
   -1   -9    3      3.60      0.00
    0   -9    3      0.32      0.00
    1   -9    3     -3.18      0.00
    2   -9    3      6.67      0.00
    3   -9    3      3.58      0.00
    4   -9    3     -1.65      0.00
    5   -9    3     -3.52      0.00
    6   -9    3      2.68      0.00
    7   -9    3     -0.97      0.00
    8   -9    3     -2.26      0.00
    9   -9    3      2.34      0.00
   10   -9    3      0.40      0.00
   11   -9    3     -0.56      0.00
  -14   -8    3      0.30      0.00
  -13   -8    3      0.48      0.00
  -12   -8    3      1.15      0.00
  -11   -8    3     -0.78      0.00
  -10   -8    3     -1.51      0.00
   -9   -8    3      1.52      0.00
   -8   -8    3     -1.51      0.00
   -7   -8    3      0.78      0.00
   -6   -8    3      0.80      0.00
   -5   -8    3      0.14      0.00
   -4   -8    3     -3.14      0.00
   -3   -8    3     -2.35      0.00
   -2   -8    3      2.83      0.00
   -1   -8    3      3.19      0.00
    0   -8    3     -5.63      0.00
    1   -8    3     -1.72      0.00
    2   -8    3     10.61      0.00
    3   -8    3      2.57      0.00
    4   -8    3     -2.63      0.00
    5   -8    3     -0.64      0.00
    6   -8    3      2.61      0.00
    7   -8    3     -5.24      0.00
    8   -8    3     -1.67      0.00
    9   -8    3      3.05      0.00
   10   -8    3     -0.44      0.00
   11   -8    3     -1.98      0.00
   12   -8    3     -2.48      0.00
  -14   -7    3      0.14      0.00
  -13   -7    3      0.61      0.00
  -12   -7    3      0.98      0.00
  -11   -7    3     -1.84      0.00
  -10   -7    3     -0.18      0.00
   -9   -7    3      0.91      0.00
   -8   -7    3     -1.37      0.00
   -7   -7    3     -0.38      0.00
   -6   -7    3     -1.12      0.00
   -5   -7    3      1.12      0.00
   -4   -7    3     -4.83      0.00
   -3   -7    3      0.31      0.00
   -2   -7    3      4.23      0.00
   -1   -7    3      0.94      0.00
    0   -7    3     -9.70      0.00
    1   -7    3      1.50      0.00
    2   -7    3     11.43      0.00
    3   -7    3      0.96      0.00
    4   -7    3     -1.24      0.00
    5   -7    3      1.19      0.00
    6   -7    3      0.12      0.00
    7   -7    3     -6.56      0.00
    8   -7    3      0.42      0.00
    9   -7    3      2.58      0.00
   10   -7    3     -0.72      0.00
   11   -7    3     -2.18      0.00
   12   -7    3     -1.62      0.00
  -14   -6    3     -0.77      0.00
  -13   -6    3      0.07      0.00
  -12   -6    3      0.09      0.00
  -11   -6    3     -2.10      0.00
  -10   -6    3      1.15      0.00
   -9   -6    3      0.04      0.00
   -8   -6    3     -1.78      0.00
   -7   -6    3     -1.69      0.00
   -6   -6    3     -0.89      0.00
   -5   -6    3     -0.08      0.00
   -4   -6    3     -3.81      0.00
   -3   -6    3      3.25      0.00
   -2   -6    3      4.38      0.00
   -1   -6    3     -0.53      0.00
    0   -6    3    -11.17      0.00
    1   -6    3      5.04      0.00
    2   -6    3      9.90      0.00
    3   -6    3     -0.36      0.00
    4   -6    3     -0.06      0.00
    5   -6    3      0.91      0.00
    6   -6    3     -1.88      0.00
    7   -6    3     -4.84      0.00
    8   -6    3      2.18      0.00
    9   -6    3      1.28      0.00
   10   -6    3      0.55      0.00
   11   -6    3     -1.73      0.00
   12   -6    3     -0.33      0.00
   13   -6    3      1.14      0.00
  -14   -5    3     -1.45      0.00
  -13   -5    3     -0.65      0.00
  -12   -5    3     -1.26      0.00
  -11   -5    3     -0.86      0.00
  -10   -5    3      2.48      0.00
   -9   -5    3     -2.23      0.00
   -8   -5    3     -2.37      0.00
   -7   -5    3     -1.40      0.00
   -6   -5    3     -0.90      0.00
   -5   -5    3     -1.35      0.00
   -4   -5    3     -0.09      0.00
   -3   -5    3      3.66      0.00
   -2   -5    3      4.13      0.00
   -1   -5    3     -2.15      0.00
    0   -5    3     -9.71      0.00
    1   -5    3      9.19      0.00
    2   -5    3      4.33      0.00
    3   -5    3     -1.64      0.00
    4   -5    3      1.88      0.00
    5   -5    3      1.18      0.00
    6   -5    3     -2.76      0.00
    7   -5    3     -2.12      0.00
    8   -5    3      2.13      0.00
    9   -5    3     -0.12      0.00
   10   -5    3      1.63      0.00
   11   -5    3     -1.14      0.00
   12   -5    3      1.39      0.00
   13   -5    3     -0.43      0.00
   14   -5    3     -1.39      0.00
  -14   -4    3     -1.02      0.00
  -13   -4    3     -2.14      0.00
  -12   -4    3     -1.63      0.00
  -11   -4    3      1.61      0.00
  -10   -4    3      1.94      0.00
   -9   -4    3     -4.11      0.00
   -8   -4    3     -1.21      0.00
   -7   -4    3     -1.19      0.00
   -6   -4    3     -0.61      0.00
   -5   -4    3     -0.83      0.00
   -4   -4    3      2.47      0.00
   -3   -4    3      2.77      0.00
   -2   -4    3      3.34      0.00
   -1   -4    3     -3.10      0.00
    0   -4    3     -5.38      0.00
    1   -4    3     10.15      0.00
    2   -4    3     -6.62      0.00
    3   -4    3     -0.38      0.00
    4   -4    3      4.81      0.00
    5   -4    3      1.56      0.00
    6   -4    3     -2.53      0.00
    7   -4    3      0.45      0.00
    8   -4    3      0.33      0.00
    9   -4    3     -1.01      0.00
   10   -4    3      1.37      0.00
   11   -4    3      0.27      0.00
   12   -4    3      1.63      0.00
   13   -4    3     -2.98      0.00
   14   -4    3     -0.77      0.00
  -14   -3    3     -0.97      0.00
  -13   -3    3     -3.35      0.00
  -12   -3    3     -0.25      0.00
  -11   -3    3      2.63      0.00
  -10   -3    3      0.13      0.00
   -9   -3    3     -3.49      0.00
   -8   -3    3      0.23      0.00
   -7   -3    3     -0.87      0.00
   -6   -3    3      0.29      0.00
   -5   -3    3     -1.38      0.00
   -4   -3    3      3.66      0.00
   -3   -3    3      2.51      0.00
   -2   -3    3      3.93      0.00
   -1   -3    3     -4.88      0.00
    0   -3    3      1.01      0.00
    1   -3    3      7.50      0.00
    2   -3    3    -20.28      0.00
    3   -3    3      1.23      0.00
    4   -3    3      4.99      0.00
    5   -3    3      2.56      0.00
    6   -3    3     -0.57      0.00
    7   -3    3      1.48      0.00
    8   -3    3     -1.65      0.00
    9   -3    3     -1.20      0.00
   10   -3    3      0.14      0.00
   11   -3    3      1.20      0.00
   12   -3    3      0.23      0.00
   13   -3    3     -2.89      0.00
   14   -3    3      1.01      0.00
  -14   -2    3     -1.39      0.00
  -13   -2    3     -2.63      0.00
  -12   -2    3      1.07      0.00
  -11   -2    3      1.87      0.00
  -10   -2    3     -0.86      0.00
   -9   -2    3     -1.90      0.00
   -8   -2    3      1.02      0.00
   -7   -2    3     -0.24      0.00
   -6   -2    3     -1.21      0.00
   -5   -2    3     -2.75      0.00
   -4   -2    3      4.65      0.00
   -3   -2    3      3.55      0.00
   -2   -2    3      3.07      0.00
   -1   -2    3     -9.41      0.00
    0   -2    3     16.69      0.00
    1   -2    3     -2.61      0.00
    2   -2    3    -35.75      0.00
    3   -2    3      0.80      0.00
    4   -2    3      4.40      0.00
    5   -2    3      5.42      0.00
    6   -2    3      0.99      0.00
    7   -2    3      0.84      0.00
    8   -2    3     -2.61      0.00
    9   -2    3     -1.14      0.00
   10   -2    3     -1.34      0.00
   11   -2    3      0.82      0.00
   12   -2    3     -0.17      0.00
   13   -2    3     -0.97      0.00
   14   -2    3      0.87      0.00
   15   -2    3      0.42      0.00
  -14   -1    3     -1.03      0.00
  -13   -1    3     -0.84      0.00
  -12   -1    3      1.45      0.00
  -11   -1    3      1.11      0.00
  -10   -1    3     -1.18      0.00
   -9   -1    3     -0.86      0.00
   -8   -1    3      1.47      0.00
   -7   -1    3     -0.43      0.00
   -6   -1    3     -4.09      0.00
   -5   -1    3     -3.18      0.00
   -4   -1    3      4.92      0.00
   -3   -1    3      3.94      0.00
   -2   -1    3     -3.95      0.00
   -1   -1    3     -5.00      0.00
    0   -1    3     33.23      0.00
    1   -1    3    -29.14      0.00
    2   -1    3    -39.92      0.00
    3   -1    3      1.15      0.00
    4   -1    3      3.56      0.00
    5   -1    3      6.77      0.00
    6   -1    3      1.70      0.00
    7   -1    3     -0.17      0.00
    8   -1    3     -2.34      0.00
    9   -1    3     -0.19      0.00
   10   -1    3     -2.65      0.00
   11   -1    3     -0.16      0.00
   12   -1    3      0.42      0.00
   13   -1    3     -0.30      0.00
   14   -1    3     -0.85      0.00
   15   -1    3     -0.56      0.00
  -14    0    3     -0.33      0.00
  -13    0    3      0.52      0.00
  -12    0    3      1.54      0.00
  -11    0    3      0.43      0.00
  -10    0    3     -1.69      0.00
   -9    0    3      0.10      0.00
   -8    0    3      1.72      0.00
   -7    0    3     -0.66      0.00
   -6    0    3     -6.01      0.00
   -5    0    3     -2.95      0.00
   -4    0    3      5.15      0.00
   -3    0    3      1.36      0.00
   -2    0    3     -8.55      0.00
   -1    0    3      8.76      0.00
    0    0    3     24.28      0.00
    1    0    3    -48.31      0.00
    2    0    3    -20.25      0.00
    3    0    3     -6.25      0.00
    4    0    3     -1.25      0.00
    5    0    3      7.37      0.00
    6    0    3      2.89      0.00
    7    0    3     -1.85      0.00
    8    0    3      0.42      0.00
    9    0    3      1.45      0.00
   10    0    3     -4.22      0.00
   11    0    3     -1.01      0.00
   12    0    3      0.88      0.00
   13    0    3     -0.39      0.00
   14    0    3     -1.60      0.00
   15    0    3     -0.16      0.00
  -14    1    3     -0.21      0.00
  -13    1    3      0.65      0.00
  -12    1    3      1.25      0.00
  -11    1    3     -0.72      0.00
  -10    1    3     -1.80      0.00
   -9    1    3      1.38      0.00
   -8    1    3      1.23      0.00
   -7    1    3     -0.32      0.00
   -6    1    3     -6.31      0.00
   -5    1    3     -1.29      0.00
   -4    1    3      4.72      0.00
   -3    1    3     -0.70      0.00
   -2    1    3     -4.56      0.00
   -1    1    3     10.14      0.00
    0    1    3      1.31      0.00
    1    1    3    -28.40      0.00
    2    1    3     -0.01      0.00
    3    1    3    -24.27      0.00
    4    1    3     -3.00      0.00
    5    1    3      9.69      0.00
    6    1    3      1.32      0.00
    7    1    3     -3.31      0.00
    8    1    3      5.32      0.00
    9    1    3      1.65      0.00
   10    1    3     -5.02      0.00
   11    1    3     -1.30      0.00
   12    1    3      1.09      0.00
   13    1    3      0.20      0.00
   14    1    3     -0.45      0.00
   15    1    3      0.26      0.00
   16    1    3      0.74      0.00
  -14    2    3     -1.25      0.00
  -13    2    3     -0.22      0.00
  -12    2    3      0.94      0.00
  -11    2    3     -1.63      0.00
  -10    2    3     -1.07      0.00
   -9    2    3      1.44      0.00
   -8    2    3      0.00      0.00
   -7    2    3      0.98      0.00
   -6    2    3     -4.68      0.00
   -5    2    3      0.35      0.00
   -4    2    3      2.35      0.00
   -3    2    3      1.74      0.00
   -2    2    3     -1.99      0.00
   -1    2    3     -2.02      0.00
    0    2    3     -2.85      0.00
    1    2    3      8.75      0.00
    2    2    3      1.33      0.00
    3    2    3    -31.55      0.00
    4    2    3      2.19      0.00
    5    2    3      9.33      0.00
    6    2    3     -2.47      0.00
    7    2    3     -1.76      0.00
    8    2    3      8.62      0.00
    9    2    3      0.96      0.00
   10    2    3     -4.07      0.00
   11    2    3     -1.78      0.00
   12    2    3      0.97      0.00
   13    2    3      1.57      0.00
   14    2    3      0.93      0.00
   15    2    3     -0.48      0.00
   16    2    3      1.12      0.00
  -14    3    3     -2.91      0.00
  -13    3    3     -0.10      0.00
  -12    3    3      1.04      0.00
  -11    3    3     -1.78      0.00
  -10    3    3     -0.67      0.00
   -9    3    3      0.16      0.00
   -8    3    3      0.19      0.00
   -7    3    3      2.17      0.00
   -6    3    3     -2.68      0.00
   -5    3    3      0.41      0.00
   -4    3    3      0.23      0.00
   -3    3    3      5.35      0.00
   -2    3    3     -5.95      0.00
   -1    3    3    -10.61      0.00
    0    3    3      5.92      0.00
    1    3    3     29.94      0.00
    2    3    3     -0.05      0.00
    3    3    3    -21.91      0.00
    4    3    3      5.63      0.00
    5    3    3      7.10      0.00
    6    3    3     -1.89      0.00
    7    3    3      1.01      0.00
    8    3    3      8.69      0.00
    9    3    3      1.26      0.00
   10    3    3     -2.83      0.00
   11    3    3     -2.42      0.00
   12    3    3      1.23      0.00
   13    3    3      2.85      0.00
   14    3    3      0.40      0.00
   15    3    3     -0.79      0.00
   16    3    3      1.95      0.00
  -13    4    3      1.43      0.00
  -12    4    3      0.95      0.00
  -11    4    3     -1.13      0.00
  -10    4    3     -0.82      0.00
   -9    4    3     -0.31      0.00
   -8    4    3      0.93      0.00
   -7    4    3      1.25      0.00
   -6    4    3      0.22      0.00
   -5    4    3      0.51      0.00
   -4    4    3     -0.65      0.00
   -3    4    3      5.93      0.00
   -2    4    3    -10.66      0.00
   -1    4    3    -13.29      0.00
    0    4    3     10.27      0.00
    1    4    3     35.70      0.00
    2    4    3      2.23      0.00
    3    4    3    -10.91      0.00
    4    4    3      6.22      0.00
    5    4    3      8.21      0.00
    6    4    3      1.36      0.00
    7    4    3      1.36      0.00
    8    4    3      7.67      0.00
    9    4    3      2.03      0.00
   10    4    3     -2.12      0.00
   11    4    3     -2.10      0.00
   12    4    3      2.55      0.00
   13    4    3      2.57      0.00
   14    4    3     -1.08      0.00
   15    4    3      0.37      0.00
   16    4    3      1.37      0.00
  -13    5    3      2.15      0.00
  -12    5    3      0.89      0.00
  -11    5    3      0.19      0.00
  -10    5    3     -0.97      0.00
   -9    5    3     -0.42      0.00
   -8    5    3      0.05      0.00
   -7    5    3      0.90      0.00
   -6    5    3      4.45      0.00
   -5    5    3     -0.74      0.00
   -4    5    3     -1.60      0.00
   -3    5    3      4.71      0.00
   -2    5    3    -11.50      0.00
   -1    5    3    -13.15      0.00
    0    5    3     10.15      0.00
    1    5    3     30.68      0.00
    2    5    3      1.63      0.00
    3    5    3     -2.68      0.00
    4    5    3      6.91      0.00
    5    5    3      9.13      0.00
    6    5    3      0.57      0.00
    7    5    3      0.89      0.00
    8    5    3      6.60      0.00
    9    5    3      2.13      0.00
   10    5    3     -2.09      0.00
   11    5    3     -0.82      0.00
   12    5    3      3.99      0.00
   13    5    3      0.53      0.00
   14    5    3     -1.24      0.00
   15    5    3      1.19      0.00
   16    5    3      0.27      0.00
  -12    6    3      1.03      0.00
  -11    6    3      0.89      0.00
  -10    6    3     -1.19      0.00
   -9    6    3     -0.63      0.00
   -8    6    3     -0.65      0.00
   -7    6    3      2.51      0.00
   -6    6    3      5.48      0.00
   -5    6    3     -4.58      0.00
   -4    6    3     -1.27      0.00
   -3    6    3      4.51      0.00
   -2    6    3     -8.04      0.00
   -1    6    3    -11.82      0.00
    0    6    3      6.25      0.00
    1    6    3     20.14      0.00
    2    6    3      1.77      0.00
    3    6    3      2.89      0.00
    4    6    3      5.96      0.00
    5    6    3      5.87      0.00
    6    6    3     -3.11      0.00
    7    6    3      1.49      0.00
    8    6    3      4.55      0.00
    9    6    3      1.51      0.00
   10    6    3     -2.73      0.00
   11    6    3      1.06      0.00
   12    6    3      3.68      0.00
   13    6    3     -1.76      0.00
   14    6    3     -0.56      0.00
   15    6    3      0.52      0.00
   16    6    3      0.53      0.00
  -12    7    3      0.24      0.00
  -11    7    3      0.73      0.00
  -10    7    3     -0.65      0.00
   -9    7    3     -0.09      0.00
   -8    7    3     -1.05      0.00
   -7    7    3      3.16      0.00
   -6    7    3      2.66      0.00
   -5    7    3     -6.86      0.00
   -4    7    3      1.25      0.00
   -3    7    3      4.48      0.00
   -2    7    3     -4.43      0.00
   -1    7    3    -11.73      0.00
    0    7    3      2.76      0.00
    1    7    3     12.12      0.00
    2    7    3      1.38      0.00
    3    7    3      4.66      0.00
    4    7    3      4.81      0.00
    5    7    3      0.80      0.00
    6    7    3     -5.96      0.00
    7    7    3      0.87      0.00
    8    7    3      2.54      0.00
    9    7    3      0.66      0.00
   10    7    3     -2.52      0.00
   11    7    3      2.50      0.00
   12    7    3      1.29      0.00
   13    7    3     -2.74      0.00
   14    7    3     -0.74      0.00
   15    7    3     -0.23      0.00
   16    7    3      1.22      0.00
  -12    8    3     -0.71      0.00
  -11    8    3      0.82      0.00
  -10    8    3      0.31      0.00
   -9    8    3     -0.15      0.00
   -8    8    3     -1.96      0.00
   -7    8    3      2.76      0.00
   -6    8    3      0.05      0.00
   -5    8    3     -5.29      0.00
   -4    8    3      3.00      0.00
   -3    8    3      2.39      0.00
   -2    8    3     -2.82      0.00
   -1    8    3     -9.51      0.00
    0    8    3      2.41      0.00
    1    8    3      4.23      0.00
    2    8    3     -0.26      0.00
    3    8    3      6.44      0.00
    4    8    3      3.93      0.00
    5    8    3     -3.64      0.00
    6    8    3     -8.60      0.00
    7    8    3     -1.02      0.00
    8    8    3      2.20      0.00
    9    8    3     -0.38      0.00
   10    8    3     -1.09      0.00
   11    8    3      2.25      0.00
   12    8    3     -0.88      0.00
   13    8    3     -2.11      0.00
   14    8    3     -1.24      0.00
   15    8    3     -0.18      0.00
   16    8    3      0.72      0.00
  -11    9    3      0.52      0.00
  -10    9    3      0.43      0.00
   -9    9    3     -0.51      0.00
   -8    9    3     -1.99      0.00
   -7    9    3      1.36      0.00
   -6    9    3     -1.07      0.00
   -5    9    3     -2.21      0.00
   -4    9    3      2.36      0.00
   -3    9    3      0.12      0.00
   -2    9    3     -1.24      0.00
   -1    9    3     -5.41      0.00
    0    9    3      0.53      0.00
    1    9    3     -1.58      0.00
    2    9    3      1.52      0.00
    3    9    3      6.82      0.00
    4    9    3      2.60      0.00
    5    9    3     -6.77      0.00
    6    9    3    -10.87      0.00
    7    9    3     -1.34      0.00
    8    9    3      1.50      0.00
    9    9    3     -1.77      0.00
   10    9    3     -0.35      0.00
   11    9    3      1.05      0.00
   12    9    3     -1.17      0.00
   13    9    3     -0.69      0.00
   14    9    3     -0.99      0.00
   15    9    3     -0.16      0.00
  -10   10    3      0.76      0.00
   -9   10    3      0.16      0.00
   -8   10    3     -2.34      0.00
   -7   10    3     -0.87      0.00
   -6   10    3     -0.91      0.00
   -5   10    3      0.08      0.00
   -4   10    3      1.48      0.00
   -3   10    3     -0.36      0.00
   -2   10    3     -0.94      0.00
   -1   10    3     -3.76      0.00
    0   10    3     -1.09      0.00
    1   10    3     -1.70      0.00
    2   10    3      2.34      0.00
    3   10    3      5.30      0.00
    4   10    3      3.29      0.00
    5   10    3     -8.39      0.00
    6   10    3    -10.07      0.00
    7   10    3     -0.63      0.00
    8   10    3     -0.64      0.00
    9   10    3     -2.81      0.00
   10   10    3     -1.29      0.00
   11   10    3      0.59      0.00
   12   10    3     -0.56      0.00
   13   10    3      0.35      0.00
   14   10    3     -0.48      0.00
   15   10    3     -0.40      0.00
  -10   11    3      1.36      0.00
   -9   11    3      0.17      0.00
   -8   11    3     -3.14      0.00
   -7   11    3     -0.81      0.00
   -6   11    3     -0.75      0.00
   -5   11    3      1.09      0.00
   -4   11    3      1.54      0.00
   -3   11    3     -0.14      0.00
   -2   11    3     -2.18      0.00
   -1   11    3     -3.13      0.00
    0   11    3     -0.50      0.00
    1   11    3     -2.46      0.00
    2   11    3      0.36      0.00
    3   11    3      5.97      0.00
    4   11    3      4.67      0.00
    5   11    3     -8.01      0.00
    6   11    3     -6.10      0.00
    7   11    3      0.06      0.00
    8   11    3     -1.66      0.00
    9   11    3     -3.47      0.00
   10   11    3     -2.28      0.00
   11   11    3      1.13      0.00
   12   11    3     -0.25      0.00
   13   11    3      0.30      0.00
   14   11    3     -0.36      0.00
   15   11    3     -0.43      0.00
   -9   12    3     -0.80      0.00
   -8   12    3     -1.71      0.00
   -7   12    3      0.91      0.00
   -6   12    3     -2.06      0.00
   -5   12    3      1.18      0.00
   -4   12    3      1.96      0.00
   -3   12    3      0.88      0.00
   -2   12    3     -2.84      0.00
   -1   12    3     -2.39      0.00
    0   12    3     -0.45      0.00
    1   12    3     -4.61      0.00
    2   12    3     -0.33      0.00
    3   12    3      6.16      0.00
    4   12    3      3.96      0.00
    5   12    3     -5.65      0.00
    6   12    3     -0.99      0.00
    7   12    3      1.30      0.00
    8   12    3     -1.49      0.00
    9   12    3     -3.55      0.00
   10   12    3     -1.51      0.00
   11   12    3      1.71      0.00
   12   12    3     -0.15      0.00
   13   12    3     -0.49      0.00
   14   12    3     -0.31      0.00
   -8   13    3      0.92      0.00
   -7   13    3      0.97      0.00
   -6   13    3     -3.54      0.00
   -5   13    3      0.35      0.00
   -4   13    3      2.77      0.00
   -3   13    3      1.51      0.00
   -2   13    3     -3.43      0.00
   -1   13    3     -0.97      0.00
    0   13    3      0.27      0.00
    1   13    3     -4.68      0.00
    2   13    3     -1.01      0.00
    3   13    3      3.75      0.00
    4   13    3      2.07      0.00
    5   13    3     -2.33      0.00
    6   13    3      3.29      0.00
    7   13    3      1.15      0.00
    8   13    3     -1.18      0.00
    9   13    3     -2.20      0.00
   10   13    3     -0.07      0.00
   11   13    3      1.83      0.00
   12   13    3      0.02      0.00
   13   13    3     -1.01      0.00
   14   13    3      0.00      0.00
   -7   14    3     -0.17      0.00
   -6   14    3     -3.89      0.00
   -5   14    3     -0.74      0.00
   -4   14    3      2.85      0.00
   -3   14    3     -0.29      0.00
   -2   14    3     -2.27      0.00
   -1   14    3      2.11      0.00
    0   14    3      0.69      0.00
    1   14    3     -4.39      0.00
    2   14    3     -2.02      0.00
    3   14    3      1.55      0.00
    4   14    3      0.05      0.00
    5   14    3      1.17      0.00
    6   14    3      3.93      0.00
    7   14    3     -0.58      0.00
    8   14    3     -0.10      0.00
    9   14    3     -1.17      0.00
   10   14    3      0.62      0.00
   11   14    3      1.85      0.00
   12   14    3      0.24      0.00
   13   14    3     -0.59      0.00
   -6   15    3     -3.15      0.00
   -5   15    3     -1.22      0.00
   -4   15    3      1.09      0.00
   -3   15    3     -0.98      0.00
   -2   15    3      1.68      0.00
   -1   15    3      3.34      0.00
    0   15    3     -1.05      0.00
    1   15    3     -4.03      0.00
    2   15    3     -1.85      0.00
    3   15    3      0.01      0.00
    4   15    3     -0.99      0.00
    5   15    3      3.31      0.00
    6   15    3      1.16      0.00
    7   15    3     -0.75      0.00
    8   15    3      0.15      0.00
    9   15    3     -1.37      0.00
   10   15    3      1.02      0.00
   11   15    3      1.78      0.00
   12   15    3      0.78      0.00
   13   15    3      0.11      0.00
   -4   16    3     -0.05      0.00
   -3   16    3      1.66      0.00
   -2   16    3      3.94      0.00
   -1   16    3      2.10      0.00
    0   16    3     -1.97      0.00
    1   16    3     -3.38      0.00
    2   16    3     -1.28      0.00
    3   16    3     -0.84      0.00
    4   16    3     -0.18      0.00
    5   16    3      2.73      0.00
    6   16    3     -1.29      0.00
    7   16    3      0.14      0.00
    8   16    3     -0.89      0.00
    9   16    3     -0.85      0.00
   10   16    3      0.93      0.00
   11   16    3      1.58      0.00
   12   16    3      1.06      0.00
   -3   17    3      3.23      0.00
   -2   17    3      3.21      0.00
   -1   17    3      1.65      0.00
    0   17    3     -1.52      0.00
    1   17    3     -3.08      0.00
    2   17    3      0.09      0.00
    3   17    3     -0.19      0.00
    4   17    3      1.51      0.00
    5   17    3      0.50      0.00
    6   17    3     -1.84      0.00
    7   17    3      0.41      0.00
    8   17    3     -0.70      0.00
    9   17    3      0.04      0.00
   10   17    3      0.32      0.00
   -1   18    3      1.17      0.00
    0   18    3     -1.24      0.00
    1   18    3     -1.98      0.00
    2   18    3      1.84      0.00
    4   18    3      2.45      0.00
    5   18    3     -1.16      0.00
    6   18    3     -0.80      0.00
    7   18    3      0.62      0.00
    8   18    3      0.24      0.00
   -4  -16    4     -1.37      0.00
   -3  -16    4      0.47      0.00
   -2  -16    4     -0.15      0.00
   -1  -16    4     -1.40      0.00
    0  -16    4     -0.24      0.00
   -7  -15    4      0.30      0.00
   -6  -15    4      1.28      0.00
   -5  -15    4     -0.20      0.00
   -4  -15    4     -1.08      0.00
   -3  -15    4      1.42      0.00
   -2  -15    4     -0.64      0.00
   -1  -15    4     -2.19      0.00
    0  -15    4      0.94      0.00
    1  -15    4      0.29      0.00
    2  -15    4      0.10      0.00
    3  -15    4      3.35      0.00
   -9  -14    4      0.89      0.00
   -8  -14    4      0.22      0.00
   -7  -14    4      0.37      0.00
   -6  -14    4     -0.28      0.00
   -5  -14    4     -1.28      0.00
   -4  -14    4     -0.37      0.00
   -3  -14    4      1.65      0.00
   -2  -14    4     -0.71      0.00
   -1  -14    4     -0.60      0.00
    0  -14    4      0.64      0.00
    1  -14    4     -2.19      0.00
    2  -14    4      0.37      0.00
    3  -14    4      2.46      0.00
    4  -14    4     -0.54      0.00
    5  -14    4     -0.23      0.00
  -10  -13    4      0.51      0.00
   -9  -13    4     -0.26      0.00
   -8  -13    4     -0.20      0.00
   -7  -13    4     -0.50      0.00
   -6  -13    4     -1.47      0.00
   -5  -13    4     -2.27      0.00
   -4  -13    4      0.00      0.00
   -3  -13    4      2.17      0.00
   -2  -13    4      0.21      0.00
   -1  -13    4      0.63      0.00
    0  -13    4     -1.35      0.00
    1  -13    4     -2.61      0.00
    2  -13    4      0.17      0.00
    3  -13    4      0.55      0.00
    4  -13    4     -1.28      0.00
    5  -13    4     -0.92      0.00
    6  -13    4      1.18      0.00
    7  -13    4      0.22      0.00
  -11  -12    4      1.20      0.00
  -10  -12    4      0.11      0.00
   -9  -12    4     -0.60      0.00
   -8  -12    4     -0.39      0.00
   -7  -12    4     -1.05      0.00
   -6  -12    4     -1.39      0.00
   -5  -12    4     -3.06      0.00
   -4  -12    4      0.80      0.00
   -3  -12    4      2.47      0.00
   -2  -12    4     -0.13      0.00
   -1  -12    4      0.47      0.00
    0  -12    4     -1.74      0.00
    1  -12    4     -1.04      0.00
    2  -12    4     -0.32      0.00
    3  -12    4     -0.10      0.00
    4  -12    4     -2.34      0.00
    5  -12    4     -0.97      0.00
    6  -12    4      1.50      0.00
    7  -12    4      0.25      0.00
    8  -12    4      1.18      0.00
  -12  -11    4      2.05      0.00
  -11  -11    4      0.43      0.00
  -10  -11    4      0.92      0.00
   -9  -11    4     -0.30      0.00
   -8  -11    4     -0.80      0.00
   -7  -11    4      0.71      0.00
   -6  -11    4     -0.17      0.00
   -5  -11    4     -2.53      0.00
   -4  -11    4      1.19      0.00
   -3  -11    4      1.00      0.00
   -2  -11    4     -1.16      0.00
   -1  -11    4      0.65      0.00
    0  -11    4     -0.26      0.00
    1  -11    4      0.56      0.00
    2  -11    4     -0.46      0.00
    3  -11    4      0.09      0.00
    4  -11    4     -2.26      0.00
    5  -11    4      0.28      0.00
    6  -11    4      0.29      0.00
    7  -11    4      1.01      0.00
    8  -11    4      1.79      0.00
    9  -11    4     -1.88      0.00
  -12  -10    4      1.19      0.00
  -11  -10    4      0.08      0.00
  -10  -10    4      2.22      0.00
   -9  -10    4     -1.59      0.00
   -8  -10    4      0.40      0.00
   -7  -10    4      3.42      0.00
   -6  -10    4      0.91      0.00
   -5  -10    4     -0.73      0.00
   -4  -10    4      0.30      0.00
   -3  -10    4     -0.60      0.00
   -2  -10    4     -1.11      0.00
   -1  -10    4      0.61      0.00
    0  -10    4      1.96      0.00
    1  -10    4      1.28      0.00
    2  -10    4     -0.86      0.00
    3  -10    4      0.95      0.00
    4  -10    4     -0.76      0.00
    5  -10    4      0.08      0.00
    6  -10    4     -1.38      0.00
    7  -10    4      2.94      0.00
    8  -10    4      1.64      0.00
    9  -10    4     -1.76      0.00
   10  -10    4      1.00      0.00
  -13   -9    4      0.38      0.00
  -12   -9    4     -0.37      0.00
  -11   -9    4      1.42      0.00
  -10   -9    4      0.99      0.00
   -9   -9    4     -2.20      0.00
   -8   -9    4      2.51      0.00
   -7   -9    4      2.99      0.00
   -6   -9    4      2.20      0.00
   -5   -9    4      0.75      0.00
   -4   -9    4     -0.34      0.00
   -3   -9    4     -1.40      0.00
   -2   -9    4     -1.08      0.00
   -1   -9    4      0.67      0.00
    0   -9    4      4.40      0.00
    1   -9    4     -0.22      0.00
    2   -9    4     -0.72      0.00
    3   -9    4      3.40      0.00
    4   -9    4     -0.38      0.00
    5   -9    4     -2.48      0.00
    6   -9    4     -1.12      0.00
    7   -9    4      4.21      0.00
    8   -9    4     -0.21      0.00
    9   -9    4     -0.65      0.00
   10   -9    4      1.99      0.00
   11   -9    4      0.47      0.00
  -13   -8    4      0.14      0.00
  -12   -8    4     -0.10      0.00
  -11   -8    4      2.12      0.00
  -10   -8    4     -1.08      0.00
   -9   -8    4     -0.77      0.00
   -8   -8    4      1.89      0.00
   -7   -8    4      1.29      0.00
   -6   -8    4      3.33      0.00
   -5   -8    4      0.75      0.00
   -4   -8    4      0.01      0.00
   -3   -8    4     -3.46      0.00
   -2   -8    4     -0.50      0.00
   -1   -8    4      2.03      0.00
    0   -8    4      4.17      0.00
    1   -8    4     -3.70      0.00
    2   -8    4      2.42      0.00
    3   -8    4      6.40      0.00
    4   -8    4     -2.11      0.00
    5   -8    4     -3.76      0.00
    6   -8    4      1.14      0.00
    7   -8    4      2.11      0.00
    8   -8    4     -3.47      0.00
    9   -8    4      1.13      0.00
   10   -8    4      2.28      0.00
   11   -8    4     -0.42      0.00
   12   -8    4     -0.85      0.00
  -13   -7    4      0.48      0.00
  -12   -7    4      0.89      0.00
  -11   -7    4      1.72      0.00
  -10   -7    4     -2.02      0.00
   -9   -7    4      0.11      0.00
   -8   -7    4      0.52      0.00
   -7   -7    4      1.22      0.00
   -6   -7    4      1.93      0.00
   -5   -7    4      0.93      0.00
   -4   -7    4     -1.09      0.00
   -3   -7    4     -5.43      0.00
   -2   -7    4      1.73      0.00
   -1   -7    4      2.55      0.00
    0   -7    4      0.45      0.00
    1   -7    4     -5.99      0.00
    2   -7    4      7.63      0.00
    3   -7    4      7.32      0.00
    4   -7    4     -3.12      0.00
    5   -7    4     -1.59      0.00
    6   -7    4      2.29      0.00
    7   -7    4     -2.35      0.00
    8   -7    4     -5.15      0.00
    9   -7    4      2.77      0.00
   10   -7    4      0.97      0.00
   11   -7    4     -1.25      0.00
   12   -7    4     -2.19      0.00
  -14   -6    4      0.62      0.00
  -13   -6    4      0.21      0.00
  -12   -6    4      1.42      0.00
  -11   -6    4      0.63      0.00
  -10   -6    4     -2.52      0.00
   -9   -6    4      0.87      0.00
   -8   -6    4      0.39      0.00
   -7   -6    4      0.53      0.00
   -6   -6    4     -0.11      0.00
   -5   -6    4      1.30      0.00
   -4   -6    4     -4.03      0.00
   -3   -6    4     -3.74      0.00
   -2   -6    4      2.40      0.00
   -1   -6    4      1.88      0.00
    0   -6    4     -3.51      0.00
    1   -6    4     -6.08      0.00
    2   -6    4     12.12      0.00
    3   -6    4      6.32      0.00
    4   -6    4     -2.00      0.00
    5   -6    4      0.44      0.00
    6   -6    4      1.08      0.00
    7   -6    4     -5.10      0.00
    8   -6    4     -3.90      0.00
    9   -6    4      2.97      0.00
   10   -6    4      0.14      0.00
   11   -6    4     -0.65      0.00
   12   -6    4     -3.27      0.00
   13   -6    4      0.75      0.00
  -14   -5    4     -0.18      0.00
  -13   -5    4     -0.57      0.00
  -12   -5    4      0.93      0.00
  -11   -5    4     -1.00      0.00
  -10   -5    4     -1.49      0.00
   -9   -5    4      1.59      0.00
   -8   -5    4     -0.98      0.00
   -7   -5    4     -0.42      0.00
   -6   -5    4     -0.83      0.00
   -5   -5    4     -0.15      0.00
   -4   -5    4     -4.40      0.00
   -3   -5    4     -0.79      0.00
   -2   -5    4      0.03      0.00
   -1   -5    4      2.00      0.00
    0   -5    4     -6.58      0.00
    1   -5    4     -3.84      0.00
    2   -5    4     15.59      0.00
    3   -5    4      3.73      0.00
    4   -5    4     -0.71      0.00
    5   -5    4      0.54      0.00
    6   -5    4     -0.24      0.00
    7   -5    4     -5.22      0.00
    8   -5    4     -1.53      0.00
    9   -5    4      2.33      0.00
   10   -5    4      1.13      0.00
   11   -5    4     -0.39      0.00
   12   -5    4     -3.23      0.00
   13   -5    4      2.26      0.00
   14   -5    4      0.05      0.00
  -14   -4    4     -0.65      0.00
  -13   -4    4     -1.21      0.00
  -12   -4    4     -0.81      0.00
  -11   -4    4     -1.12      0.00
  -10   -4    4      0.61      0.00
   -9   -4    4      0.16      0.00
   -8   -4    4     -2.49      0.00
   -7   -4    4     -0.23      0.00
   -6   -4    4     -1.75      0.00
   -5   -4    4     -0.92      0.00
   -4   -4    4     -1.58      0.00
   -3   -4    4     -0.66      0.00
   -2   -4    4     -2.26      0.00
   -1   -4    4      2.23      0.00
    0   -4    4     -8.72      0.00
    1   -4    4      1.02      0.00
    2   -4    4     15.61      0.00
    3   -4    4     -0.68      0.00
    4   -4    4      1.83      0.00
    5   -4    4      0.78      0.00
    6   -4    4     -1.17      0.00
    7   -4    4     -4.27      0.00
    8   -4    4      0.44      0.00
    9   -4    4      1.40      0.00
   10   -4    4      1.76      0.00
   11   -4    4     -0.44      0.00
   12   -4    4     -1.01      0.00
   13   -4    4      1.56      0.00
   14   -4    4     -1.77      0.00
  -14   -3    4     -0.02      0.00
  -13   -3    4     -2.18      0.00
  -12   -3    4     -1.81      0.00
  -11   -3    4      0.41      0.00
  -10   -3    4      1.01      0.00
   -9   -3    4     -1.83      0.00
   -8   -3    4     -1.98      0.00
   -7   -3    4     -0.20      0.00
   -6   -3    4     -1.72      0.00
   -5   -3    4      0.24      0.00
   -4   -3    4      0.59      0.00
   -3   -3    4     -1.28      0.00
   -2   -3    4     -2.08      0.00
   -1   -3    4      1.99      0.00
    0   -3    4    -10.65      0.00
    1   -3    4      7.54      0.00
    2   -3    4      9.33      0.00
    3   -3    4     -4.64      0.00
    4   -3    4      5.72      0.00
    5   -3    4      0.73      0.00
    6   -3    4     -1.71      0.00
    7   -3    4     -2.49      0.00
    8   -3    4      1.29      0.00
    9   -3    4     -0.02      0.00
   10   -3    4      1.23      0.00
   11   -3    4      0.32      0.00
   12   -3    4      0.74      0.00
   13   -3    4     -0.81      0.00
   14   -3    4     -1.90      0.00
  -14   -2    4      0.32      0.00
  -13   -2    4     -2.78      0.00
  -12   -2    4     -1.10      0.00
  -11   -2    4      1.24      0.00
  -10   -2    4      0.16      0.00
   -9   -2    4     -2.28      0.00
   -8   -2    4     -0.68      0.00
   -7   -2    4     -0.13      0.00
   -6   -2    4     -0.63      0.00
   -5   -2    4      0.26      0.00
   -4   -2    4      2.16      0.00
   -3   -2    4      0.27      0.00
   -2   -2    4      0.75      0.00
   -1   -2    4     -0.76      0.00
    0   -2    4    -10.07      0.00
    1   -2    4     17.37      0.00
    2   -2    4     -4.98      0.00
    3   -2    4     -8.10      0.00
    4   -2    4      7.17      0.00
    5   -2    4      1.24      0.00
    6   -2    4     -0.91      0.00
    7   -2    4     -0.83      0.00
    8   -2    4      0.76      0.00
    9   -2    4     -1.44      0.00
   10   -2    4      0.30      0.00
   11   -2    4      0.59      0.00
   12   -2    4      1.13      0.00
   13   -2    4     -1.25      0.00
   14   -2    4     -0.78      0.00
   15   -2    4      1.15      0.00
  -14   -1    4      0.05      0.00
  -13   -1    4     -2.24      0.00
  -12   -1    4     -0.21      0.00
  -11   -1    4      1.31      0.00
  -10   -1    4     -0.12      0.00
   -9   -1    4     -2.09      0.00
   -8   -1    4      0.52      0.00
   -7   -1    4     -0.02      0.00
   -6   -1    4     -0.93      0.00
   -5   -1    4     -1.13      0.00
   -4   -1    4      3.64      0.00
   -3   -1    4      3.19      0.00
   -2   -1    4      2.42      0.00
   -1   -1    4     -6.41      0.00
    0   -1    4      2.75      0.00
    1   -1    4     22.92      0.00
    2   -1    4    -27.51      0.00
    3   -1    4     -9.57      0.00
    4   -1    4      6.82      0.00
    5   -1    4      3.84      0.00
    6   -1    4     -0.53      0.00
    7   -1    4     -0.09      0.00
    8   -1    4     -0.67      0.00
    9   -1    4     -2.20      0.00
   10   -1    4     -0.65      0.00
   11   -1    4     -0.20      0.00
   12   -1    4      1.70      0.00
   13   -1    4     -0.34      0.00
   14   -1    4     -0.92      0.00
   15   -1    4      0.41      0.00
  -14    0    4     -0.16      0.00
  -13    0    4     -1.38      0.00
  -12    0    4      0.42      0.00
  -11    0    4      1.75      0.00
  -10    0    4     -0.47      0.00
   -9    0    4     -2.06      0.00
   -8    0    4      1.75      0.00
   -7    0    4     -0.38      0.00
   -6    0    4     -2.18      0.00
   -5    0    4     -3.49      0.00
   -4    0    4      4.17      0.00
   -3    0    4      5.34      0.00
   -2    0    4     -1.11      0.00
   -1    0    4     -6.23      0.00
    0    0    4     22.06      0.00
    1    0    4      9.46      0.00
    2    0    4    -42.93      0.00
    3    0    4     -6.56      0.00
    4    0    4      4.39      0.00
    5    0    4      5.55      0.00
    6    0    4     -0.45      0.00
    7    0    4      0.41      0.00
    8    0    4     -2.01      0.00
    9    0    4     -1.21      0.00
   10    0    4     -1.81      0.00
   11    0    4     -1.41      0.00
   12    0    4      2.09      0.00
   13    0    4      0.00      0.00
   14    0    4     -2.16      0.00
   15    0    4     -0.21      0.00
  -14    1    4     -0.25      0.00
  -13    1    4     -0.79      0.00
  -12    1    4      1.26      0.00
  -11    1    4      1.66      0.00
  -10    1    4     -1.76      0.00
   -9    1    4     -1.28      0.00
   -8    1    4      2.98      0.00
   -7    1    4     -0.69      0.00
   -6    1    4     -3.50      0.00
   -5    1    4     -5.98      0.00
   -4    1    4      5.26      0.00
   -3    1    4      4.64      0.00
   -2    1    4     -5.05      0.00
   -1    1    4      1.09      0.00
    0    1    4     26.15      0.00
    1    1    4    -10.62      0.00
    2    1    4    -36.37      0.00
    3    1    4     -8.36      0.00
    4    1    4     -2.20      0.00
    5    1    4      6.45      0.00
    6    1    4      1.01      0.00
    7    1    4     -0.47      0.00
    8    1    4     -1.12      0.00
    9    1    4      1.24      0.00
   10    1    4     -3.61      0.00
   11    1    4     -2.13      0.00
   12    1    4      2.02      0.00
   13    1    4      0.13      0.00
   14    1    4     -2.67      0.00
   15    1    4      0.26      0.00
   16    1    4      0.57      0.00
  -13    2    4     -0.93      0.00
  -12    2    4      1.59      0.00
  -11    2    4      0.25      0.00
  -10    2    4     -2.71      0.00
   -9    2    4      0.38      0.00
   -8    2    4      2.92      0.00
   -7    2    4     -0.58      0.00
   -6    2    4     -3.96      0.00
   -5    2    4     -6.18      0.00
   -4    2    4      6.16      0.00
   -3    2    4      2.54      0.00
   -2    2    4     -3.65      0.00
   -1    2    4      3.75      0.00
    0    2    4     16.36      0.00
    1    2    4    -13.77      0.00
    2    2    4    -20.69      0.00
    3    2    4    -18.58      0.00
    4    2    4     -6.72      0.00
    5    2    4      7.84      0.00
    6    2    4      0.42      0.00
    7    2    4     -2.31      0.00
    8    2    4      2.63      0.00
    9    2    4      2.79      0.00
   10    2    4     -4.64      0.00
   11    2    4     -1.72      0.00
   12    2    4      1.49      0.00
   13    2    4      0.32      0.00
   14    2    4     -1.24      0.00
   15    2    4      0.68      0.00
   16    2    4     -0.21      0.00
  -13    3    4     -2.01      0.00
  -12    3    4      1.27      0.00
  -11    3    4     -1.14      0.00
  -10    3    4     -2.34      0.00
   -9    3    4      0.94      0.00
   -8    3    4      1.63      0.00
   -7    3    4      0.87      0.00
   -6    3    4     -3.66      0.00
   -5    3    4     -5.16      0.00
   -4    3    4      5.26      0.00
   -3    3    4      3.02      0.00
   -2    3    4     -0.55      0.00
   -1    3    4     -0.89      0.00
    0    3    4      9.05      0.00
    1    3    4     -3.94      0.00
    2    3    4     -8.83      0.00
    3    3    4    -23.80      0.00
    4    3    4     -5.83      0.00
    5    3    4      6.50      0.00
    6    3    4     -2.12      0.00
    7    3    4     -1.62      0.00
    8    3    4      5.95      0.00
    9    3    4      3.04      0.00
   10    3    4     -3.78      0.00
   11    3    4     -1.38      0.00
   12    3    4      0.14      0.00
   13    3    4      0.95      0.00
   14    3    4      1.01      0.00
   15    3    4     -0.07      0.00
   16    3    4      0.24      0.00
  -13    4    4     -2.55      0.00
  -12    4    4      1.20      0.00
  -11    4    4     -1.39      0.00
  -10    4    4     -1.70      0.00
   -9    4    4      0.14      0.00
   -8    4    4      1.53      0.00
   -7    4    4      1.98      0.00
   -6    4    4     -4.40      0.00
   -5    4    4     -3.23      0.00
   -4    4    4      4.42      0.00
   -3    4    4      4.74      0.00
   -2    4    4     -1.02      0.00
   -1    4    4     -6.48      0.00
    0    4    4      5.84      0.00
    1    4    4      7.43      0.00
    2    4    4      1.80      0.00
    3    4    4    -20.28      0.00
    4    4    4     -3.69      0.00
    5    4    4      3.79      0.00
    6    4    4     -0.58      0.00
    7    4    4      0.92      0.00
    8    4    4      6.71      0.00
    9    4    4      3.16      0.00
   10    4    4     -2.29      0.00
   11    4    4     -1.81      0.00
   12    4    4     -0.84      0.00
   13    4    4      2.28      0.00
   14    4    4      1.56      0.00
   15    4    4     -0.58      0.00
   16    4    4      1.45      0.00
  -13    5    4     -1.45      0.00
  -12    5    4      1.54      0.00
  -11    5    4     -0.90      0.00
  -10    5    4     -1.16      0.00
   -9    5    4     -0.29      0.00
   -8    5    4      1.93      0.00
   -7    5    4      0.60      0.00
   -6    5    4     -3.62      0.00
   -5    5    4      0.77      0.00
   -4    5    4      2.77      0.00
   -3    5    4      3.89      0.00
   -2    5    4     -3.96      0.00
   -1    5    4     -9.31      0.00
    0    5    4      4.14      0.00
    1    5    4     16.05      0.00
    2    5    4      8.00      0.00
    3    5    4    -13.92      0.00
    4    5    4     -1.16      0.00
    5    5    4      3.74      0.00
    6    5    4      4.00      0.00
    7    5    4      1.92      0.00
    8    5    4      6.58      0.00
    9    5    4      3.12      0.00
   10    5    4     -1.03      0.00
   11    5    4     -2.30      0.00
   12    5    4     -0.01      0.00
   13    5    4      3.13      0.00
   14    5    4      0.46      0.00
   15    5    4      0.34      0.00
   16    5    4      1.30      0.00
  -12    6    4      1.69      0.00
  -11    6    4     -0.29      0.00
  -10    6    4     -0.34      0.00
   -9    6    4     -0.68      0.00
   -8    6    4      1.37      0.00
   -7    6    4     -0.47      0.00
   -6    6    4      0.33      0.00
   -5    6    4      2.72      0.00
   -4    6    4     -1.23      0.00
   -3    6    4      2.32      0.00
   -2    6    4     -4.65      0.00
   -1    6    4     -8.07      0.00
    0    6    4      2.02      0.00
    1    6    4     17.06      0.00
    2    6    4      9.09      0.00
    3    6    4     -6.57      0.00
    4    6    4      0.96      0.00
    5    6    4      4.78      0.00
    6    6    4      5.54      0.00
    7    6    4      2.08      0.00
    8    6    4      6.31      0.00
    9    6    4      2.65      0.00
   10    6    4     -0.50      0.00
   11    6    4     -2.36      0.00
   12    6    4      2.03      0.00
   13    6    4      2.43      0.00
   14    6    4     -0.26      0.00
   15    6    4      1.30      0.00
   16    6    4      0.34      0.00
  -12    7    4      1.10      0.00
  -11    7    4      0.18      0.00
  -10    7    4      0.36      0.00
   -9    7    4     -1.01      0.00
   -8    7    4      0.89      0.00
   -7    7    4     -0.06      0.00
   -6    7    4      3.44      0.00
   -5    7    4      0.35      0.00
   -4    7    4     -4.06      0.00
   -3    7    4      3.02      0.00
   -2    7    4     -2.33      0.00
   -1    7    4     -6.23      0.00
    0    7    4     -2.46      0.00
    1    7    4     14.24      0.00
    2    7    4      9.10      0.00
    3    7    4     -1.85      0.00
    4    7    4      2.07      0.00
    5    7    4      4.63      0.00
    6    7    4      3.57      0.00
    7    7    4      2.51      0.00
    8    7    4      4.83      0.00
    9    7    4      2.13      0.00
   10    7    4     -1.09      0.00
   11    7    4     -1.44      0.00
   12    7    4      3.09      0.00
   13    7    4      0.57      0.00
   14    7    4     -0.38      0.00
   15    7    4      0.89      0.00
   16    7    4      0.23      0.00
  -11    8    4      0.73      0.00
  -10    8    4      0.71      0.00
   -9    8    4     -0.64      0.00
   -8    8    4     -0.07      0.00
   -7    8    4      0.42      0.00
   -6    8    4      4.27      0.00
   -5    8    4     -2.43      0.00
   -4    8    4     -3.59      0.00
   -3    8    4      3.73      0.00
   -2    8    4     -0.79      0.00
   -1    8    4     -5.98      0.00
    0    8    4     -4.54      0.00
    1    8    4     11.14      0.00
    2    8    4      5.71      0.00
    3    8    4      0.65      0.00
    4    8    4      3.70      0.00
    5    8    4      3.21      0.00
    6    8    4      0.54      0.00
    7    8    4      1.51      0.00
    8    8    4      3.24      0.00
    9    8    4      1.79      0.00
   10    8    4     -1.54      0.00
   11    8    4     -0.01      0.00
   12    8    4      2.22      0.00
   13    8    4     -1.22      0.00
   14    8    4     -0.85      0.00
   15    8    4     -0.08      0.00
   16    8    4      0.75      0.00
  -11    9    4      1.04      0.00
  -10    9    4      0.42      0.00
   -9    9    4     -0.21      0.00
   -8    9    4     -1.14      0.00
   -7    9    4      0.82      0.00
   -6    9    4      3.79      0.00
   -5    9    4     -3.09      0.00
   -4    9    4     -2.07      0.00
   -3    9    4      2.24      0.00
   -2    9    4     -0.45      0.00
   -1    9    4     -4.46      0.00
    0    9    4     -3.72      0.00
    1    9    4      5.19      0.00
    2    9    4      2.14      0.00
    3    9    4      3.78      0.00
    4    9    4      3.69      0.00
    5    9    4      1.29      0.00
    6    9    4     -3.41      0.00
    7    9    4     -0.61      0.00
    8    9    4      3.03      0.00
    9    9    4      1.04      0.00
   10    9    4     -1.09      0.00
   11    9    4      0.67      0.00
   12    9    4      1.01      0.00
   13    9    4     -2.09      0.00
   14    9    4     -1.09      0.00
   15    9    4     -0.47      0.00
   16    9    4      0.68      0.00
  -10   10    4      0.13      0.00
   -9   10    4      0.86      0.00
   -8   10    4     -1.35      0.00
   -7   10    4     -0.45      0.00
   -6   10    4      2.62      0.00
   -5   10    4     -2.31      0.00
   -4   10    4     -0.83      0.00
   -3   10    4      0.41      0.00
   -2   10    4     -0.05      0.00
   -1   10    4     -2.68      0.00
    0   10    4     -3.43      0.00
    1   10    4      1.11      0.00
    2   10    4      2.14      0.00
    3   10    4      4.26      0.00
    4   10    4      2.51      0.00
    5   10    4     -0.47      0.00
    6   10    4     -7.82      0.00
    7   10    4     -1.77      0.00
    8   10    4      2.41      0.00
    9   10    4     -0.39      0.00
   10   10    4     -0.98      0.00
   11   10    4      0.56      0.00
   12   10    4      0.63      0.00
   13   10    4     -1.83      0.00
   14   10    4     -0.40      0.00
   15   10    4     -0.57      0.00
   -9   11    4      2.05      0.00
   -8   11    4     -2.47      0.00
   -7   11    4     -2.38      0.00
   -6   11    4      2.14      0.00
   -5   11    4     -1.54      0.00
   -4   11    4      0.49      0.00
   -3   11    4     -0.86      0.00
   -2   11    4     -0.56      0.00
   -1   11    4     -2.12      0.00
    0   11    4     -2.24      0.00
    1   11    4      0.70      0.00
    2   11    4      1.04      0.00
    3   11    4      3.47      0.00
    4   11    4      3.66      0.00
    5   11    4     -2.18      0.00
    6   11    4    -10.23      0.00
    7   11    4     -1.98      0.00
    8   11    4      0.67      0.00
    9   11    4     -1.86      0.00
   10   11    4     -2.22      0.00
   11   11    4      0.37      0.00
   12   11    4      0.61      0.00
   13   11    4     -0.85      0.00
   14   11    4      0.01      0.00
   15   11    4     -0.66      0.00
   -9   12    4      1.49      0.00
   -8   12    4     -3.48      0.00
   -7   12    4     -1.34      0.00
   -6   12    4      1.48      0.00
   -5   12    4     -1.21      0.00
   -4   12    4      1.28      0.00
   -3   12    4     -1.34      0.00
   -2   12    4     -0.91      0.00
   -1   12    4     -2.03      0.00
    0   12    4     -1.44      0.00
    1   12    4     -0.71      0.00
    2   12    4     -1.01      0.00
    3   12    4      4.59      0.00
    4   12    4      5.50      0.00
    5   12    4     -3.12      0.00
    6   12    4     -9.31      0.00
    7   12    4     -0.89      0.00
    8   12    4     -0.59      0.00
    9   12    4     -3.25      0.00
   10   12    4     -3.56      0.00
   11   12    4      0.53      0.00
   12   12    4      0.69      0.00
   13   12    4     -0.37      0.00
   14   12    4     -0.72      0.00
   15   12    4     -0.31      0.00
   -8   13    4     -2.13      0.00
   -7   13    4      1.02      0.00
   -6   13    4     -0.15      0.00
   -5   13    4     -0.98      0.00
   -4   13    4      1.30      0.00
   -3   13    4      0.59      0.00
   -2   13    4     -1.23      0.00
   -1   13    4     -3.24      0.00
    0   13    4     -1.55      0.00
    1   13    4     -1.88      0.00
    2   13    4     -1.95      0.00
    3   13    4      4.53      0.00
    4   13    4      5.80      0.00
    5   13    4     -3.00      0.00
    6   13    4     -5.17      0.00
    7   13    4      1.22      0.00
    8   13    4     -1.75      0.00
    9   13    4     -3.59      0.00
   10   13    4     -3.21      0.00
   11   13    4      0.90      0.00
   12   13    4      0.84      0.00
   13   13    4     -0.94      0.00
   14   13    4     -1.34      0.00
   -7   14    4      1.74      0.00
   -6   14    4     -1.34      0.00
   -5   14    4     -1.47      0.00
   -4   14    4      1.79      0.00
   -3   14    4      2.41      0.00
   -2   14    4     -3.19      0.00
   -1   14    4     -3.06      0.00
    0   14    4      0.04      0.00
    1   14    4     -2.12      0.00
    2   14    4     -2.96      0.00
    3   14    4      3.01      0.00
    4   14    4      4.29      0.00
    5   14    4     -2.14      0.00
    6   14    4      0.34      0.00
    7   14    4      1.08      0.00
    8   14    4     -2.22      0.00
    9   14    4     -2.06      0.00
   10   14    4     -1.89      0.00
   11   14    4      1.11      0.00
   12   14    4      0.88      0.00
   13   14    4     -1.39      0.00
   14   14    4     -0.84      0.00
   -6   15    4     -1.95      0.00
   -5   15    4     -2.23      0.00
   -4   15    4      1.99      0.00
   -3   15    4      0.96      0.00
   -2   15    4     -3.16      0.00
   -1   15    4     -0.15      0.00
    0   15    4      0.74      0.00
    1   15    4     -2.60      0.00
    2   15    4     -2.79      0.00
    3   15    4      1.66      0.00
    4   15    4      1.17      0.00
    5   15    4     -0.04      0.00
    6   15    4      3.07      0.00
    7   15    4     -1.01      0.00
    8   15    4     -0.66      0.00
    9   15    4     -1.00      0.00
   10   15    4     -0.81      0.00
   11   15    4      1.23      0.00
   12   15    4      1.15      0.00
   13   15    4     -0.78      0.00
   -4   16    4      0.54      0.00
   -3   16    4     -0.17      0.00
   -2   16    4      0.04      0.00
   -1   16    4      1.02      0.00
    0   16    4     -0.21      0.00
    1   16    4     -2.00      0.00
    2   16    4     -2.24      0.00
    3   16    4      0.06      0.00
    4   16    4     -1.20      0.00
    5   16    4      2.22      0.00
    6   16    4      1.91      0.00
    7   16    4     -1.53      0.00
    8   16    4      0.38      0.00
    9   16    4     -1.25      0.00
   10   16    4      0.14      0.00
   11   16    4      1.44      0.00
   12   16    4      1.84      0.00
   -3   17    4      1.27      0.00
   -2   17    4      1.73      0.00
   -1   17    4      0.90      0.00
    0   17    4      0.24      0.00
    1   17    4     -1.72      0.00
    2   17    4     -2.70      0.00
    3   17    4     -0.39      0.00
    4   17    4     -1.31      0.00
    5   17    4      2.73      0.00
    6   17    4     -0.34      0.00
    7   17    4     -0.87      0.00
    8   17    4     -0.17      0.00
    9   17    4     -0.87      0.00
   10   17    4      0.34      0.00
   11   17    4      1.68      0.00
   -1   18    4      2.07      0.00
    0   18    4      0.54      0.00
    1   18    4     -2.31      0.00
    2   18    4     -1.72      0.00
    3   18    4      0.72      0.00
    4   18    4     -0.21      0.00
    5   18    4      1.48      0.00
    6   18    4     -1.60      0.00
    7   18    4     -0.26      0.00
    8   18    4     -0.23      0.00
    9   18    4     -0.33      0.00
    3   19    4      1.39      0.00
    4   19    4      0.65      0.00
    5   19    4      0.03      0.00
    6   19    4     -0.87      0.00
   -6  -15    5     -0.46      0.00
   -5  -15    5      1.94      0.00
   -4  -15    5      0.57      0.00
   -3  -15    5     -0.57      0.00
   -2  -15    5      0.08      0.00
   -1  -15    5     -1.25      0.00
    0  -15    5     -1.21      0.00
    1  -15    5      1.09      0.00
    2  -15    5      0.12      0.00
   -8  -14    5      1.44      0.00
   -7  -14    5      0.09      0.00
   -6  -14    5     -0.21      0.00
   -5  -14    5      1.47      0.00
   -4  -14    5      0.13      0.00
   -3  -14    5     -0.07      0.00
   -2  -14    5     -0.24      0.00
   -1  -14    5     -1.78      0.00
    0  -14    5      0.13      0.00
    1  -14    5      0.70      0.00
    2  -14    5     -0.55      0.00
    3  -14    5      1.83      0.00
    4  -14    5      2.42      0.00
   -9  -13    5      0.57      0.00
   -8  -13    5      0.96      0.00
   -7  -13    5      0.40      0.00
   -6  -13    5     -0.98      0.00
   -5  -13    5      0.01      0.00
   -4  -13    5     -0.73      0.00
   -3  -13    5      0.71      0.00
   -2  -13    5      0.61      0.00
   -1  -13    5     -0.35      0.00
    0  -13    5      0.65      0.00
    1  -13    5     -1.07      0.00
    2  -13    5     -0.91      0.00
    3  -13    5      1.14      0.00
    4  -13    5      2.21      0.00
    5  -13    5      0.16      0.00
    6  -13    5     -1.17      0.00
  -10  -12    5      0.38      0.00
   -9  -12    5      0.14      0.00
   -8  -12    5      0.30      0.00
   -7  -12    5     -0.28      0.00
   -6  -12    5     -2.13      0.00
   -5  -12    5     -2.16      0.00
   -4  -12    5     -1.38      0.00
   -3  -12    5      2.38      0.00
   -2  -12    5      2.26      0.00
   -1  -12    5      0.32      0.00
    0  -12    5     -0.21      0.00
    1  -12    5     -1.54      0.00
    2  -12    5     -1.08      0.00
    3  -12    5      0.13      0.00
    4  -12    5      1.01      0.00
    5  -12    5     -1.57      0.00
    6  -12    5      0.03      0.00
    7  -12    5      0.70      0.00
    8  -12    5     -0.85      0.00
  -11  -11    5      1.41      0.00
  -10  -11    5     -0.28      0.00
   -9  -11    5      0.88      0.00
   -8  -11    5     -0.96      0.00
   -7  -11    5     -1.41      0.00
   -6  -11    5     -1.76      0.00
   -5  -11    5     -3.83      0.00
   -4  -11    5     -1.24      0.00
   -3  -11    5      3.44      0.00
   -2  -11    5      2.15      0.00
   -1  -11    5     -0.11      0.00
    0  -11    5     -0.33      0.00
    1  -11    5     -0.49      0.00
    2  -11    5     -0.96      0.00
    3  -11    5     -0.26      0.00
    4  -11    5     -0.85      0.00
    5  -11    5     -2.36      0.00
    6  -11    5      1.32      0.00
    7  -11    5      0.71      0.00
    8  -11    5      0.61      0.00
    9  -11    5      0.49      0.00
  -11  -10    5      0.77      0.00
  -10  -10    5      0.89      0.00
   -9  -10    5      1.41      0.00
   -8  -10    5     -2.73      0.00
   -7  -10    5      0.23      0.00
   -6  -10    5      0.13      0.00
   -5  -10    5     -4.22      0.00
   -4  -10    5     -1.16      0.00
   -3  -10    5      2.81      0.00
   -2  -10    5      0.95      0.00
   -1  -10    5     -0.02      0.00
    0  -10    5     -0.20      0.00
    1  -10    5      1.14      0.00
    2  -10    5     -0.63      0.00
    3  -10    5     -0.43      0.00
    4  -10    5     -1.44      0.00
    5  -10    5     -1.52      0.00
    6  -10    5      1.26      0.00
    7  -10    5      0.89      0.00
    8  -10    5      2.40      0.00
    9  -10    5     -0.27      0.00
   10  -10    5     -1.84      0.00
  -12   -9    5      0.61      0.00
  -11   -9    5      0.08      0.00
  -10   -9    5      2.92      0.00
   -9   -9    5     -0.24      0.00
   -8   -9    5     -1.79      0.00
   -7   -9    5      3.34      0.00
   -6   -9    5      1.00      0.00
   -5   -9    5     -2.70      0.00
   -4   -9    5     -1.26      0.00
   -3   -9    5      2.27      0.00
   -2   -9    5     -0.13      0.00
   -1   -9    5     -0.16      0.00
    0   -9    5     -0.03      0.00
    1   -9    5      3.41      0.00
    2   -9    5     -1.32      0.00
    3   -9    5     -0.46      0.00
    4   -9    5     -0.34      0.00
    5   -9    5     -1.35      0.00
    6   -9    5     -0.38      0.00
    7   -9    5      2.24      0.00
    8   -9    5      3.94      0.00
    9   -9    5     -0.93      0.00
   10   -9    5     -0.77      0.00
   11   -9    5      1.60      0.00
  -12   -8    5     -0.62      0.00
  -11   -8    5      0.59      0.00
  -10   -8    5      3.16      0.00
   -9   -8    5     -1.55      0.00
   -8   -8    5      0.79      0.00
   -7   -8    5      3.26      0.00
   -6   -8    5      1.89      0.00
   -5   -8    5     -0.22      0.00
   -4   -8    5     -0.45      0.00
   -3   -8    5      1.77      0.00
   -2   -8    5     -1.82      0.00
   -1   -8    5      0.09      0.00
    0   -8    5      1.65      0.00
    1   -8    5      4.21      0.00
    2   -8    5     -3.32      0.00
    3   -8    5      1.39      0.00
    4   -8    5      0.92      0.00
    5   -8    5     -3.53      0.00
    6   -8    5     -1.69      0.00
    7   -8    5      4.35      0.00
    8   -8    5      2.95      0.00
    9   -8    5     -1.65      0.00
   10   -8    5      1.59      0.00
   11   -8    5      1.28      0.00
  -13   -7    5     -0.01      0.00
  -12   -7    5     -0.69      0.00
  -11   -7    5      1.53      0.00
  -10   -7    5      2.28      0.00
   -9   -7    5     -1.86      0.00
   -8   -7    5      1.18      0.00
   -7   -7    5      2.13      0.00
   -6   -7    5      3.41      0.00
   -5   -7    5      0.79      0.00
   -4   -7    5      1.47      0.00
   -3   -7    5     -1.35      0.00
   -2   -7    5     -2.13      0.00
   -1   -7    5      1.84      0.00
    0   -7    5      2.94      0.00
    1   -7    5      1.46      0.00
    2   -7    5     -3.71      0.00
    3   -7    5      5.59      0.00
    4   -7    5      0.42      0.00
    5   -7    5     -5.32      0.00
    6   -7    5     -0.49      0.00
    7   -7    5      4.28      0.00
    8   -7    5     -1.28      0.00
    9   -7    5     -1.30      0.00
   10   -7    5      3.13      0.00
   11   -7    5     -0.45      0.00
   12   -7    5      0.51      0.00
  -13   -6    5      0.58      0.00
  -12   -6    5      0.12      0.00
  -11   -6    5      2.45      0.00
  -10   -6    5      0.53      0.00
   -9   -6    5     -2.36      0.00
   -8   -6    5      1.24      0.00
   -7   -6    5      2.33      0.00
   -6   -6    5      2.86      0.00
   -5   -6    5      1.26      0.00
   -4   -6    5      1.75      0.00
   -3   -6    5     -5.29      0.00
   -2   -6    5      0.59      0.00
   -1   -6    5      1.97      0.00
    0   -6    5      2.32      0.00
    1   -6    5     -2.63      0.00
    2   -6    5     -1.22      0.00
    3   -6    5      9.30      0.00
    4   -6    5     -0.73      0.00
    5   -6    5     -3.29      0.00
    6   -6    5      1.19      0.00
    7   -6    5      1.17      0.00
    8   -6    5     -4.82      0.00
    9   -6    5     -0.28      0.00
   10   -6    5      1.98      0.00
   11   -6    5     -1.18      0.00
   12   -6    5      0.13      0.00
   13   -6    5     -1.81      0.00
  -13   -5    5      0.29      0.00
  -12   -5    5      0.93      0.00
  -11   -5    5      2.12      0.00
  -10   -5    5     -1.69      0.00
   -9   -5    5     -1.35      0.00
   -8   -5    5      1.78      0.00
   -7   -5    5      1.51      0.00
   -6   -5    5      1.35      0.00
   -5   -5    5      1.59      0.00
   -4   -5    5     -0.82      0.00
   -3   -5    5     -4.94      0.00
   -2   -5    5      1.42      0.00
   -1   -5    5     -0.48      0.00
    0   -5    5      2.06      0.00
    1   -5    5     -6.18      0.00
    2   -5    5      2.63      0.00
    3   -5    5     11.55      0.00
    4   -5    5     -0.78      0.00
    5   -5    5     -0.33      0.00
    6   -5    5      0.72      0.00
    7   -5    5     -1.46      0.00
    8   -5    5     -5.25      0.00
    9   -5    5      0.13      0.00
   10   -5    5      1.07      0.00
   11   -5    5      0.11      0.00
   12   -5    5     -1.76      0.00
   13   -5    5     -1.73      0.00
  -13   -4    5     -0.53      0.00
  -12   -4    5      0.62      0.00
  -11   -4    5      0.44      0.00
  -10   -4    5     -1.89      0.00
   -9   -4    5      0.36      0.00
   -8   -4    5      0.56      0.00
   -7   -4    5      0.32      0.00
   -6   -4    5      0.38      0.00
   -5   -4    5      0.12      0.00
   -4   -4    5     -1.98      0.00
   -3   -4    5     -1.99      0.00
   -2   -4    5     -3.32      0.00
   -1   -4    5     -1.63      0.00
    0   -4    5      2.18      0.00
    1   -4    5     -9.15      0.00
    2   -4    5      8.24      0.00
    3   -4    5     12.19      0.00
    4   -4    5     -1.04      0.00
    5   -4    5      0.81      0.00
    6   -4    5     -0.33      0.00
    7   -4    5     -2.34      0.00
    8   -4    5     -4.13      0.00
    9   -4    5      0.81      0.00
   10   -4    5      1.80      0.00
   11   -4    5      0.66      0.00
   12   -4    5     -3.08      0.00
   13   -4    5     -0.10      0.00
   14   -4    5      1.83      0.00
  -13   -3    5     -1.02      0.00
  -12   -3    5     -0.79      0.00
  -11   -3    5     -0.24      0.00
  -10   -3    5     -0.72      0.00
   -9   -3    5      0.15      0.00
   -8   -3    5     -0.93      0.00
   -7   -3    5      0.15      0.00
   -6   -3    5     -1.21      0.00
   -5   -3    5     -0.77      0.00
   -4   -3    5     -0.14      0.00
   -3   -3    5     -1.69      0.00
   -2   -3    5     -9.12      0.00
   -1   -3    5     -0.19      0.00
    0   -3    5      0.01      0.00
    1   -3    5    -10.57      0.00
    2   -3    5     14.90      0.00
    3   -3    5      8.85      0.00
    4   -3    5     -0.18      0.00
    5   -3    5      1.79      0.00
    6   -3    5     -1.25      0.00
    7   -3    5     -2.94      0.00
    8   -3    5     -2.39      0.00
    9   -3    5      1.70      0.00
   10   -3    5      1.77      0.00
   11   -3    5      0.75      0.00
   12   -3    5     -1.83      0.00
   13   -3    5      0.28      0.00
   14   -3    5      0.23      0.00
  -13   -2    5     -1.31      0.00
  -12   -2    5     -1.28      0.00
  -11   -2    5      0.29      0.00
  -10   -2    5     -0.59      0.00
   -9   -2    5     -0.86      0.00
   -8   -2    5     -1.07      0.00
   -7   -2    5      0.27      0.00
   -6   -2    5     -2.20      0.00
   -5   -2    5      0.53      0.00
   -4   -2    5      1.80      0.00
   -3   -2    5     -2.80      0.00
   -2   -2    5    -10.48      0.00
   -1   -2    5      1.56      0.00
    0   -2    5     -5.81      0.00
    1   -2    5     -7.51      0.00
    2   -2    5     18.62      0.00
    3   -2    5      1.44      0.00
    4   -2    5      3.44      0.00
    5   -2    5      1.96      0.00
    6   -2    5     -1.97      0.00
    7   -2    5     -2.89      0.00
    8   -2    5     -0.57      0.00
    9   -2    5      1.32      0.00
   10   -2    5      0.66      0.00
   11   -2    5      1.40      0.00
   12   -2    5     -0.47      0.00
   13   -2    5     -0.32      0.00
   14   -2    5     -0.25      0.00
   15   -2    5     -0.36      0.00
  -13   -1    5     -0.99      0.00
  -12   -1    5     -0.48      0.00
  -11   -1    5      0.38      0.00
  -10   -1    5     -0.72      0.00
   -9   -1    5     -1.25      0.00
   -8   -1    5     -0.81      0.00
   -7   -1    5      0.68      0.00
   -6   -1    5     -2.24      0.00
   -5   -1    5      1.96      0.00
   -4   -1    5      3.18      0.00
   -3   -1    5     -1.97      0.00
   -2   -1    5     -6.83      0.00
   -1   -1    5      0.63      0.00
    0   -1    5    -10.74      0.00
    1   -1    5      4.02      0.00
    2   -1    5     13.70      0.00
    3   -1    5     -7.57      0.00
    4   -1    5      6.55      0.00
    5   -1    5      1.61      0.00
    6   -1    5     -1.29      0.00
    7   -1    5     -2.59      0.00
    8   -1    5      0.29      0.00
    9   -1    5     -0.37      0.00
   10   -1    5     -0.31      0.00
   11   -1    5      1.32      0.00
   12   -1    5      0.34      0.00
   13   -1    5      0.36      0.00
   14   -1    5     -0.08      0.00
   15   -1    5     -0.40      0.00
  -13    0    5     -0.21      0.00
  -12    0    5     -0.21      0.00
  -11    0    5      0.54      0.00
  -10    0    5      0.16      0.00
   -9    0    5     -1.64      0.00
   -8    0    5     -0.57      0.00
   -7    0    5      1.00      0.00
   -6    0    5     -2.43      0.00
   -5    0    5      2.08      0.00
   -4    0    5      3.34      0.00
   -3    0    5      0.87      0.00
   -2    0    5     -2.23      0.00
   -1    0    5     -3.08      0.00
    0    0    5     -5.41      0.00
    1    0    5     17.87      0.00
    2    0    5     -2.13      0.00
    3    0    5    -13.34      0.00
    4    0    5      7.33      0.00
    5    0    5      3.15      0.00
    6    0    5     -0.77      0.00
    7    0    5     -2.62      0.00
    8    0    5     -0.18      0.00
    9    0    5     -2.25      0.00
   10    0    5     -0.69      0.00
   11    0    5      0.14      0.00
   12    0    5      1.24      0.00
   13    0    5      1.07      0.00
   14    0    5     -0.63      0.00
   15    0    5     -1.14      0.00
  -13    1    5     -0.04      0.00
  -12    1    5     -0.48      0.00
  -11    1    5      1.85      0.00
  -10    1    5      0.60      0.00
   -9    1    5     -2.43      0.00
   -8    1    5      0.29      0.00
   -7    1    5      1.02      0.00
   -6    1    5     -2.77      0.00
   -5    1    5     -0.25      0.00
   -4    1    5      2.14      0.00
   -3    1    5      4.23      0.00
   -2    1    5     -1.51      0.00
   -1    1    5     -4.41      0.00
    0    1    5      7.75      0.00
    1    1    5     20.60      0.00
    2    1    5    -18.49      0.00
    3    1    5    -13.25      0.00
    4    1    5      5.03      0.00
    5    1    5      5.21      0.00
    6    1    5     -0.67      0.00
    7    1    5     -2.08      0.00
    8    1    5     -1.49      0.00
    9    1    5     -2.30      0.00
   10    1    5     -1.06      0.00
   11    1    5     -1.84      0.00
   12    1    5      1.61      0.00
   13    1    5      1.11      0.00
   14    1    5     -1.56      0.00
   15    1    5     -1.69      0.00
   16    1    5      1.53      0.00
  -13    2    5     -0.27      0.00
  -12    2    5     -0.10      0.00
  -11    2    5      2.72      0.00
  -10    2    5     -0.89      0.00
   -9    2    5     -2.40      0.00
   -8    2    5      2.04      0.00
   -7    2    5      0.56      0.00
   -6    2    5     -2.99      0.00
   -5    2    5     -3.45      0.00
   -4    2    5      1.63      0.00
   -3    2    5      5.35      0.00
   -2    2    5     -3.26      0.00
   -1    2    5     -1.57      0.00
    0    2    5     15.31      0.00
    1    2    5     13.65      0.00
    2    2    5    -24.58      0.00
    3    2    5    -13.34      0.00
    4    2    5     -0.87      0.00
    5    2    5      6.61      0.00
    6    2    5      0.43      0.00
    7    2    5     -2.34      0.00
    8    2    5     -1.60      0.00
    9    2    5      0.02      0.00
   10    2    5     -2.42      0.00
   11    2    5     -3.25      0.00
   12    2    5      2.03      0.00
   13    2    5      1.08      0.00
   14    2    5     -2.22      0.00
   15    2    5     -1.14      0.00
   16    2    5      1.21      0.00
  -13    3    5     -0.34      0.00
  -12    3    5      0.20      0.00
  -11    3    5      1.51      0.00
  -10    3    5     -2.61      0.00
   -9    3    5     -0.87      0.00
   -8    3    5      2.71      0.00
   -7    3    5     -0.14      0.00
   -6    3    5     -1.82      0.00
   -5    3    5     -5.34      0.00
   -4    3    5      1.24      0.00
   -3    3    5      4.74      0.00
   -2    3    5     -2.33      0.00
   -1    3    5      0.42      0.00
    0    3    5     14.29      0.00
    1    3    5      7.09      0.00
    2    3    5    -22.79      0.00
    3    3    5    -16.00      0.00
    4    3    5     -6.62      0.00
    5    3    5      7.16      0.00
    6    3    5     -0.43      0.00
    7    3    5     -3.78      0.00
    8    3    5      0.77      0.00
    9    3    5      2.48      0.00
   10    3    5     -3.54      0.00
   11    3    5     -2.60      0.00
   12    3    5      2.15      0.00
   13    3    5      0.39      0.00
   14    3    5     -1.50      0.00
   15    3    5     -0.05      0.00
   16    3    5     -0.09      0.00
  -13    4    5     -0.75      0.00
  -12    4    5     -0.58      0.00
  -11    4    5     -0.16      0.00
  -10    4    5     -2.51      0.00
   -9    4    5      0.17      0.00
   -8    4    5      1.64      0.00
   -7    4    5      0.80      0.00
   -6    4    5     -0.77      0.00
   -5    4    5     -7.12      0.00
   -4    4    5      1.32      0.00
   -3    4    5      5.82      0.00
   -2    4    5      0.38      0.00
   -1    4    5     -1.41      0.00
    0    4    5     10.24      0.00
    1    4    5      3.97      0.00
    2    4    5    -15.54      0.00
    3    4    5    -16.27      0.00
    4    4    5     -9.34      0.00
    5    4    5      5.14      0.00
    6    4    5     -3.64      0.00
    7    4    5     -3.07      0.00
    8    4    5      3.37      0.00
    9    4    5      3.72      0.00
   10    4    5     -3.17      0.00
   11    4    5     -1.28      0.00
   12    4    5      0.71      0.00
   13    4    5     -0.33      0.00
   14    4    5      0.50      0.00
   15    4    5      0.39      0.00
   16    4    5     -0.15      0.00
  -12    5    5     -1.08      0.00
  -11    5    5     -0.29      0.00
  -10    5    5     -1.79      0.00
   -9    5    5     -0.03      0.00
   -8    5    5      1.15      0.00
   -7    5    5      2.22      0.00
   -6    5    5     -2.68      0.00
   -5    5    5     -6.84      0.00
   -4    5    5      3.62      0.00
   -3    5    5      6.42      0.00
   -2    5    5      0.32      0.00
   -1    5    5     -5.16      0.00
    0    5    5      6.80      0.00
    1    5    5      5.18      0.00
    2    5    5     -4.88      0.00
    3    5    5    -13.63      0.00
    4    5    5     -8.85      0.00
    5    5    5      1.69      0.00
    6    5    5     -3.85      0.00
    7    5    5      0.25      0.00
    8    5    5      4.39      0.00
    9    5    5      3.99      0.00
   10    5    5     -2.21      0.00
   11    5    5     -0.86      0.00
   12    5    5     -1.21      0.00
   13    5    5      0.17      0.00
   14    5    5      1.70      0.00
   15    5    5      0.54      0.00
   16    5    5      0.82      0.00
  -12    6    5     -0.07      0.00
  -11    6    5     -0.03      0.00
  -10    6    5     -1.47      0.00
   -9    6    5      0.02      0.00
   -8    6    5      1.28      0.00
   -7    6    5      1.95      0.00
   -6    6    5     -4.38      0.00
   -5    6    5     -2.53      0.00
   -4    6    5      4.47      0.00
   -3    6    5      3.33      0.00
   -2    6    5     -1.68      0.00
   -1    6    5     -6.68      0.00
    0    6    5      5.59      0.00
    1    6    5      7.25      0.00
    2    6    5      2.88      0.00
    3    6    5     -8.81      0.00
    4    6    5     -6.23      0.00
    5    6    5     -0.45      0.00
    6    6    5     -0.14      0.00
    7    6    5      3.16      0.00
    8    6    5      5.07      0.00
    9    6    5      3.56      0.00
   10    6    5     -1.05      0.00
   11    6    5     -1.19      0.00
   12    6    5     -1.75      0.00
   13    6    5      1.36      0.00
   14    6    5      1.41      0.00
   15    6    5      1.20      0.00
   16    6    5      1.17      0.00
  -12    7    5      1.00      0.00
  -11    7    5     -0.65      0.00
  -10    7    5     -0.54      0.00
   -9    7    5      0.19      0.00
   -8    7    5      1.13      0.00
   -7    7    5      1.18      0.00
   -6    7    5     -3.06      0.00
   -5    7    5      1.43      0.00
   -4    7    5      1.35      0.00
   -3    7    5      0.03      0.00
   -2    7    5     -1.44      0.00
   -1    7    5     -4.58      0.00
    0    7    5      3.50      0.00
    1    7    5      6.13      0.00
    2    7    5      7.84      0.00
    3    7    5     -3.46      0.00
    4    7    5     -4.24      0.00
    5    7    5     -0.70      0.00
    6    7    5      3.22      0.00
    7    7    5      4.73      0.00
    8    7    5      5.87      0.00
    9    7    5      2.83      0.00
   10    7    5     -0.16      0.00
   11    7    5     -1.65      0.00
   12    7    5     -0.75      0.00
   13    7    5      1.97      0.00
   14    7    5      0.72      0.00
   15    7    5      1.73      0.00
   16    7    5      0.79      0.00
  -11    8    5     -0.93      0.00
  -10    8    5      0.96      0.00
   -9    8    5     -0.14      0.00
   -8    8    5      0.78      0.00
   -7    8    5      0.40      0.00
   -6    8    5     -0.33      0.00
   -5    8    5      2.42      0.00
   -4    8    5     -2.30      0.00
   -3    8    5     -0.34      0.00
   -2    8    5      0.50      0.00
   -1    8    5     -2.53      0.00
    0    8    5     -0.44      0.00
    1    8    5      5.29      0.00
    2    8    5     10.04      0.00
    3    8    5     -1.18      0.00
    4    8    5     -2.22      0.00
    5    8    5     -0.04      0.00
    6    8    5      4.46      0.00
    7    8    5      5.10      0.00
    8    8    5      5.62      0.00
    9    8    5      2.34      0.00
   10    8    5     -0.20      0.00
   11    8    5     -1.27      0.00
   12    8    5      0.24      0.00
   13    8    5      1.59      0.00
   14    8    5     -0.22      0.00
   15    8    5      1.17      0.00
   16    8    5      0.58      0.00
  -11    9    5     -0.07      0.00
  -10    9    5      1.34      0.00
   -9    9    5     -0.73      0.00
   -8    9    5      0.05      0.00
   -7    9    5     -0.03      0.00
   -6    9    5      2.22      0.00
   -5    9    5      2.08      0.00
   -4    9    5     -4.09      0.00
   -3    9    5      0.23      0.00
   -2    9    5      1.11      0.00
   -1    9    5     -1.68      0.00
    0    9    5     -2.37      0.00
    1    9    5      4.22      0.00
    2    9    5      7.24      0.00
    3    9    5      0.63      0.00
    4    9    5      0.28      0.00
    5    9    5      0.26      0.00
    6    9    5      4.44      0.00
    7    9    5      3.45      0.00
    8    9    5      4.88      0.00
    9    9    5      2.29      0.00
   10    9    5     -0.31      0.00
   11    9    5     -0.25      0.00
   12    9    5      0.38      0.00
   13    9    5      0.57      0.00
   14    9    5     -1.67      0.00
   15    9    5      0.22      0.00
   16    9    5      0.73      0.00
  -10   10    5      0.15      0.00
   -9   10    5     -0.56      0.00
   -8   10    5      0.16      0.00
   -7   10    5     -0.34      0.00
   -6   10    5      2.84      0.00
   -5   10    5      1.97      0.00
   -4   10    5     -4.35      0.00
   -3   10    5      0.28      0.00
   -2   10    5      0.69      0.00
   -1   10    5     -0.83      0.00
    0   10    5     -2.95      0.00
    1   10    5      1.12      0.00
    2   10    5      4.66      0.00
    3   10    5      2.87      0.00
    4   10    5      0.25      0.00
    5   10    5      0.53      0.00
    6   10    5      2.54      0.00
    7   10    5      0.36      0.00
    8   10    5      4.65      0.00
    9   10    5      2.27      0.00
   10   10    5      0.06      0.00
   11   10    5      0.24      0.00
   12   10    5      0.62      0.00
   13   10    5     -0.66      0.00
   14   10    5     -2.21      0.00
   15   10    5     -0.06      0.00
   16   10    5      0.60      0.00
   -9   11    5      1.30      0.00
   -8   11    5      0.60      0.00
   -7   11    5     -2.65      0.00
   -6   11    5      2.19      0.00
   -5   11    5      2.25      0.00
   -4   11    5     -3.52      0.00
   -3   11    5      0.21      0.00
   -2   11    5     -0.32      0.00
   -1   11    5     -0.78      0.00
    0   11    5     -2.73      0.00
    1   11    5      0.18      0.00
    2   11    5      4.12      0.00
    3   11    5      2.21      0.00
    4   11    5     -0.31      0.00
    5   11    5      0.88      0.00
    6   11    5     -1.66      0.00
    7   11    5     -2.56      0.00
    8   11    5      4.02      0.00
    9   11    5      1.69      0.00
   10   11    5     -0.14      0.00
   11   11    5      0.02      0.00
   12   11    5      1.16      0.00
   13   11    5     -1.28      0.00
   14   11    5     -0.91      0.00
   15   11    5     -0.30      0.00
   -9   12    5      2.79      0.00
   -8   12    5     -0.75      0.00
   -7   12    5     -4.51      0.00
   -6   12    5      2.40      0.00
   -5   12    5      1.49      0.00
   -4   12    5     -1.97      0.00
   -3   12    5     -0.65      0.00
   -2   12    5     -1.56      0.00
   -1   12    5     -0.58      0.00
    0   12    5     -1.15      0.00
    1   12    5      0.37      0.00
    2   12    5      2.43      0.00
    3   12    5      1.39      0.00
    4   12    5      1.59      0.00
    5   12    5      0.64      0.00
    6   12    5     -6.02      0.00
    7   12    5     -4.27      0.00
    8   12    5      2.76      0.00
    9   12    5      0.16      0.00
   10   12    5     -1.62      0.00
   11   12    5     -0.52      0.00
   12   12    5      1.28      0.00
   13   12    5     -0.66      0.00
   14   12    5      0.15      0.00
   15   12    5     -0.96      0.00
   -8   13    5     -1.94      0.00
   -7   13    5     -2.79      0.00
   -6   13    5      2.13      0.00
   -5   13    5      0.11      0.00
   -4   13    5     -0.58      0.00
   -3   13    5     -1.42      0.00
   -2   13    5     -1.02      0.00
   -1   13    5     -0.81      0.00
    0   13    5     -1.54      0.00
    1   13    5     -0.56      0.00
    2   13    5      0.85      0.00
    3   13    5      1.84      0.00
    4   13    5      4.14      0.00
    5   13    5      0.54      0.00
    6   13    5     -8.09      0.00
    7   13    5     -3.22      0.00
    8   13    5      1.10      0.00
    9   13    5     -2.11      0.00
   10   13    5     -3.15      0.00
   11   13    5     -0.91      0.00
   12   13    5      1.11      0.00
   13   13    5      0.12      0.00
   14   13    5     -0.57      0.00
   15   13    5     -1.07      0.00
   -7   14    5     -0.27      0.00
   -6   14    5      1.09      0.00
   -5   14    5     -0.39      0.00
   -4   14    5      0.19      0.00
   -3   14    5      0.31      0.00
   -2   14    5     -0.45      0.00
   -1   14    5     -3.17      0.00
    0   14    5     -2.65      0.00
    1   14    5     -0.65      0.00
    2   14    5     -0.85      0.00
    3   14    5      1.34      0.00
    4   14    5      5.86      0.00
    5   14    5      0.17      0.00
    6   14    5     -6.30      0.00
    7   14    5     -0.38      0.00
    8   14    5     -1.62      0.00
    9   14    5     -2.95      0.00
   10   14    5     -3.30      0.00
   11   14    5     -0.82      0.00
   12   14    5      0.70      0.00
   13   14    5      0.01      0.00
   14   14    5     -1.50      0.00
   -6   15    5      0.65      0.00
   -5   15    5     -0.99      0.00
   -4   15    5      1.06      0.00
   -3   15    5      2.20      0.00
   -2   15    5     -1.84      0.00
   -1   15    5     -3.79      0.00
    0   15    5     -1.98      0.00
    1   15    5     -1.09      0.00
    2   15    5     -2.44      0.00
    3   15    5      1.06      0.00
    4   15    5      5.26      0.00
    5   15    5     -0.77      0.00
    6   15    5     -1.57      0.00
    7   15    5      0.23      0.00
    8   15    5     -3.27      0.00
    9   15    5     -1.47      0.00
   10   15    5     -2.61      0.00
   11   15    5     -0.57      0.00
   12   15    5      0.09      0.00
   13   15    5     -0.05      0.00
   -4   16    5      1.41      0.00
   -3   16    5      1.35      0.00
   -2   16    5     -1.67      0.00
   -1   16    5     -1.97      0.00
    0   16    5     -2.28      0.00
    1   16    5     -1.45      0.00
    2   16    5     -1.58      0.00
    3   16    5      0.59      0.00
    4   16    5      2.15      0.00
    5   16    5     -0.59      0.00
    6   16    5      2.00      0.00
    7   16    5     -1.18      0.00
    8   16    5     -1.98      0.00
    9   16    5     -0.37      0.00
   10   16    5     -1.64      0.00
   11   16    5     -0.37      0.00
   12   16    5      0.25      0.00
   -3   17    5      0.40      0.00
   -2   17    5      0.24      0.00
   -1   17    5     -1.68      0.00
    0   17    5     -2.40      0.00
    1   17    5      0.02      0.00
    2   17    5     -1.12      0.00
    3   17    5     -0.87      0.00
    4   17    5     -0.23      0.00
    5   17    5      0.61      0.00
    6   17    5      2.37      0.00
    7   17    5     -1.60      0.00
    8   17    5     -0.47      0.00
    9   17    5     -0.41      0.00
   10   17    5     -0.44      0.00
   11   17    5     -0.06      0.00
   -1   18    5     -1.19      0.00
    0   18    5     -0.28      0.00
    1   18    5      0.33      0.00
    2   18    5     -2.35      0.00
    3   18    5     -0.76      0.00
    4   18    5     -0.62      0.00
    5   18    5      1.14      0.00
    6   18    5      0.73      0.00
    7   18    5     -1.03      0.00
    8   18    5     -0.27      0.00
    9   18    5     -0.15      0.00
   10   18    5     -0.01      0.00
    2   19    5     -1.82      0.00
    3   19    5      0.93      0.00
    4   19    5     -0.22      0.00
    5   19    5      0.46      0.00
    6   19    5     -0.82      0.00
    7   19    5     -0.08      0.00
   -3  -15    6     -0.44      0.00
   -2  -15    6     -0.38      0.00
   -1  -15    6      0.29      0.00
    0  -15    6     -0.71      0.00
   -6  -14    6     -0.99      0.00
   -5  -14    6      0.22      0.00
   -4  -14    6      2.40      0.00
   -3  -14    6     -0.68      0.00
   -2  -14    6     -1.00      0.00
   -1  -14    6     -0.87      0.00
    0  -14    6     -1.39      0.00
    1  -14    6      0.10      0.00
    2  -14    6      0.32      0.00
    3  -14    6      0.39      0.00
   -8  -13    6      0.95      0.00
   -7  -13    6      0.61      0.00
   -6  -13    6     -0.75      0.00
   -5  -13    6      0.58      0.00
   -4  -13    6      2.18      0.00
   -3  -13    6     -0.98      0.00
   -2  -13    6     -1.41      0.00
   -1  -13    6     -0.68      0.00
    0  -13    6     -0.48      0.00
    1  -13    6     -0.02      0.00
    2  -13    6      0.12      0.00
    3  -13    6      0.29      0.00
    4  -13    6      1.67      0.00
    5  -13    6      2.52      0.00
   -9  -12    6     -0.22      0.00
   -8  -12    6      1.50      0.00
   -7  -12    6      0.85      0.00
   -6  -12    6     -1.02      0.00
   -5  -12    6     -0.31      0.00
   -4  -12    6      0.29      0.00
   -3  -12    6     -0.43      0.00
   -2  -12    6      0.25      0.00
   -1  -12    6      1.10      0.00
    0  -12    6     -0.35      0.00
    1  -12    6     -1.03      0.00
    2  -12    6     -0.11      0.00
    3  -12    6     -0.69      0.00
    4  -12    6      1.91      0.00
    5  -12    6      2.48      0.00
    6  -12    6     -0.98      0.00
    7  -12    6     -0.93      0.00
  -10  -11    6      0.05      0.00
   -9  -11    6     -0.49      0.00
   -8  -11    6      1.75      0.00
   -7  -11    6     -0.30      0.00
   -6  -11    6     -1.94      0.00
   -5  -11    6     -1.81      0.00
   -4  -11    6     -1.88      0.00
   -3  -11    6      1.24      0.00
   -2  -11    6      2.95      0.00
   -1  -11    6      1.52      0.00
    0  -11    6     -0.82      0.00
    1  -11    6     -1.13      0.00
    2  -11    6     -0.13      0.00
    3  -11    6     -1.43      0.00
    4  -11    6      1.20      0.00
    5  -11    6      0.90      0.00
    6  -11    6     -0.83      0.00
    7  -11    6     -0.07      0.00
    8  -11    6     -1.07      0.00
  -11  -10    6      0.45      0.00
  -10  -10    6     -0.73      0.00
   -9  -10    6      0.77      0.00
   -8  -10    6      0.23      0.00
   -7  -10    6     -2.23      0.00
   -6  -10    6     -1.15      0.00
   -5  -10    6     -3.05      0.00
   -4  -10    6     -3.60      0.00
   -3  -10    6      2.12      0.00
   -2  -10    6      4.29      0.00
   -1  -10    6      0.57      0.00
    0  -10    6     -0.28      0.00
    1  -10    6     -0.91      0.00
    2  -10    6      0.34      0.00
    3  -10    6     -1.36      0.00
    4  -10    6      0.06      0.00
    5  -10    6     -0.67      0.00
    6  -10    6     -0.27      0.00
    7  -10    6      0.84      0.00
    8  -10    6      0.13      0.00
    9  -10    6      0.36      0.00
  -11   -9    6      0.40      0.00
  -10   -9    6     -0.06      0.00
   -9   -9    6      2.02      0.00
   -8   -9    6     -2.32      0.00
   -7   -9    6     -1.06      0.00
   -6   -9    6      0.84      0.00
   -5   -9    6     -4.14      0.00
   -4   -9    6     -4.61      0.00
   -3   -9    6      1.87      0.00
   -2   -9    6      4.50      0.00
   -1   -9    6     -0.33      0.00
    0   -9    6     -0.26      0.00
    1   -9    6     -0.74      0.00
    2   -9    6      1.82      0.00
    3   -9    6     -1.24      0.00
    4   -9    6     -0.70      0.00
    5   -9    6     -1.12      0.00
    6   -9    6      0.29      0.00
    7   -9    6      1.00      0.00
    8   -9    6      1.98      0.00
    9   -9    6      1.31      0.00
   10   -9    6     -2.14      0.00
  -12   -8    6     -0.44      0.00
  -11   -8    6     -0.35      0.00
  -10   -8    6      1.53      0.00
   -9   -8    6      1.95      0.00
   -8   -8    6     -2.38      0.00
   -7   -8    6      1.86      0.00
   -6   -8    6      1.07      0.00
   -5   -8    6     -3.29      0.00
   -4   -8    6     -4.36      0.00
   -3   -8    6      2.45      0.00
   -2   -8    6      3.37      0.00
   -1   -8    6     -1.31      0.00
    0   -8    6     -0.85      0.00
    1   -8    6      1.23      0.00
    2   -8    6      2.63      0.00
    3   -8    6     -2.57      0.00
    4   -8    6     -0.32      0.00
    5   -8    6     -0.84      0.00
    6   -8    6     -0.87      0.00
    7   -8    6      0.94      0.00
    8   -8    6      4.84      0.00
    9   -8    6      1.31      0.00
   10   -8    6     -2.05      0.00
   11   -8    6      1.56      0.00
  -12   -7    6     -1.34      0.00
  -11   -7    6     -0.78      0.00
  -10   -7    6      2.93      0.00
   -9   -7    6      1.44      0.00
   -8   -7    6     -1.10      0.00
   -7   -7    6      2.43      0.00
   -6   -7    6      1.49      0.00
   -5   -7    6     -0.64      0.00
   -4   -7    6     -2.80      0.00
   -3   -7    6      3.48      0.00
   -2   -7    6     -0.15      0.00
   -1   -7    6     -0.40      0.00
    0   -7    6      0.09      0.00
    1   -7    6      3.71      0.00
    2   -7    6      0.29      0.00
    3   -7    6     -3.30      0.00
    4   -7    6      1.78      0.00
    5   -7    6     -2.40      0.00
    6   -7    6     -3.26      0.00
    7   -7    6      2.40      0.00
    8   -7    6      5.80      0.00
    9   -7    6     -0.33      0.00
   10   -7    6      0.32      0.00
   11   -7    6      2.16      0.00
   12   -7    6     -0.20      0.00
  -12   -6    6     -1.35      0.00
  -11   -6    6     -0.01      0.00
  -10   -6    6      3.65      0.00
   -9   -6    6     -0.26      0.00
   -8   -6    6     -0.80      0.00
   -7   -6    6      2.45      0.00
   -6   -6    6      3.12      0.00
   -5   -6    6      0.69      0.00
   -4   -6    6      0.22      0.00
   -3   -6    6      1.68      0.00
   -2   -6    6     -2.65      0.00
   -1   -6    6      3.29      0.00
    0   -6    6      1.02      0.00
    1   -6    6      3.86      0.00
    2   -6    6     -3.04      0.00
    3   -6    6     -0.81      0.00
    4   -6    6      3.13      0.00
    5   -6    6     -4.89      0.00
    6   -6    6     -2.74      0.00
    7   -6    6      3.47      0.00
    8   -6    6      2.67      0.00
    9   -6    6     -1.59      0.00
   10   -6    6      2.09      0.00
   11   -6    6      0.38      0.00
   12   -6    6     -0.04      0.00
   13   -6    6      1.12      0.00
  -13   -5    6      0.35      0.00
  -12   -5    6     -0.47      0.00
  -11   -5    6      1.57      0.00
  -10   -5    6      2.34      0.00
   -9   -5    6     -2.43      0.00
   -8   -5    6      0.19      0.00
   -7   -5    6      3.00      0.00
   -6   -5    6      3.17      0.00
   -5   -5    6      1.21      0.00
   -4   -5    6      2.50      0.00
   -3   -5    6     -2.36      0.00
   -2   -5    6     -0.39      0.00
   -1   -5    6      4.17      0.00
    0   -5    6      0.74      0.00
    1   -5    6      3.08      0.00
    2   -5    6     -5.13      0.00
    3   -5    6      2.86      0.00
    4   -5    6      3.22      0.00
    5   -5    6     -4.04      0.00
    6   -5    6     -0.12      0.00
    7   -5    6      1.81      0.00
    8   -5    6     -0.96      0.00
    9   -5    6     -2.08      0.00
   10   -5    6      1.12      0.00
   11   -5    6     -0.42      0.00
   12   -5    6      0.69      0.00
   13   -5    6     -0.46      0.00
  -13   -4    6      0.27      0.00
  -12   -4    6      0.36      0.00
  -11   -4    6      1.91      0.00
  -10   -4    6      0.06      0.00
   -9   -4    6     -2.41      0.00
   -8   -4    6      1.33      0.00
   -7   -4    6      2.21      0.00
   -6   -4    6      2.22      0.00
   -5   -4    6      1.51      0.00
   -4   -4    6      1.70      0.00
   -3   -4    6     -3.28      0.00
   -2   -4    6      2.12      0.00
   -1   -4    6     -1.01      0.00
    0   -4    6      2.59      0.00
    1   -4    6      1.99      0.00
    2   -4    6     -6.95      0.00
    3   -4    6      7.43      0.00
    4   -4    6      3.69      0.00
    5   -4    6     -1.76      0.00
    6   -4    6      0.68      0.00
    7   -4    6      0.02      0.00
    8   -4    6     -2.35      0.00
    9   -4    6     -2.48      0.00
   10   -4    6      0.74      0.00
   11   -4    6      0.56      0.00
   12   -4    6     -0.50      0.00
   13   -4    6     -1.82      0.00
   14   -4    6      0.97      0.00
  -13   -3    6     -0.16      0.00
  -12   -3    6      0.02      0.00
  -11   -3    6      0.90      0.00
  -10   -3    6     -0.67      0.00
   -9   -3    6     -1.33      0.00
   -8   -3    6      0.98      0.00
   -7   -3    6      1.12      0.00
   -6   -3    6      1.28      0.00
   -5   -3    6     -0.09      0.00
   -4   -3    6      0.64      0.00
   -3   -3    6     -0.77      0.00
   -2   -3    6     -1.52      0.00
   -1   -3    6     -6.99      0.00
    0   -3    6      6.74      0.00
    1   -3    6     -2.05      0.00
    2   -3    6     -6.33      0.00
    3   -3    6     13.45      0.00
    4   -3    6      2.54      0.00
    5   -3    6     -0.63      0.00
    6   -3    6      0.34      0.00
    7   -3    6     -0.66      0.00
    8   -3    6     -2.80      0.00
    9   -3    6     -1.66      0.00
   10   -3    6      1.95      0.00
   11   -3    6      0.67      0.00
   12   -3    6     -1.39      0.00
   13   -3    6     -1.63      0.00
   14   -3    6      1.04      0.00
  -13   -2    6     -0.46      0.00
  -12   -2    6     -0.90      0.00
  -11   -2    6      0.60      0.00
  -10   -2    6     -0.64      0.00
   -9   -2    6     -1.26      0.00
   -8   -2    6      0.45      0.00
   -7   -2    6      0.79      0.00
   -6   -2    6     -0.22      0.00
   -5   -2    6     -1.96      0.00
   -4   -2    6      1.90      0.00
   -3   -2    6      0.40      0.00
   -2   -2    6     -9.16      0.00
   -1   -2    6     -8.72      0.00
    0   -2    6      7.99      0.00
    1   -2    6     -8.81      0.00
    2   -2    6     -0.43      0.00
    3   -2    6     16.00      0.00
    4   -2    6      0.68      0.00
    5   -2    6      1.47      0.00
    6   -2    6     -0.59      0.00
    7   -2    6     -1.56      0.00
    8   -2    6     -2.68      0.00
    9   -2    6      0.06      0.00
   10   -2    6      2.15      0.00
   11   -2    6      0.59      0.00
   12   -2    6     -0.48      0.00
   13   -2    6     -1.81      0.00
   14   -2    6      0.42      0.00
   15   -2    6      1.04      0.00
  -13   -1    6     -0.70      0.00
  -12   -1    6     -0.31      0.00
  -11   -1    6      1.00      0.00
  -10   -1    6     -1.29      0.00
   -9   -1    6     -1.47      0.00
   -8   -1    6      0.32      0.00
   -7   -1    6      0.90      0.00
   -6   -1    6     -1.46      0.00
   -5   -1    6     -1.83      0.00
   -4   -1    6      4.43      0.00
   -3   -1    6     -0.44      0.00
   -2   -1    6    -14.19      0.00
   -1   -1    6     -6.83      0.00
    0   -1    6      3.07      0.00
    1   -1    6    -13.08      0.00
    2   -1    6      7.89      0.00
    3   -1    6     11.44      0.00
    4   -1    6      2.00      0.00
    5   -1    6      3.11      0.00
    6   -1    6     -1.91      0.00
    7   -1    6     -2.07      0.00
    8   -1    6     -1.87      0.00
    9   -1    6      0.82      0.00
   10   -1    6      0.89      0.00
   11   -1    6      1.09      0.00
   12   -1    6      0.14      0.00
   13   -1    6     -1.32      0.00
   14   -1    6      0.66      0.00
   15   -1    6      1.00      0.00
  -13    0    6     -0.27      0.00
  -12    0    6      1.45      0.00
  -11    0    6      0.62      0.00
  -10    0    6     -1.44      0.00
   -9    0    6     -1.18      0.00
   -8    0    6      0.04      0.00
   -7    0    6      1.15      0.00
   -6    0    6     -2.22      0.00
   -5    0    6      0.03      0.00
   -4    0    6      6.60      0.00
   -3    0    6     -0.92      0.00
   -2    0    6    -13.16      0.00
   -1    0    6     -4.74      0.00
    0    0    6     -4.02      0.00
    1    0    6     -8.85      0.00
    2    0    6     12.37      0.00
    3    0    6      2.43      0.00
    4    0    6      4.80      0.00
    5    0    6      2.71      0.00
    6    0    6     -1.46      0.00
    7    0    6     -2.53      0.00
    8    0    6     -1.13      0.00
    9    0    6     -0.20      0.00
   10    0    6     -0.69      0.00
   11    0    6      1.39      0.00
   12    0    6      0.56      0.00
   13    0    6      0.59      0.00
   14    0    6      0.50      0.00
   15    0    6      0.22      0.00
  -13    1    6      0.52      0.00
  -12    1    6      1.78      0.00
  -11    1    6      0.13      0.00
  -10    1    6      0.10      0.00
   -9    1    6     -0.89      0.00
   -8    1    6     -0.64      0.00
   -7    1    6      1.16      0.00
   -6    1    6     -2.74      0.00
   -5    1    6      1.64      0.00
   -4    1    6      6.49      0.00
   -3    1    6      0.48      0.00
   -2    1    6     -8.28      0.00
   -1    1    6     -4.58      0.00
    0    1    6     -5.19      0.00
    1    1    6      2.10      0.00
    2    1    6      9.53      0.00
    3    1    6     -5.76      0.00
    4    1    6      6.09      0.00
    5    1    6      3.03      0.00
    6    1    6     -0.09      0.00
    7    1    6     -3.48      0.00
    8    1    6     -1.09      0.00
    9    1    6     -2.38      0.00
   10    1    6     -1.25      0.00
   11    1    6      0.97      0.00
   12    1    6      0.69      0.00
   13    1    6      1.58      0.00
   14    1    6     -0.21      0.00
   15    1    6     -0.82      0.00
   16    1    6     -0.25      0.00
  -13    2    6      0.36      0.00
  -12    2    6      0.61      0.00
  -11    2    6      1.18      0.00
  -10    2    6      1.56      0.00
   -9    2    6     -1.64      0.00
   -8    2    6     -0.71      0.00
   -7    2    6      1.45      0.00
   -6    2    6     -3.47      0.00
   -5    2    6      1.11      0.00
   -4    2    6      4.53      0.00
   -3    2    6      2.75      0.00
   -2    2    6     -4.97      0.00
   -1    2    6     -4.59      0.00
    0    2    6      0.38      0.00
    1    2    6     11.29      0.00
    2    2    6      2.55      0.00
    3    2    6    -10.56      0.00
    4    2    6      5.29      0.00
    5    2    6      4.44      0.00
    6    2    6      1.25      0.00
    7    2    6     -3.59      0.00
    8    2    6     -1.95      0.00
    9    2    6     -3.27      0.00
   10    2    6     -1.04      0.00
   11    2    6     -1.23      0.00
   12    2    6      0.34      0.00
   13    2    6      1.93      0.00
   14    2    6     -0.64      0.00
   15    2    6     -1.96      0.00
   16    2    6      0.64      0.00
  -13    3    6     -0.36      0.00
  -12    3    6      0.24      0.00
  -11    3    6      2.36      0.00
  -10    3    6      0.37      0.00
   -9    3    6     -2.32      0.00
   -8    3    6      1.07      0.00
   -7    3    6      1.15      0.00
   -6    3    6     -4.09      0.00
   -5    3    6      0.23      0.00
   -4    3    6      2.09      0.00
   -3    3    6      2.93      0.00
   -2    3    6     -3.74      0.00
   -1    3    6     -2.79      0.00
    0    3    6      5.48      0.00
    1    3    6     14.70      0.00
    2    3    6     -4.53      0.00
    3    3    6    -13.55      0.00
    4    3    6      2.10      0.00
    5    3    6      5.39      0.00
    6    3    6      3.15      0.00
    7    3    6     -4.03      0.00
    8    3    6     -2.40      0.00
    9    3    6     -1.53      0.00
   10    3    6     -1.64      0.00
   11    3    6     -3.65      0.00
   12    3    6      1.31      0.00
   13    3    6      2.23      0.00
   14    3    6     -1.35      0.00
   15    3    6     -2.42      0.00
   16    3    6      0.56      0.00
  -12    4    6      0.45      0.00
  -11    4    6      1.09      0.00
  -10    4    6     -1.67      0.00
   -9    4    6     -1.13      0.00
   -8    4    6      2.54      0.00
   -7    4    6     -0.35      0.00
   -6    4    6     -2.28      0.00
   -5    4    6     -0.70      0.00
   -4    4    6     -1.23      0.00
   -3    4    6      2.63      0.00
   -2    4    6     -0.94      0.00
   -1    4    6     -1.29      0.00
    0    4    6      5.95      0.00
    1    4    6     13.65      0.00
    2    4    6     -9.71      0.00
    3    4    6    -15.00      0.00
    4    4    6     -2.56      0.00
    5    4    6      5.43      0.00
    6    4    6      2.73      0.00
    7    4    6     -6.05      0.00
    8    4    6     -1.01      0.00
    9    4    6      1.07      0.00
   10    4    6     -2.32      0.00
   11    4    6     -3.63      0.00
   12    4    6      2.77      0.00
   13    4    6      1.17      0.00
   14    4    6     -1.61      0.00
   15    4    6     -1.59      0.00
   16    4    6     -0.10      0.00
  -12    5    6     -0.59      0.00
  -11    5    6     -0.85      0.00
  -10    5    6     -1.55      0.00
   -9    5    6      0.20      0.00
   -8    5    6      1.86      0.00
   -7    5    6     -0.62      0.00
   -6    5    6      0.31      0.00
   -5    5    6     -3.92      0.00
   -4    5    6     -2.47      0.00
   -3    5    6      4.99      0.00
   -2    5    6      1.95      0.00
   -1    5    6     -2.61      0.00
    0    5    6      3.49      0.00
    1    5    6     11.50      0.00
    2    5    6     -9.93      0.00
    3    5    6    -14.01      0.00
    4    5    6     -6.22      0.00
    5    5    6      4.00      0.00
    6    5    6     -1.39      0.00
    7    5    6     -6.67      0.00
    8    5    6      1.09      0.00
    9    5    6      2.80      0.00
   10    5    6     -2.21      0.00
   11    5    6     -2.25      0.00
   12    5    6      2.33      0.00
   13    5    6     -0.55      0.00
   14    5    6     -0.64      0.00
   15    5    6     -0.26      0.00
   16    5    6      0.12      0.00
  -12    6    6     -1.56      0.00
  -11    6    6     -0.65      0.00
  -10    6    6     -0.94      0.00
   -9    6    6      0.23      0.00
   -8    6    6      1.03      0.00
   -7    6    6      0.71      0.00
   -6    6    6     -0.06      0.00
   -5    6    6     -6.57      0.00
   -4    6    6      0.51      0.00
   -3    6    6      6.44      0.00
   -2    6    6      1.30      0.00
   -1    6    6     -5.19      0.00
    0    6    6      2.10      0.00
    1    6    6     10.78      0.00
    2    6    6     -6.38      0.00
    3    6    6    -10.85      0.00
    4    6    6     -6.68      0.00
    5    6    6      1.26      0.00
    6    6    6     -4.77      0.00
    7    6    6     -3.87      0.00
    8    6    6      2.57      0.00
    9    6    6      3.32      0.00
   10    6    6     -1.94      0.00
   11    6    6     -1.30      0.00
   12    6    6      0.48      0.00
   13    6    6     -1.36      0.00
   14    6    6      0.43      0.00
   15    6    6      0.77      0.00
   16    6    6      0.98      0.00
  -11    7    6     -0.06      0.00
  -10    7    6     -1.56      0.00
   -9    7    6      0.55      0.00
   -8    7    6      1.00      0.00
   -7    7    6      1.86      0.00
   -6    7    6     -1.93      0.00
   -5    7    6     -5.50      0.00
   -4    7    6      3.32      0.00
   -3    7    6      3.86      0.00
   -2    7    6     -0.81      0.00
   -1    7    6     -5.28      0.00
    0    7    6      2.83      0.00
    1    7    6      8.88      0.00
    2    7    6     -2.07      0.00
    3    7    6     -5.44      0.00
    4    7    6     -5.53      0.00
    5    7    6     -1.37      0.00
    6    7    6     -4.56      0.00
    7    7    6      0.46      0.00
    8    7    6      3.86      0.00
    9    7    6      3.22      0.00
   10    7    6     -1.16      0.00
   11    7    6     -1.16      0.00
   12    7    6     -0.96      0.00
   13    7    6     -1.18      0.00
   14    7    6      0.99      0.00
   15    7    6      1.39      0.00
   16    7    6      1.51      0.00
  -11    8    6     -0.77      0.00
  -10    8    6     -1.36      0.00
   -9    8    6      1.34      0.00
   -8    8    6      0.93      0.00
   -7    8    6      2.02      0.00
   -6    8    6     -2.74      0.00
   -5    8    6     -2.54      0.00
   -4    8    6      3.06      0.00
   -3    8    6      0.25      0.00
   -2    8    6     -0.73      0.00
   -1    8    6     -2.83      0.00
    0    8    6      2.47      0.00
    1    8    6      5.59      0.00
    2    8    6      3.25      0.00
    3    8    6     -1.13      0.00
    4    8    6     -4.89      0.00
    5    8    6     -2.66      0.00
    6    8    6     -2.72      0.00
    7    8    6      4.20      0.00
    8    8    6      5.01      0.00
    9    8    6      3.29      0.00
   10    8    6     -0.30      0.00
   11    8    6     -1.35      0.00
   12    8    6     -1.00      0.00
   13    8    6     -0.67      0.00
   14    8    6      1.25      0.00
   15    8    6      1.18      0.00
   16    8    6      1.39      0.00
  -10    9    6      0.18      0.00
   -9    9    6      0.97      0.00
   -8    9    6      0.23      0.00
   -7    9    6      1.18      0.00
   -6    9    6     -1.56      0.00
   -5    9    6      0.27      0.00
   -4    9    6      1.19      0.00
   -3    9    6     -1.88      0.00
   -2    9    6      0.85      0.00
   -1    9    6     -0.83      0.00
    0    9    6      1.08      0.00
    1    9    6      4.11      0.00
    2    9    6      6.06      0.00
    3    9    6      0.17      0.00
    4    9    6     -2.97      0.00
    5    9    6     -3.29      0.00
    6    9    6     -0.56      0.00
    7    9    6      6.32      0.00
    8    9    6      5.08      0.00
    9    9    6      3.36      0.00
   10    9    6     -0.12      0.00
   11    9    6     -0.58      0.00
   12    9    6     -0.53      0.00
   13    9    6     -0.22      0.00
   14    9    6      0.56      0.00
   15    9    6     -0.07      0.00
   16    9    6      1.03      0.00
  -10   10    6      0.63      0.00
   -9   10    6     -0.66      0.00
   -8   10    6     -0.31      0.00
   -7   10    6      0.88      0.00
   -6   10    6      0.27      0.00
   -5   10    6      1.89      0.00
   -4   10    6     -0.50      0.00
   -3   10    6     -2.73      0.00
   -2   10    6      1.86      0.00
   -1   10    6      0.19      0.00
    0   10    6      0.19      0.00
    1   10    6      2.36      0.00
    2   10    6      4.76      0.00
    3   10    6      2.29      0.00
    4   10    6     -0.90      0.00
    5   10    6     -3.97      0.00
    6   10    6      2.17      0.00
    7   10    6      5.86      0.00
    8   10    6      4.18      0.00
    9   10    6      3.47      0.00
   10   10    6      0.35      0.00
   11   10    6      0.76      0.00
   12   10    6     -0.41      0.00
   13   10    6      0.08      0.00
   14   10    6     -1.41      0.00
   15   10    6     -0.94      0.00
   16   10    6      0.84      0.00
   -9   11    6     -1.28      0.00
   -8   11    6      0.87      0.00
   -7   11    6      0.37      0.00
   -6   11    6     -0.14      0.00
   -5   11    6      3.11      0.00
   -4   11    6     -1.11      0.00
   -3   11    6     -2.58      0.00
   -2   11    6      1.91      0.00
   -1   11    6      0.28      0.00
    0   11    6     -1.23      0.00
    1   11    6      0.18      0.00
    2   11    6      3.92      0.00
    3   11    6      4.28      0.00
    4   11    6     -1.53      0.00
    5   11    6     -3.35      0.00
    6   11    6      3.65      0.00
    7   11    6      2.84      0.00
    8   11    6      3.30      0.00
    9   11    6      4.03      0.00
   10   11    6      1.33      0.00
   11   11    6      1.26      0.00
   12   11    6      0.04      0.00
   13   11    6     -0.15      0.00
   14   11    6     -2.61      0.00
   15   11    6     -0.31      0.00
   16   11    6      0.33      0.00
   -8   12    6      1.97      0.00
   -7   12    6     -2.37      0.00
   -6   12    6     -1.14      0.00
   -5   12    6      4.35      0.00
   -4   12    6     -1.36      0.00
   -3   12    6     -1.93      0.00
   -2   12    6      0.71      0.00
   -1   12    6     -0.33      0.00
    0   12    6     -1.35      0.00
    1   12    6      0.08      0.00
    2   12    6      3.56      0.00
    3   12    6      3.63      0.00
    4   12    6     -2.15      0.00
    5   12    6     -1.66      0.00
    6   12    6      1.99      0.00
    7   12    6     -1.53      0.00
    8   12    6      2.84      0.00
    9   12    6      4.25      0.00
   10   12    6      1.47      0.00
   11   12    6      0.81      0.00
   12   12    6      0.73      0.00
   13   12    6     -0.55      0.00
   14   12    6     -1.40      0.00
   15   12    6      0.29      0.00
   -7   13    6     -4.08      0.00
   -6   13    6     -0.43      0.00
   -5   13    6      3.51      0.00
   -4   13    6     -1.67      0.00
   -3   13    6     -1.78      0.00
   -2   13    6     -0.67      0.00
   -1   13    6      0.16      0.00
    0   13    6     -0.15      0.00
    1   13    6     -0.44      0.00
    2   13    6      2.67      0.00
    3   13    6      2.80      0.00
    4   13    6     -0.90      0.00
    5   13    6      0.26      0.00
    6   13    6     -1.59      0.00
    7   13    6     -5.06      0.00
    8   13    6      2.84      0.00
    9   13    6      2.44      0.00
   10   13    6      0.35      0.00
   11   13    6     -0.21      0.00
   12   13    6      0.91      0.00
   13   13    6     -0.29      0.00
   14   13    6      0.18      0.00
   15   13    6     -0.32      0.00
   -7   14    6     -2.55      0.00
   -6   14    6     -0.04      0.00
   -5   14    6      1.51      0.00
   -4   14    6     -1.43      0.00
   -3   14    6     -1.37      0.00
   -2   14    6     -0.40      0.00
   -1   14    6      0.09      0.00
    0   14    6     -0.96      0.00
    1   14    6     -1.59      0.00
    2   14    6      2.18      0.00
    3   14    6      1.52      0.00
    4   14    6      1.39      0.00
    5   14    6      2.50      0.00
    6   14    6     -4.75      0.00
    7   14    6     -4.97      0.00
    8   14    6      1.96      0.00
    9   14    6     -1.03      0.00
   10   14    6     -0.82      0.00
   11   14    6     -1.26      0.00
   12   14    6      0.75      0.00
   13   14    6     -0.05      0.00
   14   14    6      0.17      0.00
   -5   15    6      0.73      0.00
   -4   15    6     -0.62      0.00
   -3   15    6      0.69      0.00
   -2   15    6     -0.20      0.00
   -1   15    6     -1.78      0.00
    0   15    6     -1.89      0.00
    1   15    6     -2.06      0.00
    2   15    6      0.16      0.00
    3   15    6     -0.26      0.00
    4   15    6      4.00      0.00
    5   15    6      3.11      0.00
    6   15    6     -5.10      0.00
    7   15    6     -2.09      0.00
    8   15    6     -0.98      0.00
    9   15    6     -2.89      0.00
   10   15    6     -1.22      0.00
   11   15    6     -1.58      0.00
   12   15    6      0.04      0.00
   13   15    6     -0.47      0.00
   -4   16    6      0.58      0.00
   -3   16    6      2.29      0.00
   -2   16    6     -0.88      0.00
   -1   16    6     -1.88      0.00
    0   16    6     -2.00      0.00
    1   16    6     -3.51      0.00
    2   16    6     -1.50      0.00
    3   16    6     -0.37      0.00
    4   16    6      4.21      0.00
    5   16    6      1.47      0.00
    6   16    6     -2.24      0.00
    7   16    6     -0.53      0.00
    8   16    6     -3.27      0.00
    9   16    6     -2.01      0.00
   10   16    6     -1.21      0.00
   11   16    6     -1.24      0.00
   12   16    6     -1.17      0.00
   13   16    6     -0.48      0.00
   -3   17    6      1.61      0.00
   -2   17    6     -0.02      0.00
   -1   17    6     -0.97      0.00
    0   17    6     -3.33      0.00
    1   17    6     -3.64      0.00
    2   17    6     -0.31      0.00
    3   17    6     -0.88      0.00
    4   17    6      1.90      0.00
    5   17    6      0.27      0.00
    6   17    6      0.92      0.00
    7   17    6     -0.89      0.00
    8   17    6     -2.54      0.00
    9   17    6     -0.83      0.00
   10   17    6     -0.70      0.00
   11   17    6     -0.89      0.00
   12   17    6     -1.44      0.00
   -1   18    6     -1.80      0.00
    0   18    6     -3.21      0.00
    1   18    6     -1.26      0.00
    2   18    6     -0.12      0.00
    3   18    6     -2.34      0.00
    4   18    6      0.46      0.00
    5   18    6      0.27      0.00
    6   18    6      1.95      0.00
    7   18    6     -1.24      0.00
    8   18    6     -0.63      0.00
    9   18    6     -0.36      0.00
   10   18    6      0.22      0.00
    2   19    6     -1.48      0.00
    3   19    6     -1.87      0.00
    4   19    6      0.38      0.00
    5   19    6      0.36      0.00
    6   19    6      0.72      0.00
    7   19    6     -0.85      0.00
    8   19    6      0.50      0.00
   -4  -14    7      0.28      0.00
   -3  -14    7      0.52      0.00
   -2  -14    7     -1.00      0.00
   -1  -14    7     -0.59      0.00
    0  -14    7     -0.57      0.00
    1  -14    7     -0.92      0.00
    2  -14    7     -0.48      0.00
   -7  -13    7      0.24      0.00
   -6  -13    7     -0.57      0.00
   -5  -13    7     -0.74      0.00
   -4  -13    7      2.01      0.00
   -3  -13    7      0.62      0.00
   -2  -13    7     -1.93      0.00
   -1  -13    7     -2.25      0.00
    0  -13    7     -0.66      0.00
    1  -13    7     -0.50      0.00
    2  -13    7     -0.37      0.00
    3  -13    7      1.11      0.00
    4  -13    7      0.19      0.00
    5  -13    7      0.94      0.00
   -8  -12    7     -0.67      0.00
   -7  -12    7      1.07      0.00
   -6  -12    7     -0.46      0.00
   -5  -12    7     -0.66      0.00
   -4  -12    7      2.65      0.00
   -3  -12    7      0.01      0.00
   -2  -12    7     -2.39      0.00
   -1  -12    7     -1.87      0.00
    0  -12    7      0.39      0.00
    1  -12    7     -0.90      0.00
    2  -12    7     -0.62      0.00
    3  -12    7      0.99      0.00
    4  -12    7     -0.13      0.00
    5  -12    7      1.99      0.00
    6  -12    7      1.45      0.00
   -9  -11    7     -0.47      0.00
   -8  -11    7      0.51      0.00
   -7  -11    7      1.80      0.00
   -6  -11    7     -0.81      0.00
   -5  -11    7     -1.22      0.00
   -4  -11    7      1.58      0.00
   -3  -11    7     -0.19      0.00
   -2  -11    7     -0.65      0.00
   -1  -11    7      0.53      0.00
    0  -11    7      0.14      0.00
    1  -11    7     -1.57      0.00
    2  -11    7     -0.98      0.00
    3  -11    7      0.25      0.00
    4  -11    7     -0.45      0.00
    5  -11    7      2.26      0.00
    6  -11    7      1.93      0.00
    7  -11    7     -1.39      0.00
    8  -11    7     -1.86      0.00
  -10  -10    7     -0.35      0.00
   -9  -10    7     -1.14      0.00
   -8  -10    7      1.64      0.00
   -7  -10    7      0.44      0.00
   -6  -10    7     -1.69      0.00
   -5  -10    7     -1.44      0.00
   -4  -10    7     -0.57      0.00
   -3  -10    7      0.12      0.00
   -2  -10    7      2.05      0.00
   -1  -10    7      2.24      0.00
    0  -10    7     -0.69      0.00
    1  -10    7     -1.13      0.00
    2  -10    7     -1.36      0.00
    3  -10    7     -0.34      0.00
    4  -10    7     -0.96      0.00
    5  -10    7      1.74      0.00
    6  -10    7      1.48      0.00
    7  -10    7     -1.06      0.00
    8  -10    7     -1.12      0.00
    9  -10    7     -0.92      0.00
  -10   -9    7     -0.59      0.00
   -9   -9    7     -0.80      0.00
   -8   -9    7      0.88      0.00
   -7   -9    7     -2.01      0.00
   -6   -9    7     -0.79      0.00
   -5   -9    7     -1.85      0.00
   -4   -9    7     -3.46      0.00
   -3   -9    7     -0.34      0.00
   -2   -9    7      4.14      0.00
   -1   -9    7      2.64      0.00
    0   -9    7     -0.68      0.00
    1   -9    7     -1.03      0.00
    2   -9    7     -1.36      0.00
    3   -9    7      0.27      0.00
    4   -9    7     -0.92      0.00
    5   -9    7      0.28      0.00
    6   -9    7      0.53      0.00
    7   -9    7      0.54      0.00
    8   -9    7     -0.24      0.00
    9   -9    7      0.00      0.00
   10   -9    7     -0.50      0.00
  -11   -8    7      0.04      0.00
  -10   -8    7     -0.41      0.00
   -9   -8    7      0.25      0.00
   -8   -8    7     -0.64      0.00
   -7   -8    7     -1.84      0.00
   -6   -8    7      0.85      0.00
   -5   -8    7     -3.52      0.00
   -4   -8    7     -5.34      0.00
   -3   -8    7     -1.19      0.00
   -2   -8    7      5.85      0.00
   -1   -8    7      1.49      0.00
    0   -8    7     -0.98      0.00
    1   -8    7     -1.93      0.00
    2   -8    7      0.67      0.00
    3   -8    7      1.34      0.00
    4   -8    7     -1.60      0.00
    5   -8    7     -0.89      0.00
    6   -8    7      0.83      0.00
    7   -8    7      1.08      0.00
    8   -8    7      0.50      0.00
    9   -8    7      2.08      0.00
   10   -8    7     -1.34      0.00
   11   -8    7     -1.64      0.00
  -11   -7    7     -0.84      0.00
  -10   -7    7      0.16      0.00
   -9   -7    7      2.04      0.00
   -8   -7    7     -1.00      0.00
   -7   -7    7      0.09      0.00
   -6   -7    7      0.77      0.00
   -5   -7    7     -3.64      0.00
   -4   -7    7     -5.20      0.00
   -3   -7    7     -0.67      0.00
   -2   -7    7      5.91      0.00
   -1   -7    7     -1.10      0.00
    0   -7    7     -0.89      0.00
    1   -7    7     -1.46      0.00
    2   -7    7      3.48      0.00
    3   -7    7     -0.41      0.00
    4   -7    7     -2.43      0.00
    5   -7    7      0.09      0.00
    6   -7    7     -0.18      0.00
    7   -7    7     -0.31      0.00
    8   -7    7      3.05      0.00
    9   -7    7      3.38      0.00
   10   -7    7     -1.67      0.00
   11   -7    7      0.54      0.00
   12   -7    7      1.28      0.00
  -12   -6    7     -1.63      0.00
  -11   -6    7     -1.86      0.00
  -10   -6    7      1.65      0.00
   -9   -6    7      3.14      0.00
   -8   -6    7     -1.41      0.00
   -7   -6    7      1.30      0.00
   -6   -6    7      1.06      0.00
   -5   -6    7     -1.44      0.00
   -4   -6    7     -4.12      0.00
   -3   -6    7      1.42      0.00
   -2   -6    7      2.37      0.00
   -1   -6    7     -1.17      0.00
    0   -6    7      1.27      0.00
    1   -6    7      0.20      0.00
    2   -6    7      3.55      0.00
    3   -6    7     -3.63      0.00
    4   -6    7     -0.85      0.00
    5   -6    7      0.04      0.00
    6   -6    7     -3.63      0.00
    7   -6    7     -0.15      0.00
    8   -6    7      5.23      0.00
    9   -6    7      2.35      0.00
   10   -6    7     -0.07      0.00
   11   -6    7      1.99      0.00
   12   -6    7     -0.12      0.00
  -12   -5    7     -1.87      0.00
  -11   -5    7     -1.31      0.00
  -10   -5    7      2.93      0.00
   -9   -5    7      1.51      0.00
   -8   -5    7     -1.86      0.00
   -7   -5    7      2.45      0.00
   -6   -5    7      2.43      0.00
   -5   -5    7      0.05      0.00
   -4   -5    7     -1.76      0.00
   -3   -5    7      2.26      0.00
   -2   -5    7     -1.96      0.00
   -1   -5    7      3.63      0.00
    0   -5    7      2.48      0.00
    1   -5    7      1.52      0.00
    2   -5    7      1.97      0.00
    3   -5    7     -4.93      0.00
    4   -5    7      1.16      0.00
    5   -5    7     -2.13      0.00
    6   -5    7     -4.25      0.00
    7   -5    7      1.35      0.00
    8   -5    7      3.86      0.00
    9   -5    7      0.73      0.00
   10   -5    7      0.77      0.00
   11   -5    7      1.00      0.00
   12   -5    7     -0.20      0.00
   13   -5    7      1.66      0.00
  -12   -4    7     -1.09      0.00
  -11   -4    7      0.27      0.00
  -10   -4    7      2.27      0.00
   -9   -4    7     -0.93      0.00
   -8   -4    7     -1.03      0.00
   -7   -4    7      3.08      0.00
   -6   -4    7      2.77      0.00
   -5   -4    7      0.93      0.00
   -4   -4    7      1.03      0.00
   -3   -4    7      0.37      0.00
   -2   -4    7     -1.79      0.00
   -1   -4    7      7.30      0.00
    0   -4    7      0.56      0.00
    1   -4    7      4.62      0.00
    2   -4    7     -0.02      0.00
    3   -4    7     -5.58      0.00
    4   -4    7      2.94      0.00
    5   -4    7     -2.32      0.00
    6   -4    7     -1.69      0.00
    7   -4    7      1.17      0.00
    8   -4    7      1.32      0.00
    9   -4    7     -0.61      0.00
   10   -4    7     -0.50      0.00
   11   -4    7      0.75      0.00
   12   -4    7      0.30      0.00
   13   -4    7      0.73      0.00
   14   -4    7      0.16      0.00
  -12   -3    7     -0.21      0.00
  -11   -3    7      0.81      0.00
  -10   -3    7      0.96      0.00
   -9   -3    7     -1.75      0.00
   -8   -3    7     -0.18      0.00
   -7   -3    7      2.53      0.00
   -6   -3    7      2.31      0.00
   -5   -3    7      1.54      0.00
   -4   -3    7      1.43      0.00
   -3   -3    7     -0.73      0.00
   -2   -3    7      1.56      0.00
   -1   -3    7      3.52      0.00
    0   -3    7     -0.31      0.00
    1   -3    7      9.31      0.00
    2   -3    7     -4.72      0.00
    3   -3    7     -3.98      0.00
    4   -3    7      6.15      0.00
    5   -3    7     -1.91      0.00
    6   -3    7     -0.14      0.00
    7   -3    7      0.66      0.00
    8   -3    7      0.09      0.00
    9   -3    7     -1.74      0.00
   10   -3    7     -0.67      0.00
   11   -3    7      1.49      0.00
   12   -3    7     -0.70      0.00
   13   -3    7     -0.30      0.00
   14   -3    7      0.37      0.00
  -13   -2    7      0.30      0.00
  -12   -2    7     -0.35      0.00
  -11   -2    7      0.43      0.00
  -10   -2    7      0.52      0.00
   -9   -2    7     -1.97      0.00
   -8   -2    7      0.09      0.00
   -7   -2    7      1.97      0.00
   -6   -2    7      1.60      0.00
   -5   -2    7      0.19      0.00
   -4   -2    7      0.36      0.00
   -3   -2    7      1.07      0.00
   -2   -2    7      1.52      0.00
   -1   -2    7     -5.32      0.00
    0   -2    7      2.78      0.00
    1   -2    7     10.23      0.00
    2   -2    7    -10.10      0.00
    3   -2    7      2.74      0.00
    4   -2    7      7.22      0.00
    5   -2    7     -2.40      0.00
    6   -2    7      0.42      0.00
    7   -2    7      0.60      0.00
    8   -2    7     -0.84      0.00
    9   -2    7     -1.70      0.00
   10   -2    7      0.84      0.00
   11   -2    7      1.32      0.00
   12   -2    7     -0.96      0.00
   13   -2    7     -0.96      0.00
   14   -2    7     -0.46      0.00
   15   -2    7      1.00      0.00
  -13   -1    7      0.43      0.00
  -12   -1    7     -0.90      0.00
  -11   -1    7      0.93      0.00
  -10   -1    7      0.18      0.00
   -9   -1    7     -2.44      0.00
   -8   -1    7      0.35      0.00
   -7   -1    7      1.84      0.00
   -6   -1    7      0.80      0.00
   -5   -1    7     -2.44      0.00
   -4   -1    7      0.89      0.00
   -3   -1    7      3.06      0.00
   -2   -1    7     -3.97      0.00
   -1   -1    7    -12.61      0.00
    0   -1    7      6.34      0.00
    1   -1    7      4.46      0.00
    2   -1    7    -11.17      0.00
    3   -1    7      9.82      0.00
    4   -1    7      5.35      0.00
    5   -1    7     -0.34      0.00
    6   -1    7     -0.26      0.00
    7   -1    7     -0.07      0.00
    8   -1    7     -1.69      0.00
    9   -1    7     -0.64      0.00
   10   -1    7      1.75      0.00
   11   -1    7      0.85      0.00
   12   -1    7     -0.12      0.00
   13   -1    7     -2.26      0.00
   14   -1    7     -0.47      0.00
   15   -1    7      2.12      0.00
  -12    0    7      0.10      0.00
  -11    0    7      2.23      0.00
  -10    0    7     -0.79      0.00
   -9    0    7     -2.79      0.00
   -8    0    7      0.52      0.00
   -7    0    7      2.18      0.00
   -6    0    7      0.15      0.00
   -5    0    7     -4.01      0.00
   -4    0    7      3.83      0.00
   -3    0    7      3.26      0.00
   -2    0    7    -10.34      0.00
   -1    0    7    -14.70      0.00
    0    0    7      5.55      0.00
    1    0    7     -4.47      0.00
    2    0    7     -7.40      0.00
    3    0    7     11.83      0.00
    4    0    7      4.77      0.00
    5    0    7      2.53      0.00
    6    0    7     -2.24      0.00
    7    0    7     -0.37      0.00
    8    0    7     -1.97      0.00
    9    0    7      0.37      0.00
   10    0    7      0.86      0.00
   11    0    7      0.46      0.00
   12    0    7      0.44      0.00
   13    0    7     -1.81      0.00
   14    0    7      0.83      0.00
   15    0    7      1.92      0.00
  -12    1    7      2.30      0.00
  -11    1    7      2.44      0.00
  -10    1    7     -1.43      0.00
   -9    1    7     -2.28      0.00
   -8    1    7      0.74      0.00
   -7    1    7      2.06      0.00
   -6    1    7     -0.67      0.00
   -5    1    7     -3.28      0.00
   -4    1    7      7.25      0.00
   -3    1    7      2.84      0.00
   -2    1    7    -12.07      0.00
   -1    1    7    -12.87      0.00
    0    1    7      0.78      0.00
    1    1    7     -9.41      0.00
    2    1    7     -1.71      0.00
    3    1    7      9.14      0.00
    4    1    7      5.23      0.00
    5    1    7      3.14      0.00
    6    1    7     -2.59      0.00
    7    1    7     -0.67      0.00
    8    1    7     -1.89      0.00
    9    1    7      0.10      0.00
   10    1    7     -1.36      0.00
   11    1    7      0.89      0.00
   12    1    7      1.13      0.00
   13    1    7      0.13      0.00
   14    1    7      0.86      0.00
   15    1    7      0.92      0.00
   16    1    7     -0.31      0.00
  -12    2    7      2.75      0.00
  -11    2    7      1.54      0.00
  -10    2    7     -0.14      0.00
   -9    2    7     -1.05      0.00
   -8    2    7      0.17      0.00
   -7    2    7      1.17      0.00
   -6    2    7     -1.35      0.00
   -5    2    7     -1.95      0.00
   -4    2    7      8.66      0.00
   -3    2    7      3.75      0.00
   -2    2    7     -9.42      0.00
   -1    2    7    -10.43      0.00
    0    2    7     -2.21      0.00
    1    2    7     -7.16      0.00
    2    2    7      3.02      0.00
    3    2    7      4.29      0.00
    4    2    7      4.85      0.00
    5    2    7      3.60      0.00
    6    2    7     -1.26      0.00
    7    2    7     -1.56      0.00
    8    2    7     -1.93      0.00
    9    2    7     -1.76      0.00
   10    2    7     -2.48      0.00
   11    2    7      1.60      0.00
   12    2    7      0.51      0.00
   13    2    7      1.10      0.00
   14    2    7      0.30      0.00
   15    2    7      0.37      0.00
   16    2    7     -0.47      0.00
  -12    3    7      1.12      0.00
  -11    3    7      1.84      0.00
  -10    3    7      1.70      0.00
   -9    3    7     -1.30      0.00
   -8    3    7     -0.55      0.00
   -7    3    7      1.50      0.00
   -6    3    7     -2.83      0.00
   -5    3    7     -1.48      0.00
   -4    3    7      8.33      0.00
   -3    3    7      4.53      0.00
   -2    3    7     -7.08      0.00
   -1    3    7     -7.61      0.00
    0    3    7     -0.67      0.00
    1    3    7     -1.54      0.00
    2    3    7      5.44      0.00
    3    3    7     -0.99      0.00
    4    3    7      4.05      0.00
    5    3    7      4.73      0.00
    6    3    7      0.85      0.00
    7    3    7     -1.43      0.00
    8    3    7     -2.78      0.00
    9    3    7     -2.98      0.00
   10    3    7     -2.07      0.00
   11    3    7     -0.19      0.00
   12    3    7     -1.07      0.00
   13    3    7      2.31      0.00
   14    3    7      0.28      0.00
   15    3    7     -0.63      0.00
   16    3    7     -0.76      0.00
  -12    4    7      0.37      0.00
  -11    4    7      2.65      0.00
  -10    4    7      0.73      0.00
   -9    4    7     -2.35      0.00
   -8    4    7      1.07      0.00
   -7    4    7      1.97      0.00
   -6    4    7     -5.12      0.00
   -5    4    7      0.18      0.00
   -4    4    7      5.99      0.00
   -3    4    7      2.52      0.00
   -2    4    7     -5.27      0.00
   -1    4    7     -3.62      0.00
    0    4    7      1.36      0.00
    1    4    7      2.72      0.00
    2    4    7      5.25      0.00
    3    4    7     -6.12      0.00
    4    4    7      2.29      0.00
    5    4    7      5.34      0.00
    6    4    7      4.11      0.00
    7    4    7     -1.56      0.00
    8    4    7     -3.87      0.00
    9    4    7     -1.99      0.00
   10    4    7     -1.88      0.00
   11    4    7     -3.15      0.00
   12    4    7     -0.39      0.00
   13    4    7      3.76      0.00
   14    4    7     -0.44      0.00
   15    4    7     -1.89      0.00
   16    4    7     -1.31      0.00
  -12    5    7      0.81      0.00
  -11    5    7      1.04      0.00
  -10    5    7     -1.37      0.00
   -9    5    7     -1.32      0.00
   -8    5    7      3.13      0.00
   -7    5    7      0.45      0.00
   -6    5    7     -4.83      0.00
   -5    5    7      1.99      0.00
   -4    5    7      0.99      0.00
   -3    5    7      0.97      0.00
   -2    5    7     -1.58      0.00
   -1    5    7     -0.90      0.00
    0    5    7      0.30      0.00
    1    5    7      4.73      0.00
    2    5    7      3.45      0.00
    3    5    7    -10.34      0.00
    4    5    7     -0.70      0.00
    5    5    7      5.46      0.00
    6    5    7      5.52      0.00
    7    5    7     -4.25      0.00
    8    5    7     -3.77      0.00
    9    5    7      0.05      0.00
   10    5    7     -1.69      0.00
   11    5    7     -4.07      0.00
   12    5    7      1.69      0.00
   13    5    7      3.46      0.00
   14    5    7     -1.40      0.00
   15    5    7     -1.94      0.00
   16    5    7     -1.26      0.00
  -11    6    7     -1.14      0.00
  -10    6    7     -1.09      0.00
   -9    6    7      0.15      0.00
   -8    6    7      2.89      0.00
   -7    6    7     -0.94      0.00
   -6    6    7     -1.97      0.00
   -5    6    7      0.45      0.00
   -4    6    7     -2.66      0.00
   -3    6    7      2.97      0.00
   -2    6    7      1.62      0.00
   -1    6    7     -1.56      0.00
    0    6    7     -2.14      0.00
    1    6    7      6.42      0.00
    2    6    7      1.67      0.00
    3    6    7    -12.28      0.00
    4    6    7     -2.78      0.00
    5    6    7      4.73      0.00
    6    6    7      2.81      0.00
    7    6    7     -7.30      0.00
    8    6    7     -2.32      0.00
    9    6    7      1.52      0.00
   10    6    7     -1.55      0.00
   11    6    7     -3.39      0.00
   12    6    7      2.43      0.00
   13    6    7      1.79      0.00
   14    6    7     -1.65      0.00
   15    6    7     -0.77      0.00
   16    6    7     -0.25      0.00
  -11    7    7     -0.99      0.00
  -10    7    7     -0.56      0.00
   -9    7    7      0.08      0.00
   -8    7    7      1.98      0.00
   -7    7    7     -0.38      0.00
   -6    7    7      0.04      0.00
   -5    7    7     -2.94      0.00
   -4    7    7     -2.36      0.00
   -3    7    7      5.27      0.00
   -2    7    7      1.51      0.00
   -1    7    7     -3.43      0.00
    0    7    7     -2.45      0.00
    1    7    7      7.63      0.00
    2    7    7      0.04      0.00
    3    7    7    -10.09      0.00
    4    7    7     -2.87      0.00
    5    7    7      2.74      0.00
    6    7    7     -0.91      0.00
    7    7    7     -7.41      0.00
    8    7    7     -0.16      0.00
    9    7    7      1.67      0.00
   10    7    7     -1.75      0.00
   11    7    7     -2.27      0.00
   12    7    7      1.33      0.00
   13    7    7      0.05      0.00
   14    7    7     -1.56      0.00
   15    7    7      0.66      0.00
   16    7    7      0.88      0.00
  -10    8    7     -1.56      0.00
   -9    8    7      0.39      0.00
   -8    8    7      1.82      0.00
   -7    8    7      1.09      0.00
   -6    8    7      0.03      0.00
   -5    8    7     -4.95      0.00
   -4    8    7     -0.48      0.00
   -3    8    7      5.12      0.00
   -2    8    7     -0.26      0.00
   -1    8    7     -3.21      0.00
    0    8    7     -0.97      0.00
    1    8    7      6.11      0.00
    2    8    7      0.28      0.00
    3    8    7     -4.66      0.00
    4    8    7     -3.32      0.00
    5    8    7      0.67      0.00
    6    8    7     -3.03      0.00
    7    8    7     -4.62      0.00
    8    8    7      2.29      0.00
    9    8    7      1.53      0.00
   10    8    7     -1.07      0.00
   11    8    7     -1.71      0.00
   12    8    7     -0.27      0.00
   13    8    7     -1.09      0.00
   14    8    7     -1.10      0.00
   15    8    7      1.53      0.00
   16    8    7      1.33      0.00
  -10    9    7     -1.54      0.00
   -9    9    7      1.45      0.00
   -8    9    7      1.36      0.00
   -7    9    7      1.62      0.00
   -6    9    7     -0.84      0.00
   -5    9    7     -4.17      0.00
   -4    9    7      0.83      0.00
   -3    9    7      3.06      0.00
   -2    9    7     -1.00      0.00
   -1    9    7     -1.03      0.00
    0    9    7     -0.13      0.00
    1    9    7      4.01      0.00
    2    9    7      3.26      0.00
    3    9    7     -1.17      0.00
    4    9    7     -4.08      0.00
    5    9    7     -0.64      0.00
    6    9    7     -4.39      0.00
    7    9    7     -0.50      0.00
    8    9    7      4.35      0.00
    9    9    7      2.01      0.00
   10    9    7     -0.12      0.00
   11    9    7     -1.70      0.00
   12    9    7     -0.41      0.00
   13    9    7     -1.55      0.00
   14    9    7     -0.17      0.00
   15    9    7      1.00      0.00
   16    9    7      0.94      0.00
   -9   10    7      1.20      0.00
   -8   10    7     -0.08      0.00
   -7   10    7      1.17      0.00
   -6   10    7     -0.37      0.00
   -5   10    7     -1.77      0.00
   -4   10    7      0.70      0.00
   -3   10    7      0.49      0.00
   -2   10    7     -0.28      0.00
   -1   10    7      1.01      0.00
    0   10    7      0.54      0.00
    1   10    7      3.35      0.00
    2   10    7      4.72      0.00
    3   10    7     -0.16      0.00
    4   10    7     -2.29      0.00
    5   10    7     -2.47      0.00
    6   10    7     -4.69      0.00
    7   10    7      3.64      0.00
    8   10    7      4.83      0.00
    9   10    7      2.08      0.00
   10   10    7      0.14      0.00
   11   10    7     -0.59      0.00
   12   10    7      0.44      0.00
   13   10    7     -1.53      0.00
   14   10    7      0.13      0.00
   15   10    7     -0.93      0.00
   16   10    7      0.51      0.00
   -9   11    7     -0.40      0.00
   -8   11    7     -1.03      0.00
   -7   11    7      1.63      0.00
   -6   11    7      0.43      0.00
   -5   11    7     -0.44      0.00
   -4   11    7      0.46      0.00
   -3   11    7     -1.18      0.00
   -2   11    7      0.69      0.00
   -1   11    7      2.07      0.00
    0   11    7      0.77      0.00
    1   11    7      1.82      0.00
    2   11    7      3.82      0.00
    3   11    7      2.00      0.00
    4   11    7      0.08      0.00
    5   11    7     -4.70      0.00
    6   11    7     -2.58      0.00
    7   11    7      6.12      0.00
    8   11    7      3.33      0.00
    9   11    7      1.87      0.00
   10   11    7      0.97      0.00
   11   11    7      1.20      0.00
   12   11    7      0.77      0.00
   13   11    7     -0.92      0.00
   14   11    7     -1.06      0.00
   15   11    7     -2.17      0.00
   16   11    7      0.57      0.00
   -8   12    7     -0.07      0.00
   -7   12    7      1.73      0.00
   -6   12    7     -1.10      0.00
   -5   12    7      0.62      0.00
   -4   12    7      1.47      0.00
   -3   12    7     -2.07      0.00
   -2   12    7      0.96      0.00
   -1   12    7      1.93      0.00
    0   12    7     -0.29      0.00
    1   12    7      0.40      0.00
    2   12    7      3.00      0.00
    3   12    7      3.90      0.00
    4   12    7      0.39      0.00
    5   12    7     -5.32      0.00
    6   12    7      0.24      0.00
    7   12    7      5.51      0.00
    8   12    7      1.16      0.00
    9   12    7      3.04      0.00
   10   12    7      2.18      0.00
   11   12    7      2.17      0.00
   12   12    7      0.94      0.00
   13   12    7     -0.30      0.00
   14   12    7     -2.18      0.00
   15   12    7     -1.16      0.00
   -7   13    7     -0.29      0.00
   -6   13    7     -2.48      0.00
   -5   13    7      2.10      0.00
   -4   13    7      1.66      0.00
   -3   13    7     -2.96      0.00
   -2   13    7      0.57      0.00
   -1   13    7      1.43      0.00
    0   13    7     -0.25      0.00
    1   13    7      0.39      0.00
    2   13    7      1.69      0.00
    3   13    7      4.43      0.00
    4   13    7     -0.11      0.00
    5   13    7     -4.38      0.00
    6   13    7      1.45      0.00
    7   13    7      1.79      0.00
    8   13    7      0.19      0.00
    9   13    7      4.60      0.00
   10   13    7      2.21      0.00
   11   13    7      2.41      0.00
   12   13    7      0.97      0.00
   13   13    7      0.00      0.00
   14   13    7     -1.51      0.00
   15   13    7      0.27      0.00
   -6   14    7     -1.78      0.00
   -5   14    7      1.60      0.00
   -4   14    7      0.20      0.00
   -3   14    7     -3.44      0.00
   -2   14    7      0.46      0.00
   -1   14    7      1.60      0.00
    0   14    7      0.54      0.00
    1   14    7     -0.13      0.00
    2   14    7      0.95      0.00
    3   14    7      4.44      0.00
    4   14    7     -0.82      0.00
    5   14    7     -1.77      0.00
    6   14    7      0.90      0.00
    7   14    7     -2.73      0.00
    8   14    7      0.88      0.00
    9   14    7      3.69      0.00
   10   14    7      1.18      0.00
   11   14    7      1.86      0.00
   12   14    7      0.65      0.00
   13   14    7      0.35      0.00
   14   14    7     -0.39      0.00
   -5   15    7      0.05      0.00
   -4   15    7     -0.99      0.00
   -3   15    7     -2.37      0.00
   -2   15    7      0.83      0.00
   -1   15    7      0.69      0.00
    0   15    7      0.16      0.00
    1   15    7     -0.35      0.00
    2   15    7      0.75      0.00
    3   15    7      2.37      0.00
    4   15    7     -0.63      0.00
    5   15    7      2.26      0.00
    6   15    7     -0.87      0.00
    7   15    7     -4.39      0.00
    8   15    7      1.20      0.00
    9   15    7      0.37      0.00
   10   15    7      0.23      0.00
   11   15    7      0.60      0.00
   12   15    7      0.62      0.00
   13   15    7      0.10      0.00
   14   15    7     -0.29      0.00
   -4   16    7     -0.90      0.00
   -3   16    7      0.27      0.00
   -2   16    7      0.23      0.00
   -1   16    7     -0.82      0.00
    0   16    7      0.19      0.00
    1   16    7     -0.75      0.00
    2   16    7     -1.31      0.00
    3   16    7      0.02      0.00
    4   16    7      0.76      0.00
    5   16    7      4.19      0.00
    6   16    7     -2.14      0.00
    7   16    7     -2.72      0.00
    8   16    7     -0.63      0.00
    9   16    7     -2.10      0.00
   10   16    7     -0.35      0.00
   11   16    7     -0.07      0.00
   12   16    7      0.36      0.00
   13   16    7     -0.96      0.00
   -3   17    7      1.98      0.00
   -2   17    7     -0.52      0.00
   -1   17    7     -0.13      0.00
    0   17    7     -0.16      0.00
    1   17    7     -2.71      0.00
    2   17    7     -2.22      0.00
    3   17    7     -0.45      0.00
    4   17    7      0.49      0.00
    5   17    7      2.99      0.00
    6   17    7     -1.34      0.00
    7   17    7     -0.84      0.00
    8   17    7     -2.83      0.00
    9   17    7     -2.13      0.00
   10   17    7     -0.55      0.00
   11   17    7      0.09      0.00
   12   17    7     -0.76      0.00
   -1   18    7      0.52      0.00
    0   18    7     -1.81      0.00
    1   18    7     -2.98      0.00
    2   18    7     -0.52      0.00
    3   18    7     -1.56      0.00
    4   18    7     -0.98      0.00
    5   18    7      1.36      0.00
    6   18    7      0.55      0.00
    7   18    7     -0.48      0.00
    8   18    7     -2.90      0.00
    9   18    7     -0.90      0.00
   10   18    7     -0.14      0.00
    2   19    7     -0.02      0.00
    3   19    7     -2.92      0.00
    4   19    7     -1.00      0.00
    5   19    7      0.40      0.00
    6   19    7      1.60      0.00
    7   19    7     -1.03      0.00
    8   19    7     -0.90      0.00
   -5  -13    8     -0.06      0.00
   -4  -13    8     -0.42      0.00
   -3  -13    8      0.74      0.00
   -2  -13    8     -0.86      0.00
   -1  -13    8     -0.38      0.00
    0  -13    8     -2.08      0.00
    1  -13    8     -0.89      0.00
    2  -13    8     -0.28      0.00
    3  -13    8      0.09      0.00
   -7  -12    8     -1.18      0.00
   -6  -12    8     -0.09      0.00
   -5  -12    8     -0.28      0.00
   -4  -12    8      0.31      0.00
   -3  -12    8      1.81      0.00
   -2  -12    8     -1.70      0.00
   -1  -12    8     -2.41      0.00
    0  -12    8     -2.04      0.00
    1  -12    8     -0.14      0.00
    2  -12    8     -0.25      0.00
    3  -12    8      0.41      0.00
    4  -12    8      1.05      0.00
    5  -12    8      0.10      0.00
   -8  -11    8     -0.91      0.00
   -7  -11    8      0.23      0.00
   -6  -11    8      0.34      0.00
   -5  -11    8     -0.94      0.00
   -4  -11    8      0.82      0.00
   -3  -11    8      2.12      0.00
   -2  -11    8     -1.94      0.00
   -1  -11    8     -2.80      0.00
    0  -11    8     -0.74      0.00
    1  -11    8     -0.25      0.00
    2  -11    8     -0.68      0.00
    3  -11    8     -0.07      0.00
    4  -11    8      0.87      0.00
    5  -11    8      0.13      0.00
    6  -11    8      0.60      0.00
    7  -11    8      0.81      0.00
   -9  -10    8     -0.01      0.00
   -8  -10    8     -0.23      0.00
   -7  -10    8      1.77      0.00
   -6  -10    8      0.02      0.00
   -5  -10    8     -1.57      0.00
   -4  -10    8      0.94      0.00
   -3  -10    8      1.95      0.00
   -2  -10    8     -0.52      0.00
   -1  -10    8     -1.16      0.00
    0  -10    8     -0.29      0.00
    1  -10    8     -0.69      0.00
    2  -10    8     -1.33      0.00
    3  -10    8     -0.78      0.00
    4  -10    8      0.16      0.00
    5  -10    8     -0.04      0.00
    6  -10    8      2.14      0.00
    7  -10    8      0.36      0.00
    8  -10    8     -2.53      0.00
  -10   -9    8     -0.21      0.00
   -9   -9    8     -0.42      0.00
   -8   -9    8      0.14      0.00
   -7   -9    8      1.20      0.00
   -6   -9    8     -0.81      0.00
   -5   -9    8     -1.00      0.00
   -4   -9    8     -0.18      0.00
   -3   -9    8      1.09      0.00
   -2   -9    8      1.28      0.00
   -1   -9    8      1.33      0.00
    0   -9    8     -0.44      0.00
    1   -9    8     -0.29      0.00
    2   -9    8     -2.20      0.00
    3   -9    8     -1.36      0.00
    4   -9    8     -0.43      0.00
    5   -9    8      0.33      0.00
    6   -9    8      1.83      0.00
    7   -9    8     -0.15      0.00
    8   -9    8     -1.26      0.00
    9   -9    8     -0.65      0.00
   10   -9    8     -0.18      0.00
  -10   -8    8      0.13      0.00
   -9   -8    8     -1.09      0.00
   -8   -8    8     -0.25      0.00
   -7   -8    8     -0.65      0.00
   -6   -8    8     -0.34      0.00
   -5   -8    8     -0.85      0.00
   -4   -8    8     -3.21      0.00
   -3   -8    8     -0.55      0.00
   -2   -8    8      2.70      0.00
   -1   -8    8      3.75      0.00
    0   -8    8     -0.98      0.00
    1   -8    8     -0.18      0.00
    2   -8    8     -3.09      0.00
    3   -8    8     -0.14      0.00
    4   -8    8      0.41      0.00
    5   -8    8     -0.59      0.00
    6   -8    8      0.10      0.00
    7   -8    8      1.42      0.00
    8   -8    8     -0.25      0.00
    9   -8    8     -0.54      0.00
   10   -8    8      0.14      0.00
   11   -8    8     -1.86      0.00
  -11   -7    8     -0.01      0.00
  -10   -7    8     -0.01      0.00
   -9   -7    8     -0.82      0.00
   -8   -7    8      0.06      0.00
   -7   -7    8     -1.58      0.00
   -6   -7    8      0.81      0.00
   -5   -7    8     -2.69      0.00
   -4   -7    8     -5.60      0.00
   -3   -7    8     -2.08      0.00
   -2   -7    8      4.27      0.00
   -1   -7    8      3.70      0.00
    0   -7    8     -2.22      0.00
    1   -7    8     -1.05      0.00
    2   -7    8     -2.16      0.00
    3   -7    8      2.67      0.00
    4   -7    8     -0.18      0.00
    5   -7    8     -1.98      0.00
    6   -7    8      0.59      0.00
    7   -7    8      2.12      0.00
    8   -7    8     -0.71      0.00
    9   -7    8      1.10      0.00
   10   -7    8      0.01      0.00
   11   -7    8     -2.07      0.00
  -11   -6    8     -1.17      0.00
  -10   -6    8     -0.23      0.00
   -9   -6    8      1.52      0.00
   -8   -6    8      0.37      0.00
   -7   -6    8     -1.31      0.00
   -6   -6    8      1.37      0.00
   -5   -6    8     -3.69      0.00
   -4   -6    8     -5.69      0.00
   -3   -6    8     -2.58      0.00
   -2   -6    8      5.06      0.00
   -1   -6    8      0.43      0.00
    0   -6    8     -1.75      0.00
    1   -6    8     -1.50      0.00
    2   -6    8      0.33      0.00
    3   -6    8      2.90      0.00
    4   -6    8     -2.40      0.00
    5   -6    8     -0.42      0.00
    6   -6    8      0.43      0.00
    7   -6    8     -0.33      0.00
    8   -6    8      0.36      0.00
    9   -6    8      3.06      0.00
   10   -6    8     -0.04      0.00
   11   -6    8     -0.18      0.00
   12   -6    8      1.14      0.00
  -11   -5    8     -2.57      0.00
  -10   -5    8      0.71      0.00
   -9   -5    8      3.11      0.00
   -8   -5    8     -0.60      0.00
   -7   -5    8      0.03      0.00
   -6   -5    8      2.10      0.00
   -5   -5    8     -2.50      0.00
   -4   -5    8     -4.97      0.00
   -3   -5    8     -1.28      0.00
   -2   -5    8      3.17      0.00
   -1   -5    8     -1.82      0.00
    0   -5    8      2.20      0.00
    1   -5    8     -1.63      0.00
    2   -5    8      1.92      0.00
    3   -5    8      0.56      0.00
    4   -5    8     -2.95      0.00
    5   -5    8      1.08      0.00
    6   -5    8     -3.00      0.00
    7   -5    8     -1.64      0.00
    8   -5    8      2.54      0.00
    9   -5    8      3.27      0.00
   10   -5    8      0.89      0.00
   11   -5    8      0.99      0.00
   12   -5    8      0.51      0.00
   13   -5    8      0.13      0.00
  -12   -4    8     -1.95      0.00
  -11   -4    8     -2.39      0.00
  -10   -4    8      1.54      0.00
   -9   -4    8      2.01      0.00
   -8   -4    8     -1.27      0.00
   -7   -4    8      1.63      0.00
   -6   -4    8      2.84      0.00
   -5   -4    8     -1.02      0.00
   -4   -4    8     -3.21      0.00
   -3   -4    8      0.55      0.00
   -2   -4    8     -0.78      0.00
   -1   -4    8      0.96      0.00
    0   -4    8      5.90      0.00
    1   -4    8     -1.72      0.00
    2   -4    8      3.72      0.00
    3   -4    8     -1.94      0.00
    4   -4    8     -3.02      0.00
    5   -4    8      0.44      0.00
    6   -4    8     -4.60      0.00
    7   -4    8     -0.46      0.00
    8   -4    8      2.61      0.00
    9   -4    8      2.17      0.00
   10   -4    8      0.83      0.00
   11   -4    8      0.35      0.00
   12   -4    8      0.95      0.00
   13   -4    8      0.51      0.00
  -12   -3    8     -1.59      0.00
  -11   -3    8     -1.19      0.00
  -10   -3    8      1.18      0.00
   -9   -3    8      0.51      0.00
   -8   -3    8     -1.22      0.00
   -7   -3    8      2.09      0.00
   -6   -3    8      2.91      0.00
   -5   -3    8      0.39      0.00
   -4   -3    8     -0.48      0.00
   -3   -3    8      0.50      0.00
   -2   -3    8     -2.65      0.00
   -1   -3    8      6.10      0.00
    0   -3    8      5.05      0.00
    1   -3    8      1.02      0.00
    2   -3    8      6.12      0.00
    3   -3    8     -6.03      0.00
    4   -3    8     -2.25      0.00
    5   -3    8      0.86      0.00
    6   -3    8     -3.20      0.00
    7   -3    8      0.32      0.00
    8   -3    8      1.62      0.00
    9   -3    8      0.72      0.00
   10   -3    8     -0.44      0.00
   11   -3    8      0.44      0.00
   12   -3    8      1.12      0.00
   13   -3    8     -0.05      0.00
   14   -3    8      1.39      0.00
  -12   -2    8     -0.59      0.00
  -11   -2    8     -0.58      0.00
  -10   -2    8      0.74      0.00
   -9   -2    8     -0.37      0.00
   -8   -2    8     -1.44      0.00
   -7   -2    8      2.08      0.00
   -6   -2    8      2.41      0.00
   -5   -2    8      1.54      0.00
   -4   -2    8      0.50      0.00
   -3   -2    8     -0.16      0.00
   -2   -2    8     -0.56      0.00
   -1   -2    8      7.07      0.00
    0   -2    8      1.26      0.00
    1   -2    8      7.71      0.00
    2   -2    8      5.31      0.00
    3   -2    8     -9.70      0.00
    4   -2    8      1.81      0.00
    5   -2    8      0.77      0.00
    6   -2    8     -2.08      0.00
    7   -2    8      0.77      0.00
    8   -2    8      1.48      0.00
    9   -2    8     -0.55      0.00
   10   -2    8     -0.58      0.00
   11   -2    8      1.15      0.00
   12   -2    8      0.10      0.00
   13   -2    8      0.04      0.00
   14   -2    8      0.64      0.00
  -12   -1    8     -0.02      0.00
  -11   -1    8     -0.47      0.00
  -10   -1    8      0.74      0.00
   -9   -1    8     -1.23      0.00
   -8   -1    8     -1.32      0.00
   -7   -1    8      2.16      0.00
   -6   -1    8      1.61      0.00
   -5   -1    8      1.24      0.00
   -4   -1    8     -0.85      0.00
   -3   -1    8      1.21      0.00
   -2   -1    8      1.36      0.00
   -1   -1    8      1.24      0.00
    0   -1    8     -0.71      0.00
    1   -1    8     14.18      0.00
    2   -1    8      0.14      0.00
    3   -1    8     -8.47      0.00
    4   -1    8      5.64      0.00
    5   -1    8     -0.66      0.00
    6   -1    8     -1.19      0.00
    7   -1    8      0.89      0.00
    8   -1    8      1.39      0.00
    9   -1    8     -1.28      0.00
   10   -1    8      0.70      0.00
   11   -1    8      1.54      0.00
   12   -1    8     -0.12      0.00
   13   -1    8     -0.42      0.00
   14   -1    8     -1.71      0.00
   15   -1    8      0.95      0.00
  -12    0    8     -0.02      0.00
  -11    0    8      0.55      0.00
  -10    0    8      0.87      0.00
   -9    0    8     -1.97      0.00
   -8    0    8     -1.29      0.00
   -7    0    8      2.36      0.00
   -6    0    8      1.45      0.00
   -5    0    8     -0.78      0.00
   -4    0    8     -1.82      0.00
   -3    0    8      3.85      0.00
   -2    0    8     -1.16      0.00
   -1    0    8     -7.49      0.00
    0    0    8      0.55      0.00
    1    0    8     14.64      0.00
    2    0    8     -6.41      0.00
    3    0    8     -3.68      0.00
    4    0    8      7.08      0.00
    5    0    8      0.44      0.00
    6    0    8     -1.45      0.00
    7    0    8      0.09      0.00
    8    0    8      0.81      0.00
    9    0    8     -1.25      0.00
   10    0    8      2.16      0.00
   11    0    8      1.13      0.00
   12    0    8     -0.02      0.00
   13    0    8     -2.01      0.00
   14    0    8     -1.89      0.00
   15    0    8      2.47      0.00
  -12    1    8      0.73      0.00
  -11    1    8      2.63      0.00
  -10    1    8      0.68      0.00
   -9    1    8     -2.89      0.00
   -8    1    8     -1.34      0.00
   -7    1    8      3.42      0.00
   -6    1    8      1.39      0.00
   -5    1    8     -3.09      0.00
   -4    1    8     -0.13      0.00
   -3    1    8      5.52      0.00
   -2    1    8     -5.94      0.00
   -1    1    8    -13.29      0.00
    0    1    8      1.46      0.00
    1    1    8      7.91      0.00
    2    1    8    -10.97      0.00
    3    1    8      1.06      0.00
    4    1    8      8.13      0.00
    5    1    8      2.71      0.00
    6    1    8     -3.29      0.00
    7    1    8     -0.25      0.00
    8    1    8      0.13      0.00
    9    1    8     -0.31      0.00
   10    1    8      1.76      0.00
   11    1    8     -0.38      0.00
   12    1    8      0.67      0.00
   13    1    8     -1.77      0.00
   14    1    8     -0.04      0.00
   15    1    8      1.84      0.00
   16    1    8      1.46      0.00
  -12    2    8      2.29      0.00
  -11    2    8      3.56      0.00
  -10    2    8      0.16      0.00
   -9    2    8     -2.86      0.00
   -8    2    8     -0.39      0.00
   -7    2    8      3.41      0.00
   -6    2    8      0.57      0.00
   -5    2    8     -3.93      0.00
   -4    2    8      3.21      0.00
   -3    2    8      6.48      0.00
   -2    2    8     -7.66      0.00
   -1    2    8    -14.88      0.00
    0    2    8     -0.38      0.00
    1    2    8      0.05      0.00
    2    2    8    -11.85      0.00
    3    2    8      4.02      0.00
    4    2    8      8.27      0.00
    5    2    8      3.23      0.00
    6    2    8     -4.06      0.00
    7    2    8     -0.43      0.00
    8    2    8     -0.24      0.00
    9    2    8      0.12      0.00
   10    2    8     -0.79      0.00
   11    2    8     -0.35      0.00
   12    2    8      2.33      0.00
   13    2    8     -0.86      0.00
   14    2    8      0.53      0.00
   15    2    8      0.48      0.00
   16    2    8      1.43      0.00
  -12    3    8      2.40      0.00
  -11    3    8      2.62      0.00
  -10    3    8      1.09      0.00
   -9    3    8     -1.41      0.00
   -8    3    8     -0.43      0.00
   -7    3    8      1.79      0.00
   -6    3    8      0.22      0.00
   -5    3    8     -4.47      0.00
   -4    3    8      6.32      0.00
   -3    3    8      7.97      0.00
   -2    3    8     -6.25      0.00
   -1    3    8    -14.23      0.00
    0    3    8     -1.46      0.00
    1    3    8     -3.30      0.00
    2    3    8    -10.02      0.00
    3    3    8      5.12      0.00
    4    3    8      6.97      0.00
    5    3    8      3.29      0.00
    6    3    8     -3.36      0.00
    7    3    8     -0.67      0.00
    8    3    8     -0.46      0.00
    9    3    8     -1.09      0.00
   10    3    8     -2.37      0.00
   11    3    8      1.07      0.00
   12    3    8      1.57      0.00
   13    3    8     -0.76      0.00
   14    3    8      0.90      0.00
   15    3    8      0.34      0.00
   16    3    8      1.13      0.00
  -11    4    8      2.33      0.00
  -10    4    8      2.69      0.00
   -9    4    8     -1.49      0.00
   -8    4    8     -1.46      0.00
   -7    4    8      2.01      0.00
   -6    4    8     -0.85      0.00
   -5    4    8     -5.39      0.00
   -4    4    8      8.94      0.00
   -3    4    8      7.75      0.00
   -2    4    8     -5.28      0.00
   -1    4    8    -11.24      0.00
    0    4    8      0.52      0.00
    1    4    8     -3.42      0.00
    2    4    8     -6.72      0.00
    3    4    8      5.11      0.00
    4    4    8      4.80      0.00
    5    4    8      3.66      0.00
    6    4    8     -1.17      0.00
    7    4    8      0.68      0.00
    8    4    8     -1.44      0.00
    9    4    8     -2.30      0.00
   10    4    8     -2.28      0.00
   11    4    8      0.16      0.00
   12    4    8     -1.13      0.00
   13    4    8      0.85      0.00
   14    4    8      1.74      0.00
   15    4    8     -0.11      0.00
   16    4    8     -0.18      0.00
  -11    5    8      2.64      0.00
  -10    5    8      1.55      0.00
   -9    5    8     -2.55      0.00
   -8    5    8     -0.12      0.00
   -7    5    8      3.22      0.00
   -6    5    8     -3.80      0.00
   -5    5    8     -4.05      0.00
   -4    5    8      9.17      0.00
   -3    5    8      4.12      0.00
   -2    5    8     -4.33      0.00
   -1    5    8     -6.22      0.00
    0    5    8      2.02      0.00
    1    5    8     -3.26      0.00
    2    5    8     -2.30      0.00
    3    5    8      3.15      0.00
    4    5    8      1.32      0.00
    5    5    8      4.48      0.00
    6    5    8      2.93      0.00
    7    5    8      2.07      0.00
    8    5    8     -3.30      0.00
    9    5    8     -2.13      0.00
   10    5    8     -1.87      0.00
   11    5    8     -2.14      0.00
   12    5    8     -1.87      0.00
   13    5    8      3.37      0.00
   14    5    8      1.55      0.00
   15    5    8     -1.31      0.00
   16    5    8     -1.55      0.00
  -11    6    8      1.14      0.00
  -10    6    8     -0.59      0.00
   -9    6    8     -1.42      0.00
   -8    6    8      2.11      0.00
   -7    6    8      2.19      0.00
   -6    6    8     -5.37      0.00
   -5    6    8     -0.89      0.00
   -4    6    8      5.69      0.00
   -3    6    8      0.75      0.00
   -2    6    8     -1.74      0.00
   -1    6    8     -2.37      0.00
    0    6    8      0.46      0.00
    1    6    8     -2.42      0.00
    2    6    8      1.74      0.00
    3    6    8     -1.59      0.00
    4    6    8     -2.02      0.00
    5    6    8      5.77      0.00
    6    6    8      5.81      0.00
    7    6    8      0.61      0.00
    8    6    8     -4.98      0.00
    9    6    8     -0.89      0.00
   10    6    8     -1.14      0.00
   11    6    8     -3.47      0.00
   12    6    8     -0.66      0.00
   13    6    8      4.49      0.00
   14    6    8      0.70      0.00
   15    6    8     -1.94      0.00
   16    6    8     -1.57      0.00
  -10    7    8     -0.61      0.00
   -9    7    8     -0.05      0.00
   -8    7    8      2.41      0.00
   -7    7    8      0.32      0.00
   -6    7    8     -3.76      0.00
   -5    7    8      0.58      0.00
   -4    7    8      1.23      0.00
   -3    7    8      0.36      0.00
   -2    7    8      1.14      0.00
   -1    7    8     -1.64      0.00
    0    7    8     -1.97      0.00
    1    7    8      0.00      0.00
    2    7    8      2.97      0.00
    3    7    8     -6.09      0.00
    4    7    8     -2.55      0.00
    5    7    8      5.74      0.00
    6    7    8      5.47      0.00
    7    7    8     -2.62      0.00
    8    7    8     -5.34      0.00
    9    7    8      0.36      0.00
   10    7    8     -1.30      0.00
   11    7    8     -3.79      0.00
   12    7    8      0.68      0.00
   13    7    8      3.81      0.00
   14    7    8     -0.24      0.00
   15    7    8     -1.57      0.00
   16    7    8     -0.31      0.00
  -10    8    8     -0.66      0.00
   -9    8    8     -0.29      0.00
   -8    8    8      2.20      0.00
   -7    8    8     -0.13      0.00
   -6    8    8     -0.96      0.00
   -5    8    8     -0.63      0.00
   -4    8    8     -1.73      0.00
   -3    8    8      1.79      0.00
   -2    8    8      2.61      0.00
   -1    8    8     -2.66      0.00
    0    8    8     -2.45      0.00
    1    8    8      1.79      0.00
    2    8    8      1.28      0.00
    3    8    8     -5.87      0.00
    4    8    8     -1.50      0.00
    5    8    8      3.70      0.00
    6    8    8      4.11      0.00
    7    8    8     -4.86      0.00
    8    8    8     -3.88      0.00
    9    8    8      0.58      0.00
   10    8    8     -2.31      0.00
   11    8    8     -2.87      0.00
   12    8    8      0.51      0.00
   13    8    8      1.90      0.00
   14    8    8     -1.26      0.00
   15    8    8     -0.46      0.00
   16    8    8      0.95      0.00
  -10    9    8     -1.72      0.00
   -9    9    8     -0.07      0.00
   -8    9    8      2.42      0.00
   -7    9    8      0.41      0.00
   -6    9    8      0.53      0.00
   -5    9    8     -2.80      0.00
   -4    9    8     -2.31      0.00
   -3    9    8      3.15      0.00
   -2    9    8      2.23      0.00
   -1    9    8     -2.71      0.00
    0    9    8     -1.57      0.00
    1    9    8      1.20      0.00
    2    9    8      0.58      0.00
    3    9    8     -1.97      0.00
    4    9    8     -2.41      0.00
    5    9    8      1.64      0.00
    6    9    8      2.65      0.00
    7    9    8     -5.20      0.00
    8    9    8     -0.94      0.00
    9    9    8      0.79      0.00
   10    9    8     -2.04      0.00
   11    9    8     -2.03      0.00
   12    9    8     -0.93      0.00
   13    9    8      0.27      0.00
   14    9    8     -1.78      0.00
   15    9    8      0.71      0.00
   16    9    8      1.06      0.00
   -9   10    8      0.85      0.00
   -8   10    8      1.99      0.00
   -7   10    8      0.37      0.00
   -6   10    8      0.47      0.00
   -5   10    8     -2.95      0.00
   -4   10    8     -1.42      0.00
   -3   10    8      2.56      0.00
   -2   10    8      1.35      0.00
   -1   10    8     -0.88      0.00
    0   10    8     -0.85      0.00
    1   10    8      0.81      0.00
    2   10    8      2.30      0.00
    3   10    8      0.32      0.00
    4   10    8     -4.03      0.00
    5   10    8      0.53      0.00
    6   10    8     -0.31      0.00
    7   10    8     -3.80      0.00
    8   10    8      2.59      0.00
    9   10    8      1.50      0.00
   10   10    8     -1.40      0.00
   11   10    8     -1.89      0.00
   12   10    8     -0.91      0.00
   13   10    8     -0.47      0.00
   14   10    8     -1.48      0.00
   15   10    8      0.73      0.00
   16   10    8      0.04      0.00
   -8   11    8      0.58      0.00
   -7   11    8     -0.13      0.00
   -6   11    8      1.06      0.00
   -5   11    8     -1.41      0.00
   -4   11    8     -1.53      0.00
   -3   11    8      0.90      0.00
   -2   11    8      1.33      0.00
   -1   11    8      1.24      0.00
    0   11    8      0.13      0.00
    1   11    8      1.45      0.00
    2   11    8      3.42      0.00
    3   11    8      0.81      0.00
    4   11    8     -2.95      0.00
    5   11    8     -0.92      0.00
    6   11    8     -3.53      0.00
    7   11    8     -0.76      0.00
    8   11    8      4.95      0.00
    9   11    8      0.76      0.00
   10   11    8     -1.25      0.00
   11   11    8     -0.80      0.00
   12   11    8      0.50      0.00
   13   11    8     -0.86      0.00
   14   11    8     -0.90      0.00
   15   11    8     -0.83      0.00
   16   11    8     -0.63      0.00
   -8   12    8     -0.47      0.00
   -7   12    8      0.45      0.00
   -6   12    8      1.60      0.00
   -5   12    8     -1.05      0.00
   -4   12    8     -1.44      0.00
   -3   12    8      0.48      0.00
   -2   12    8      1.00      0.00
   -1   12    8      2.40      0.00
    0   12    8      0.80      0.00
    1   12    8      1.00      0.00
    2   12    8      3.41      0.00
    3   12    8      1.72      0.00
    4   12    8     -0.23      0.00
    5   12    8     -2.51      0.00
    6   12    8     -4.54      0.00
    7   12    8      2.75      0.00
    8   12    8      4.64      0.00
    9   12    8     -0.70      0.00
   10   12    8     -0.07      0.00
   11   12    8      0.60      0.00
   12   12    8      1.44      0.00
   13   12    8     -0.62      0.00
   14   12    8     -0.90      0.00
   15   12    8     -2.15      0.00
   -7   13    8      0.89      0.00
   -6   13    8      0.21      0.00
   -5   13    8     -0.77      0.00
   -4   13    8      0.50      0.00
   -3   13    8      0.07      0.00
   -2   13    8     -0.48      0.00
   -1   13    8      2.92      0.00
    0   13    8      0.63      0.00
    1   13    8      0.28      0.00
    2   13    8      2.68      0.00
    3   13    8      2.33      0.00
    4   13    8      2.11      0.00
    5   13    8     -3.55      0.00
    6   13    8     -3.59      0.00
    7   13    8      4.72      0.00
    8   13    8      2.56      0.00
    9   13    8      0.12      0.00
   10   13    8      1.44      0.00
   11   13    8      1.36      0.00
   12   13    8      2.00      0.00
   13   13    8     -0.11      0.00
   14   13    8     -1.06      0.00
   15   13    8     -1.55      0.00
   -6   14    8     -0.90      0.00
   -5   14    8      0.26      0.00
   -4   14    8      1.56      0.00
   -3   14    8     -1.81      0.00
   -2   14    8     -1.36      0.00
   -1   14    8      3.54      0.00
    0   14    8      0.88      0.00
    1   14    8      0.00      0.00
    2   14    8      1.09      0.00
    3   14    8      3.08      0.00
    4   14    8      2.98      0.00
    5   14    8     -4.41      0.00
    6   14    8     -1.69      0.00
    7   14    8      3.76      0.00
    8   14    8      0.85      0.00
    9   14    8      2.39      0.00
   10   14    8      1.68      0.00
   11   14    8      2.26      0.00
   12   14    8      1.88      0.00
   13   14    8      0.26      0.00
   14   14    8     -0.42      0.00
   -5   15    8      0.01      0.00
   -4   15    8      0.45      0.00
   -3   15    8     -3.63      0.00
   -2   15    8     -0.38      0.00
   -1   15    8      3.42      0.00
    0   15    8      0.96      0.00
    1   15    8     -0.04      0.00
    2   15    8      0.74      0.00
    3   15    8      3.53      0.00
    4   15    8      1.67      0.00
    5   15    8     -3.50      0.00
    6   15    8      0.53      0.00
    7   15    8      0.54      0.00
    8   15    8      0.50      0.00
    9   15    8      2.94      0.00
   10   15    8      1.16      0.00
   11   15    8      2.50      0.00
   12   15    8      1.10      0.00
   13   15    8      0.83      0.00
   14   15    8      0.07      0.00
   -4   16    8     -0.94      0.00
   -3   16    8     -3.31      0.00
   -2   16    8      0.91      0.00
   -1   16    8      1.11      0.00
    0   16    8      0.75      0.00
    1   16    8      1.03      0.00
    2   16    8      0.56      0.00
    3   16    8      1.88      0.00
    4   16    8      0.41      0.00
    5   16    8     -0.41      0.00
    6   16    8      1.42      0.00
    7   16    8     -2.00      0.00
    8   16    8      0.59      0.00
    9   16    8      1.21      0.00
   10   16    8      0.42      0.00
   11   16    8      1.49      0.00
   12   16    8      1.14      0.00
   13   16    8      0.78      0.00
   -2   17    8      0.59      0.00
   -1   17    8     -0.87      0.00
    0   17    8      1.21      0.00
    1   17    8      1.20      0.00
    2   17    8     -1.25      0.00
    3   17    8      0.64      0.00
    4   17    8     -0.14      0.00
    5   17    8      1.53      0.00
    6   17    8      0.75      0.00
    7   17    8     -1.88      0.00
    8   17    8     -0.38      0.00
    9   17    8     -1.00      0.00
   10   17    8     -0.47      0.00
   11   17    8      0.95      0.00
   12   17    8      1.43      0.00
   -1   18    8     -0.19      0.00
    0   18    8      0.63      0.00
    1   18    8     -0.16      0.00
    2   18    8     -1.54      0.00
    3   18    8      0.65      0.00
    4   18    8     -1.86      0.00
    5   18    8      1.41      0.00
    6   18    8      0.09      0.00
    7   18    8     -0.33      0.00
    8   18    8     -2.38      0.00
    9   18    8     -1.86      0.00
   10   18    8     -0.69      0.00
   11   18    8      1.20      0.00
    2   19    8     -0.32      0.00
    3   19    8     -0.36      0.00
    4   19    8     -3.02      0.00
    5   19    8      0.82      0.00
    6   19    8      0.17      0.00
    7   19    8      0.48      0.00
    8   19    8     -3.43      0.00
    9   19    8     -0.72      0.00
   -2  -13    9     -0.15      0.00
   -1  -13    9      0.84      0.00
    0  -13    9      0.49      0.00
    1  -13    9     -2.59      0.00
   -5  -12    9      0.76      0.00
   -4  -12    9      0.81      0.00
   -3  -12    9     -0.84      0.00
   -2  -12    9     -0.17      0.00
   -1  -12    9      0.36      0.00
    0  -12    9     -1.21      0.00
    1  -12    9     -2.70      0.00
    2  -12    9     -0.24      0.00
    3  -12    9      0.85      0.00
    4  -12    9      0.85      0.00
   -7  -11    9     -1.44      0.00
   -6  -11    9     -0.90      0.00
   -5  -11    9      0.85      0.00
   -4  -11    9      0.14      0.00
   -3  -11    9      0.37      0.00
   -2  -11    9     -0.41      0.00
   -1  -11    9     -1.12      0.00
    0  -11    9     -2.08      0.00
    1  -11    9     -1.67      0.00
    2  -11    9      0.67      0.00
    3  -11    9      0.54      0.00
    4  -11    9      0.53      0.00
    5  -11    9      1.44      0.00
    6  -11    9     -0.95      0.00
   -8  -10    9      0.33      0.00
   -7  -10    9     -0.39      0.00
   -6  -10    9      0.05      0.00
   -5  -10    9      0.12      0.00
   -4  -10    9     -0.38      0.00
   -3  -10    9      1.73      0.00
   -2  -10    9     -0.16      0.00
   -1  -10    9     -1.86      0.00
    0  -10    9     -2.09      0.00
    1  -10    9     -0.98      0.00
    2  -10    9      1.11      0.00
    3  -10    9     -0.84      0.00
    4  -10    9      0.66      0.00
    5  -10    9      1.14      0.00
    6  -10    9     -0.91      0.00
    7  -10    9      0.04      0.00
    8  -10    9     -1.34      0.00
   -9   -9    9      0.00      0.00
   -8   -9    9      0.59      0.00
   -7   -9    9      0.84      0.00
   -6   -9    9      0.56      0.00
   -5   -9    9     -0.43      0.00
   -4   -9    9      0.11      0.00
   -3   -9    9      2.34      0.00
   -2   -9    9      0.98      0.00
   -1   -9    9     -1.47      0.00
    0   -9    9     -1.63      0.00
    1   -9    9     -0.83      0.00
    2   -9    9      0.84      0.00
    3   -9    9     -2.27      0.00
    4   -9    9      0.05      0.00
    5   -9    9      0.58      0.00
    6   -9    9      0.90      0.00
    7   -9    9     -0.05      0.00
    8   -9    9     -2.55      0.00
    9   -9    9     -0.94      0.00
   -9   -8    9      0.33      0.00
   -8   -8    9     -0.49      0.00
   -7   -8    9      1.19      0.00
   -6   -8    9      0.29      0.00
   -5   -8    9      0.15      0.00
   -4   -8    9      0.00      0.00
   -3   -8    9      1.23      0.00
   -2   -8    9      1.95      0.00
   -1   -8    9      0.60      0.00
    0   -8    9     -0.72      0.00
    1   -8    9     -0.82      0.00
    2   -8    9      0.13      0.00
    3   -8    9     -3.54      0.00
    4   -8    9     -0.30      0.00
    5   -8    9      1.34      0.00
    6   -8    9      0.88      0.00
    7   -8    9     -1.03      0.00
    8   -8    9     -0.89      0.00
    9   -8    9     -0.86      0.00
   10   -8    9      0.34      0.00
  -10   -7    9      0.36      0.00
   -9   -7    9     -0.42      0.00
   -8   -7    9     -1.24      0.00
   -7   -7    9      0.85      0.00
   -6   -7    9     -0.27      0.00
   -5   -7    9      0.57      0.00
   -4   -7    9     -2.49      0.00
   -3   -7    9     -1.00      0.00
   -2   -7    9      2.64      0.00
   -1   -7    9      3.67      0.00
    0   -7    9     -1.07      0.00
    1   -7    9     -0.82      0.00
    2   -7    9     -1.24      0.00
    3   -7    9     -2.87      0.00
    4   -7    9      1.52      0.00
    5   -7    9      0.70      0.00
    6   -7    9     -0.81      0.00
    7   -7    9      0.30      0.00
    8   -7    9      0.70      0.00
    9   -7    9     -1.66      0.00
   10   -7    9      0.32      0.00
   11   -7    9     -0.96      0.00
  -10   -6    9     -0.11      0.00
   -9   -6    9     -0.35      0.00
   -8   -6    9     -0.01      0.00
   -7   -6    9     -0.48      0.00
   -6   -6    9     -0.11      0.00
   -5   -6    9     -0.36      0.00
   -4   -6    9     -5.32      0.00
   -3   -6    9     -2.76      0.00
   -2   -6    9      3.28      0.00
   -1   -6    9      4.46      0.00
    0   -6    9     -2.89      0.00
    1   -6    9     -0.74      0.00
    2   -6    9     -2.50      0.00
    3   -6    9      0.45      0.00
    4   -6    9      2.20      0.00
    5   -6    9     -1.28      0.00
    6   -6    9      0.37      0.00
    7   -6    9      1.24      0.00
    8   -6    9     -0.28      0.00
    9   -6    9     -1.33      0.00
   10   -6    9      0.43      0.00
   11   -6    9     -0.81      0.00
   12   -6    9     -0.16      0.00
  -11   -5    9     -0.78      0.00
  -10   -5    9     -0.66      0.00
   -9   -5    9      1.60      0.00
   -8   -5    9      0.59      0.00
   -7   -5    9     -1.36      0.00
   -6   -5    9      1.23      0.00
   -5   -5    9     -1.33      0.00
   -4   -5    9     -6.23      0.00
   -3   -5    9     -3.66      0.00
   -2   -5    9      3.52      0.00
   -1   -5    9      1.79      0.00
    0   -5    9     -3.08      0.00
    1   -5    9     -0.51      0.00
    2   -5    9     -3.05      0.00
    3   -5    9      2.84      0.00
    4   -5    9      0.42      0.00
    5   -5    9     -0.64      0.00
    6   -5    9      1.76      0.00
    7   -5    9     -1.38      0.00
    8   -5    9     -0.81      0.00
    9   -5    9      0.66      0.00
   10   -5    9      0.83      0.00
   11   -5    9      0.47      0.00
   12   -5    9      0.08      0.00
  -11   -4    9     -2.24      0.00
  -10   -4    9     -0.25      0.00
   -9   -4    9      2.33      0.00
   -8   -4    9     -0.02      0.00
   -7   -4    9     -0.21      0.00
   -6   -4    9      2.47      0.00
   -5   -4    9     -1.23      0.00
   -4   -4    9     -5.72      0.00
   -3   -4    9     -3.17      0.00
   -2   -4    9      2.72      0.00
   -1   -4    9     -1.67      0.00
    0   -4    9      0.51      0.00
    1   -4    9     -0.43      0.00
    2   -4    9     -3.14      0.00
    3   -4    9      3.28      0.00
    4   -4    9     -1.29      0.00
    5   -4    9      0.58      0.00
    6   -4    9     -0.30      0.00
    7   -4    9     -3.46      0.00
    8   -4    9      0.42      0.00
    9   -4    9      2.26      0.00
   10   -4    9      1.18      0.00
   11   -4    9      0.79      0.00
   12   -4    9      0.01      0.00
   13   -4    9      0.44      0.00
  -11   -3    9     -2.68      0.00
  -10   -3    9     -0.04      0.00
   -9   -3    9      1.40      0.00
   -8   -3    9      0.08      0.00
   -7   -3    9      0.82      0.00
   -6   -3    9      2.73      0.00
   -5   -3    9     -0.47      0.00
   -4   -3    9     -3.86      0.00
   -3   -3    9     -1.50      0.00
   -2   -3    9      0.20      0.00
   -1   -3    9     -2.48      0.00
    0   -3    9      6.04      0.00
    1   -3    9     -0.78      0.00
    2   -3    9     -1.15      0.00
    3   -3    9      3.01      0.00
    4   -3    9     -3.70      0.00
    5   -3    9      0.48      0.00
    6   -3    9     -1.90      0.00
    7   -3    9     -2.62      0.00
    8   -3    9      0.91      0.00
    9   -3    9      2.24      0.00
   10   -3    9      0.42      0.00
   11   -3    9      0.24      0.00
   12   -3    9      0.80      0.00
   13   -3    9      0.11      0.00
   14   -3    9      0.32      0.00
  -11   -2    9     -2.15      0.00
  -10   -2    9     -0.19      0.00
   -9   -2    9      0.86      0.00
   -8   -2    9     -0.20      0.00
   -7   -2    9      0.59      0.00
   -6   -2    9      2.86      0.00
   -5   -2    9      0.27      0.00
   -4   -2    9     -0.81      0.00
   -3   -2    9     -0.82      0.00
   -2   -2    9     -2.20      0.00
   -1   -2    9      0.43      0.00
    0   -2    9      8.99      0.00
    1   -2    9     -0.44      0.00
    2   -2    9      4.01      0.00
    3   -2    9      0.40      0.00
    4   -2    9     -5.97      0.00
    5   -2    9      1.42      0.00
    6   -2    9     -1.60      0.00
    7   -2    9     -1.24      0.00
    8   -2    9      0.73      0.00
    9   -2    9      1.52      0.00
   10   -2    9     -0.61      0.00
   11   -2    9      0.28      0.00
   12   -2    9      0.85      0.00
   13   -2    9     -0.41      0.00
   14   -2    9      1.65      0.00
  -11   -1    9     -1.36      0.00
  -10   -1    9     -0.13      0.00
   -9   -1    9      0.22      0.00
   -8   -1    9     -1.07      0.00
   -7   -1    9      0.81      0.00
   -6   -1    9      2.57      0.00
   -5   -1    9      0.72      0.00
   -4   -1    9      1.19      0.00
   -3   -1    9     -1.28      0.00
   -2   -1    9     -1.48      0.00
   -1   -1    9      3.53      0.00
    0   -1    9      6.74      0.00
    1   -1    9      3.18      0.00
    2   -1    9      9.50      0.00
    3   -1    9     -4.47      0.00
    4   -1    9     -5.14      0.00
    5   -1    9      1.88      0.00
    6   -1    9     -1.29      0.00
    7   -1    9     -0.35      0.00
    8   -1    9      1.47      0.00
    9   -1    9      0.99      0.00
   10   -1    9     -0.93      0.00
   11   -1    9      0.94      0.00
   12   -1    9      0.41      0.00
   13   -1    9      0.41      0.00
   14   -1    9      0.88      0.00
   15   -1    9     -0.71      0.00
  -11    0    9     -0.56      0.00
  -10    0    9     -0.10      0.00
   -9    0    9     -0.45      0.00
   -8    0    9     -1.15      0.00
   -7    0    9      0.87      0.00
   -6    0    9      1.95      0.00
   -5    0    9      0.93      0.00
   -4    0    9      0.39      0.00
   -3    0    9     -0.56      0.00
   -2    0    9      0.65      0.00
   -1    0    9      1.83      0.00
    0    0    9      2.43      0.00
    1    0    9     10.19      0.00
    2    0    9     10.82      0.00
    3    0    9     -8.51      0.00
    4    0    9     -2.32      0.00
    5    0    9      1.29      0.00
    6    0    9     -0.71      0.00
    7    0    9     -0.60      0.00
    8    0    9      2.56      0.00
    9    0    9      0.07      0.00
   10    0    9     -0.15      0.00
   11    0    9      2.36      0.00
   12    0    9      0.28      0.00
   13    0    9      0.28      0.00
   14    0    9     -2.17      0.00
   15    0    9     -0.15      0.00
  -11    1    9      0.79      0.00
  -10    1    9      0.41      0.00
   -9    1    9     -0.57      0.00
   -8    1    9     -1.80      0.00
   -7    1    9      0.94      0.00
   -6    1    9      2.55      0.00
   -5    1    9      0.18      0.00
   -4    1    9     -1.88      0.00
   -3    1    9      1.81      0.00
   -2    1    9      0.02      0.00
   -1    1    9     -4.02      0.00
    0    1    9      0.22      0.00
    1    1    9     14.95      0.00
    2    1    9      6.48      0.00
    3    1    9     -9.80      0.00
    4    1    9      1.08      0.00
    5    1    9      2.42      0.00
    6    1    9     -0.93      0.00
    7    1    9     -1.96      0.00
    8    1    9      2.76      0.00
    9    1    9     -0.72      0.00
   10    1    9      1.75      0.00
   11    1    9      2.38      0.00
   12    1    9     -0.63      0.00
   13    1    9     -0.56      0.00
   14    1    9     -2.89      0.00
   15    1    9      1.61      0.00
  -11    2    9      2.76      0.00
  -10    2    9      1.06      0.00
   -9    2    9     -1.26      0.00
   -8    2    9     -2.46      0.00
   -7    2    9      2.62      0.00
   -6    2    9      2.78      0.00
   -5    2    9     -1.36      0.00
   -4    2    9     -3.01      0.00
   -3    2    9      4.62      0.00
   -2    2    9     -2.57      0.00
   -1    2    9     -9.32      0.00
    0    2    9     -1.32      0.00
    1    2    9     12.99      0.00
    2    2    9     -0.08      0.00
    3    2    9     -8.83      0.00
    4    2    9      4.70      0.00
    5    2    9      4.22      0.00
    6    2    9     -2.54      0.00
    7    2    9     -2.91      0.00
    8    2    9      2.23      0.00
    9    2    9     -0.06      0.00
   10    2    9      2.09      0.00
   11    2    9     -0.03      0.00
   12    2    9      0.09      0.00
   13    2    9      0.19      0.00
   14    2    9     -1.78      0.00
   15    2    9      1.09      0.00
   16    2    9      0.95      0.00
  -11    3    9      3.43      0.00
  -10    3    9      1.09      0.00
   -9    3    9     -1.32      0.00
   -8    3    9     -1.36      0.00
   -7    3    9      3.09      0.00
   -6    3    9      1.55      0.00
   -5    3    9     -2.20      0.00
   -4    3    9     -2.37      0.00
   -3    3    9      7.87      0.00
   -2    3    9     -3.47      0.00
   -1    3    9    -12.29      0.00
    0    3    9     -3.95      0.00
    1    3    9      8.06      0.00
    2    3    9     -5.46      0.00
    3    3    9     -7.58      0.00
    4    3    9      7.47      0.00
    5    3    9      4.54      0.00
    6    3    9     -4.17      0.00
    7    3    9     -3.48      0.00
    8    3    9      1.97      0.00
    9    3    9      0.60      0.00
   10    3    9      0.13      0.00
   11    3    9     -0.80      0.00
   12    3    9      2.76      0.00
   13    3    9      0.07      0.00
   14    3    9     -1.35      0.00
   15    3    9     -0.02      0.00
   16    3    9      1.15      0.00
  -11    4    9      2.26      0.00
  -10    4    9      1.96      0.00
   -9    4    9     -0.18      0.00
   -8    4    9     -1.29      0.00
   -7    4    9      1.42      0.00
   -6    4    9      1.26      0.00
   -5    4    9     -3.37      0.00
   -4    4    9     -0.24      0.00
   -3    4    9     11.16      0.00
   -2    4    9     -2.96      0.00
   -1    4    9    -13.12      0.00
    0    4    9     -4.58      0.00
    1    4    9      4.76      0.00
    2    4    9     -9.54      0.00
    3    4    9     -5.57      0.00
    4    4    9      9.13      0.00
    5    4    9      3.22      0.00
    6    4    9     -5.13      0.00
    7    4    9     -3.17      0.00
    8    4    9      2.11      0.00
    9    4    9     -0.24      0.00
   10    4    9     -1.17      0.00
   11    4    9      0.25      0.00
   12    4    9      2.79      0.00
   13    4    9     -1.25      0.00
   14    4    9     -0.05      0.00
   15    4    9      0.15      0.00
   16    4    9      1.29      0.00
  -11    5    9      1.55      0.00
  -10    5    9      3.11      0.00
   -9    5    9     -0.66      0.00
   -8    5    9     -2.40      0.00
   -7    5    9      1.53      0.00
   -6    5    9      1.00      0.00
   -5    5    9     -5.60      0.00
   -4    5    9      3.17      0.00
   -3    5    9     11.66      0.00
   -2    5    9     -3.03      0.00
   -1    5    9    -11.15      0.00
    0    5    9     -2.08      0.00
    1    5    9      2.18      0.00
    2    5    9    -11.00      0.00
    3    5    9     -1.36      0.00
    4    5    9      8.16      0.00
    5    5    9      1.24      0.00
    6    5    9     -3.64      0.00
    7    5    9     -0.72      0.00
    8    5    9      1.68      0.00
    9    5    9     -1.55      0.00
   10    5    9     -1.50      0.00
   11    5    9     -0.09      0.00
   12    5    9      0.35      0.00
   13    5    9     -0.79      0.00
   14    5    9      1.86      0.00
   15    5    9      0.18      0.00
   16    5    9      0.26      0.00
  -10    6    9      1.93      0.00
   -9    6    9     -1.71      0.00
   -8    6    9     -1.28      0.00
   -7    6    9      2.85      0.00
   -6    6    9     -1.38      0.00
   -5    6    9     -6.19      0.00
   -4    6    9      5.73      0.00
   -3    6    9      8.59      0.00
   -2    6    9     -3.35      0.00
   -1    6    9     -7.23      0.00
    0    6    9      0.05      0.00
    1    6    9     -0.60      0.00
    2    6    9     -7.97      0.00
    3    6    9      1.84      0.00
    4    6    9      3.52      0.00
    5    6    9      1.28      0.00
    6    6    9      0.54      0.00
    7    6    9      2.08      0.00
    8    6    9      0.20      0.00
    9    6    9     -2.43      0.00
   10    6    9     -1.35      0.00
   11    6    9     -0.99      0.00
   12    6    9     -1.61      0.00
   13    6    9      1.04      0.00
   14    6    9      2.78      0.00
   15    6    9     -0.35      0.00
   16    6    9     -1.04      0.00
  -10    7    9      0.26      0.00
   -9    7    9     -0.73      0.00
   -8    7    9      0.65      0.00
   -7    7    9      2.40      0.00
   -6    7    9     -3.77      0.00
   -5    7    9     -4.14      0.00
   -4    7    9      5.71      0.00
   -3    7    9      4.50      0.00
   -2    7    9     -3.01      0.00
   -1    7    9     -3.42      0.00
    0    7    9     -0.35      0.00
    1    7    9     -1.83      0.00
    2    7    9     -2.82      0.00
    3    7    9      0.45      0.00
    4    7    9     -0.94      0.00
    5    7    9      3.52      0.00
    6    7    9      3.70      0.00
    7    7    9      2.98      0.00
    8    7    9     -2.03      0.00
    9    7    9     -2.35      0.00
   10    7    9     -0.35      0.00
   11    7    9     -2.11      0.00
   12    7    9     -2.15      0.00
   13    7    9      2.82      0.00
   14    7    9      2.87      0.00
   15    7    9     -0.95      0.00
   16    7    9     -1.31      0.00
  -10    8    9      0.11      0.00
   -9    8    9     -0.05      0.00
   -8    8    9      1.28      0.00
   -7    8    9      1.15      0.00
   -6    8    9     -3.92      0.00
   -5    8    9     -1.34      0.00
   -4    8    9      3.35      0.00
   -3    8    9      1.27      0.00
   -2    8    9     -1.21      0.00
   -1    8    9     -1.16      0.00
    0    8    9     -1.95      0.00
    1    8    9     -0.95      0.00
    2    8    9     -0.10      0.00
    3    8    9     -2.88      0.00
    4    8    9     -1.39      0.00
    5    8    9      4.43      0.00
    6    8    9      4.55      0.00
    7    8    9      2.38      0.00
    8    8    9     -4.03      0.00
    9    8    9     -1.59      0.00
   10    8    9     -0.54      0.00
   11    8    9     -3.49      0.00
   12    8    9     -1.01      0.00
   13    8    9      3.18      0.00
   14    8    9      2.08      0.00
   15    8    9     -1.33      0.00
   16    8    9     -0.31      0.00
   -9    9    9     -0.72      0.00
   -8    9    9      1.79      0.00
   -7    9    9      0.58      0.00
   -6    9    9     -2.27      0.00
   -5    9    9     -0.11      0.00
   -4    9    9     -0.10      0.00
   -3    9    9      0.32      0.00
   -2    9    9      1.37      0.00
   -1    9    9     -0.99      0.00
    0    9    9     -2.54      0.00
    1    9    9     -0.38      0.00
    2    9    9     -0.69      0.00
    3    9    9     -3.19      0.00
    4    9    9      0.13      0.00
    5    9    9      2.70      0.00
    6    9    9      5.20      0.00
    7    9    9      1.34      0.00
    8    9    9     -4.73      0.00
    9    9    9     -1.07      0.00
   10    9    9     -1.69      0.00
   11    9    9     -3.41      0.00
   12    9    9     -0.52      0.00
   13    9    9      1.49      0.00
   14    9    9      0.81      0.00
   15    9    9     -1.12      0.00
   16    9    9      0.94      0.00
   -9   10    9     -0.84      0.00
   -8   10    9      2.30      0.00
   -7   10    9      0.58      0.00
   -6   10    9     -0.85      0.00
   -5   10    9     -0.79      0.00
   -4   10    9     -1.68      0.00
   -3   10    9      0.92      0.00
   -2   10    9      2.34      0.00
   -1   10    9     -0.97      0.00
    0   10    9     -1.95      0.00
    1   10    9     -1.45      0.00
    2   10    9     -1.16      0.00
    3   10    9     -0.76      0.00
    4   10    9     -0.37      0.00
    5   10    9      0.44      0.00
    6   10    9      5.39      0.00
    7   10    9     -0.08      0.00
    8   10    9     -3.64      0.00
    9   10    9      0.25      0.00
   10   10    9     -1.59      0.00
   11   10    9     -2.95      0.00
   12   10    9     -1.68      0.00
   13   10    9      0.04      0.00
   14   10    9     -0.33      0.00
   15   10    9     -0.42      0.00
   16   10    9      0.99      0.00
   -8   11    9      2.12      0.00
   -7   11    9      0.36      0.00
   -6   11    9     -0.57      0.00
   -5   11    9     -0.79      0.00
   -4   11    9     -1.25      0.00
   -3   11    9      0.00      0.00
   -2   11    9      2.30      0.00
   -1   11    9      0.58      0.00
    0   11    9     -1.20      0.00
    1   11    9     -1.91      0.00
    2   11    9      0.01      0.00
    3   11    9      0.93      0.00
    4   11    9     -2.27      0.00
    5   11    9     -0.90      0.00
    6   11    9      3.26      0.00
    7   11    9     -1.61      0.00
    8   11    9     -0.73      0.00
    9   11    9      2.07      0.00
   10   11    9     -1.67      0.00
   11   11    9     -2.72      0.00
   12   11    9     -1.69      0.00
   13   11    9     -0.29      0.00
   14   11    9     -1.17      0.00
   15   11    9      0.05      0.00
   16   11    9     -0.23      0.00
   -7   12    9     -0.16      0.00
   -6   12    9      0.07      0.00
   -5   12    9      0.07      0.00
   -4   12    9     -1.73      0.00
   -3   12    9     -1.38      0.00
   -2   12    9      2.93      0.00
   -1   12    9      1.90      0.00
    0   12    9     -0.19      0.00
    1   12    9     -1.09      0.00
    2   12    9      1.32      0.00
    3   12    9      1.61      0.00
    4   12    9     -2.73      0.00
    5   12    9     -1.29      0.00
    6   12    9     -0.28      0.00
    7   12    9     -2.13      0.00
    8   12    9      2.53      0.00
    9   12    9      1.54      0.00
   10   12    9     -2.27      0.00
   11   12    9     -1.50      0.00
   12   12    9     -0.61      0.00
   13   12    9     -0.45      0.00
   14   12    9     -1.28      0.00
   15   12    9     -0.35      0.00
   -7   13    9     -0.07      0.00
   -6   13    9      0.82      0.00
   -5   13    9     -0.12      0.00
   -4   13    9     -2.12      0.00
   -3   13    9     -0.46      0.00
   -2   13    9      2.21      0.00
   -1   13    9      1.81      0.00
    0   13    9      1.07      0.00
    1   13    9     -0.60      0.00
    2   13    9      2.08      0.00
    3   13    9      1.88      0.00
    4   13    9     -1.17      0.00
    5   13    9     -0.52      0.00
    6   13    9     -3.13      0.00
    7   13    9     -1.14      0.00
    8   13    9      4.15      0.00
    9   13    9     -0.32      0.00
   10   13    9     -1.44      0.00
   11   13    9     -0.67      0.00
   12   13    9      0.24      0.00
   13   13    9     -0.21      0.00
   14   13    9     -0.98      0.00
   15   13    9     -0.87      0.00
   -6   14    9      0.50      0.00
   -5   14    9     -0.19      0.00
   -4   14    9     -0.75      0.00
   -3   14    9      0.76      0.00
   -2   14    9     -0.86      0.00
   -1   14    9      2.10      0.00
    0   14    9      2.10      0.00
    1   14    9     -0.66      0.00
    2   14    9      1.54      0.00
    3   14    9      1.58      0.00
    4   14    9      1.59      0.00
    5   14    9      0.11      0.00
    6   14    9     -4.77      0.00
    7   14    9      0.70      0.00
    8   14    9      4.11      0.00
    9   14    9     -0.25      0.00
   10   14    9     -0.14      0.00
   11   14    9     -0.42      0.00
   12   14    9      1.39      0.00
   13   14    9      0.00      0.00
   14   14    9     -0.53      0.00
   -5   15    9      0.34      0.00
   -4   15    9      0.30      0.00
   -3   15    9     -0.07      0.00
   -2   15    9     -3.18      0.00
   -1   15    9      3.68      0.00
    0   15    9      2.45      0.00
    1   15    9     -0.97      0.00
    2   15    9      0.45      0.00
    3   15    9      1.80      0.00
    4   15    9      3.32      0.00
    5   15    9     -0.83      0.00
    6   15    9     -4.45      0.00
    7   15    9      2.05      0.00
    8   15    9      3.15      0.00
    9   15    9      1.06      0.00
   10   15    9      0.57      0.00
   11   15    9      0.88      0.00
   12   15    9      1.73      0.00
   13   15    9     -0.03      0.00
   14   15    9      0.24      0.00
   -3   16    9     -1.87      0.00
   -2   16    9     -2.59      0.00
   -1   16    9      4.06      0.00
    0   16    9      1.61      0.00
    1   16    9     -0.47      0.00
    2   16    9      0.82      0.00
    3   16    9      1.54      0.00
    4   16    9      2.96      0.00
    5   16    9     -1.53      0.00
    6   16    9     -1.89      0.00
    7   16    9      1.53      0.00
    8   16    9      1.88      0.00
    9   16    9      1.66      0.00
   10   16    9      1.29      0.00
   11   16    9      1.57      0.00
   12   16    9      0.96      0.00
   13   16    9      0.57      0.00
   -2   17    9     -0.84      0.00
   -1   17    9      1.57      0.00
    0   17    9      1.04      0.00
    1   17    9      1.05      0.00
    2   17    9      0.83      0.00
    3   17    9      0.13      0.00
    4   17    9      2.56      0.00
    5   17    9     -1.05      0.00
    6   17    9      0.72      0.00
    7   17    9     -0.20      0.00
    8   17    9      1.31      0.00
    9   17    9      0.97      0.00
   10   17    9      1.24      0.00
   11   17    9      0.61      0.00
   12   17    9      1.21      0.00
    0   18    9      1.35      0.00
    1   18    9      1.06      0.00
    2   18    9     -0.21      0.00
    3   18    9      0.04      0.00
    4   18    9      1.70      0.00
    5   18    9     -0.97      0.00
    6   18    9      1.62      0.00
    7   18    9     -0.97      0.00
    8   18    9      1.03      0.00
    9   18    9     -1.03      0.00
   10   18    9      0.32      0.00
   11   18    9      0.22      0.00
    2   19    9      0.05      0.00
    3   19    9      0.49      0.00
    4   19    9     -0.59      0.00
    5   19    9     -0.87      0.00
    6   19    9      1.13      0.00
    7   19    9     -0.37      0.00
    8   19    9     -0.42      0.00
    9   19    9     -2.58      0.00
   -2  -12   10     -1.48      0.00
   -1  -12   10      0.72      0.00
    0  -12   10      2.03      0.00
    1  -12   10     -1.60      0.00
    2  -12   10     -2.53      0.00
   -5  -11   10     -0.35      0.00
   -4  -11   10      2.94      0.00
   -3  -11   10     -1.25      0.00
   -2  -11   10     -1.12      0.00
   -1  -11   10      0.36      0.00
    0  -11   10      1.19      0.00
    1  -11   10     -2.21      0.00
    2  -11   10     -2.23      0.00
    3  -11   10      1.94      0.00
    4  -11   10      0.35      0.00
    5  -11   10      0.70      0.00
   -6  -10   10     -1.72      0.00
   -5  -10   10     -0.08      0.00
   -4  -10   10      2.08      0.00
   -3  -10   10     -1.09      0.00
   -2  -10   10     -0.38      0.00
   -1  -10   10     -0.28      0.00
    0  -10   10     -0.07      0.00
    1  -10   10     -2.08      0.00
    2  -10   10     -0.56      0.00
    3  -10   10      2.52      0.00
    4  -10   10     -0.84      0.00
    5  -10   10      1.51      0.00
    6  -10   10      0.89      0.00
    7  -10   10     -2.28      0.00
   -7   -9   10      0.40      0.00
   -6   -9   10     -0.87      0.00
   -5   -9   10     -0.06      0.00
   -4   -9   10      0.91      0.00
   -3   -9   10      0.18      0.00
   -2   -9   10      0.71      0.00
   -1   -9   10     -0.65      0.00
    0   -9   10     -1.70      0.00
    1   -9   10     -1.64      0.00
    2   -9   10      0.95      0.00
    3   -9   10      1.56      0.00
    4   -9   10     -1.23      0.00
    5   -9   10      1.32      0.00
    6   -9   10      0.65      0.00
    7   -9   10     -0.80      0.00
    8   -9   10     -2.46      0.00
   -8   -8   10      0.85      0.00
   -7   -8   10      0.15      0.00
   -6   -8   10      0.81      0.00
   -5   -8   10     -0.02      0.00
   -4   -8   10      0.84      0.00
   -3   -8   10      1.61      0.00
   -2   -8   10      1.69      0.00
   -1   -8   10     -0.77      0.00
    0   -8   10     -1.95      0.00
    1   -8   10     -1.64      0.00
    2   -8   10      1.40      0.00
    3   -8   10      0.20      0.00
    4   -8   10     -2.22      0.00
    5   -8   10      0.77      0.00
    6   -8   10      2.32      0.00
    7   -8   10     -0.34      0.00
    8   -8   10     -3.83      0.00
    9   -8   10     -1.42      0.00
   -9   -7   10      0.00      0.00
   -8   -7   10     -0.55      0.00
   -7   -7   10      0.42      0.00
   -6   -7   10      1.73      0.00
   -5   -7   10     -0.13      0.00
   -4   -7   10      1.16      0.00
   -3   -7   10      1.27      0.00
   -2   -7   10      1.78      0.00
   -1   -7   10      1.02      0.00
    0   -7   10     -0.62      0.00
    1   -7   10     -2.66      0.00
    2   -7   10      1.77      0.00
    3   -7   10     -1.80      0.00
    4   -7   10     -2.80      0.00
    5   -7   10      1.99      0.00
    6   -7   10      2.30      0.00
    7   -7   10     -1.16      0.00
    8   -7   10     -2.28      0.00
    9   -7   10     -0.68      0.00
   10   -7   10     -0.51      0.00
   -9   -6   10     -0.56      0.00
   -8   -6   10     -0.99      0.00
   -7   -6   10      0.93      0.00
   -6   -6   10      0.44      0.00
   -5   -6   10     -0.02      0.00
   -4   -6   10     -0.09      0.00
   -3   -6   10     -1.12      0.00
   -2   -6   10      1.92      0.00
   -1   -6   10      4.14      0.00
    0   -6   10     -0.78      0.00
    1   -6   10     -3.13      0.00
    2   -6   10      1.55      0.00
    3   -6   10     -3.38      0.00
    4   -6   10     -0.29      0.00
    5   -6   10      2.13      0.00
    6   -6   10      0.31      0.00
    7   -6   10      0.17      0.00
    8   -6   10     -0.15      0.00
    9   -6   10     -1.67      0.00
   10   -6   10     -1.38      0.00
   11   -6   10     -0.09      0.00
  -10   -5   10     -0.03      0.00
   -9   -5   10     -0.10      0.00
   -8   -5   10      0.28      0.00
   -7   -5   10     -0.39      0.00
   -6   -5   10     -0.34      0.00
   -5   -5   10      0.36      0.00
   -4   -5   10     -2.68      0.00
   -3   -5   10     -3.45      0.00
   -2   -5   10      2.25      0.00
   -1   -5   10      5.10      0.00
    0   -5   10     -2.69      0.00
    1   -5   10     -2.11      0.00
    2   -5   10     -0.47      0.00
    3   -5   10     -2.63      0.00
    4   -5   10      2.57      0.00
    5   -5   10      0.25      0.00
    6   -5   10      1.10      0.00
    7   -5   10      1.65      0.00
    8   -5   10     -0.81      0.00
    9   -5   10     -2.67      0.00
   10   -5   10     -0.96      0.00
   11   -5   10      0.26      0.00
   12   -5   10      0.60      0.00
  -10   -4   10     -0.53      0.00
   -9   -4   10      1.42      0.00
   -8   -4   10      0.11      0.00
   -7   -4   10     -1.14      0.00
   -6   -4   10      1.17      0.00
   -5   -4   10      0.25      0.00
   -4   -4   10     -4.43      0.00
   -3   -4   10     -4.52      0.00
   -2   -4   10      2.12      0.00
   -1   -4   10      3.39      0.00
    0   -4   10     -3.85      0.00
    1   -4   10     -0.75      0.00
    2   -4   10     -3.32      0.00
    3   -4   10     -1.16      0.00
    4   -4   10      3.21      0.00
    5   -4   10     -0.24      0.00
    6   -4   10      2.93      0.00
    7   -4   10     -0.37      0.00
    8   -4   10     -1.97      0.00
    9   -4   10     -1.37      0.00
   10   -4   10      0.63      0.00
   11   -4   10      0.56      0.00
   12   -4   10      0.39      0.00
   13   -4   10     -0.32      0.00
  -10   -3   10     -0.62      0.00
   -9   -3   10      1.28      0.00
   -8   -3   10     -0.37      0.00
   -7   -3   10      0.44      0.00
   -6   -3   10      2.01      0.00
   -5   -3   10      0.11      0.00
   -4   -3   10     -4.55      0.00
   -3   -3   10     -4.03      0.00
   -2   -3   10      1.60      0.00
   -1   -3   10      0.49      0.00
    0   -3   10     -2.82      0.00
    1   -3   10      0.96      0.00
    2   -3   10     -5.52      0.00
    3   -3   10     -0.19      0.00
    4   -3   10      2.67      0.00
    5   -3   10     -0.24      0.00
    6   -3   10      2.07      0.00
    7   -3   10     -2.69      0.00
    8   -3   10     -1.29      0.00
    9   -3   10      0.62      0.00
   10   -3   10      1.27      0.00
   11   -3   10     -0.09      0.00
   12   -3   10      0.35      0.00
   13   -3   10      0.13      0.00
  -11   -2   10     -2.18      0.00
  -10   -2   10     -1.02      0.00
   -9   -2   10      0.56      0.00
   -8   -2   10      0.51      0.00
   -7   -2   10      1.00      0.00
   -6   -2   10      1.55      0.00
   -5   -2   10      0.63      0.00
   -4   -2   10     -3.46      0.00
   -3   -2   10     -2.15      0.00
   -2   -2   10     -0.08      0.00
   -1   -2   10     -2.11      0.00
    0   -2   10      1.13      0.00
    1   -2   10      2.64      0.00
    2   -2   10     -5.84      0.00
    3   -2   10      1.44      0.00
    4   -2   10      0.41      0.00
    5   -2   10     -1.02      0.00
    6   -2   10      0.81      0.00
    7   -2   10     -2.27      0.00
    8   -2   10     -0.70      0.00
    9   -2   10      1.10      0.00
   10   -2   10      0.54      0.00
   11   -2   10     -0.57      0.00
   12   -2   10      0.70      0.00
   13   -2   10     -0.52      0.00
   14   -2   10     -0.71      0.00
  -11   -1   10     -2.68      0.00
  -10   -1   10     -1.01      0.00
   -9   -1   10      0.49      0.00
   -8   -1   10      0.41      0.00
   -7   -1   10      0.38      0.00
   -6   -1   10      1.75      0.00
   -5   -1   10      0.71      0.00
   -4   -1   10     -1.34      0.00
   -3   -1   10     -0.67      0.00
   -2   -1   10     -2.29      0.00
   -1   -1   10     -2.00      0.00
    0   -1   10      5.67      0.00
    1   -1   10      2.59      0.00
    2   -1   10     -2.20      0.00
    3   -1   10      3.05      0.00
    4   -1   10     -3.36      0.00
    5   -1   10     -0.96      0.00
    6   -1   10      0.44      0.00
    7   -1   10     -0.70      0.00
    8   -1   10     -0.91      0.00
    9   -1   10      1.39      0.00
   10   -1   10     -0.20      0.00
   11   -1   10     -0.74      0.00
   12   -1   10      0.37      0.00
   13   -1   10     -0.94      0.00
   14   -1   10      1.40      0.00
  -11    0   10     -2.27      0.00
  -10    0   10     -0.53      0.00
   -9    0   10     -0.40      0.00
   -8    0   10     -0.14      0.00
   -7    0   10      0.71      0.00
   -6    0   10      1.66      0.00
   -5    0   10      0.21      0.00
   -4    0   10      0.93      0.00
   -3    0   10     -0.63      0.00
   -2    0   10     -2.17      0.00
   -1    0   10     -0.07      0.00
    0    0   10      6.41      0.00
    1    0   10      3.04      0.00
    2    0   10      5.34      0.00
    3    0   10      2.37      0.00
    4    0   10     -6.32      0.00
    5    0   10     -0.75      0.00
    6    0   10      0.18      0.00
    7    0   10      0.30      0.00
    8    0   10     -0.31      0.00
    9    0   10      2.37      0.00
   10    0   10     -1.15      0.00
   11    0   10     -0.10      0.00
   12    0   10      0.79      0.00
   13    0   10     -0.20      0.00
   14    0   10      1.49      0.00
   15    0   10     -1.50      0.00
  -11    1   10     -1.11      0.00
  -10    1   10     -0.32      0.00
   -9    1   10     -1.26      0.00
   -8    1   10      0.21      0.00
   -7    1   10      0.31      0.00
   -6    1   10      1.46      0.00
   -5    1   10      0.38      0.00
   -4    1   10      1.53      0.00
   -3    1   10     -1.09      0.00
   -2    1   10     -0.05      0.00
   -1    1   10     -0.49      0.00
    0    1   10      4.08      0.00
    1    1   10      7.15      0.00
    2    1   10     11.61      0.00
    3    1   10     -0.60      0.00
    4    1   10     -7.06      0.00
    5    1   10     -0.57      0.00
    6    1   10      0.38      0.00
    7    1   10     -0.21      0.00
    8    1   10      0.89      0.00
    9    1   10      2.18      0.00
   10    1   10     -1.30      0.00
   11    1   10      2.34      0.00
   12    1   10      0.93      0.00
   13    1   10     -0.54      0.00
   14    1   10     -0.51      0.00
   15    1   10     -1.63      0.00
  -11    2   10      0.46      0.00
  -10    2   10      0.26      0.00
   -9    2   10     -1.11      0.00
   -8    2   10     -0.50      0.00
   -7    2   10     -0.13      0.00
   -6    2   10      2.91      0.00
   -5    2   10      0.27      0.00
   -4    2   10      0.02      0.00
   -3    2   10     -1.15      0.00
   -2    2   10      1.29      0.00
   -1    2   10     -3.78      0.00
    0    2   10      1.79      0.00
    1    2   10     11.14      0.00
    2    2   10     12.53      0.00
    3    2   10     -3.17      0.00
    4    2   10     -5.57      0.00
    5    2   10      1.03      0.00
    6    2   10      0.49      0.00
    7    2   10     -1.94      0.00
    8    2   10      1.04      0.00
    9    2   10      1.32      0.00
   10    2   10      0.44      0.00
   11    2   10      3.00      0.00
   12    2   10     -0.78      0.00
   13    2   10     -0.29      0.00
   14    2   10     -1.00      0.00
   15    2   10     -0.20      0.00
  -11    3   10      1.87      0.00
  -10    3   10      0.92      0.00
   -9    3   10     -1.14      0.00
   -8    3   10     -1.24      0.00
   -7    3   10      1.48      0.00
   -6    3   10      3.58      0.00
   -5    3   10     -0.61      0.00
   -4    3   10     -2.05      0.00
   -3    3   10     -0.02      0.00
   -2    3   10      1.82      0.00
   -1    3   10     -7.42      0.00
    0    3   10     -1.35      0.00
    1    3   10     10.74      0.00
    2    3   10     10.09      0.00
    3    3   10     -5.02      0.00
    4    3   10     -3.12      0.00
    5    3   10      3.79      0.00
    6    3   10     -0.28      0.00
    7    3   10     -4.02      0.00
    8    3   10      0.39      0.00
    9    3   10      1.82      0.00
   10    3   10      1.15      0.00
   11    3   10      0.71      0.00
   12    3   10     -0.51      0.00
   13    3   10      1.68      0.00
   14    3   10     -1.31      0.00
   15    3   10     -0.28      0.00
   16    3   10     -0.20      0.00
  -10    4   10      0.93      0.00
   -9    4   10     -0.48      0.00
   -8    4   10     -0.53      0.00
   -7    4   10      2.01      0.00
   -6    4   10      2.37      0.00
   -5    4   10     -0.83      0.00
   -4    4   10     -3.43      0.00
   -3    4   10      3.24      0.00
   -2    4   10      2.46      0.00
   -1    4   10    -10.14      0.00
    0    4   10     -5.19      0.00
    1    4   10      8.33      0.00
    2    4   10      5.97      0.00
    3    4   10     -8.04      0.00
    4    4   10      0.26      0.00
    5    4   10      6.01      0.00
    6    4   10     -2.66      0.00
    7    4   10     -6.05      0.00
    8    4   10      0.51      0.00
    9    4   10      2.43      0.00
   10    4   10      0.16      0.00
   11    4   10     -0.23      0.00
   12    4   10      1.94      0.00
   13    4   10      1.81      0.00
   14    4   10     -2.18      0.00
   15    4   10     -0.42      0.00
   16    4   10     -0.25      0.00
  -10    5   10      1.47      0.00
   -9    5   10      0.65      0.00
   -8    5   10     -1.14      0.00
   -7    5   10      0.68      0.00
   -6    5   10      2.12      0.00
   -5    5   10     -1.34      0.00
   -4    5   10     -3.37      0.00
   -3    5   10      7.29      0.00
   -2    5   10      2.54      0.00
   -1    5   10    -10.97      0.00
    0    5   10     -6.43      0.00
    1    5   10      6.28      0.00
    2    5   10     -0.14      0.00
    3    5   10     -9.60      0.00
    4    5   10      4.76      0.00
    5    5   10      5.14      0.00
    6    5   10     -5.78      0.00
    7    5   10     -6.38      0.00
    8    5   10      1.39      0.00
    9    5   10      1.86      0.00
   10    5   10     -0.41      0.00
   11    5   10     -0.12      0.00
   12    5   10      2.66      0.00
   13    5   10      0.33      0.00
   14    5   10     -1.46      0.00
   15    5   10      0.21      0.00
   16    5   10      0.10      0.00
  -10    6   10      1.95      0.00
   -9    6   10     -0.03      0.00
   -8    6   10     -2.43      0.00
   -7    6   10      0.86      0.00
   -6    6   10      2.10      0.00
   -5    6   10     -3.29      0.00
   -4    6   10     -1.67      0.00
   -3    6   10      9.39      0.00
   -2    6   10      1.88      0.00
   -1    6   10     -9.87      0.00
    0    6   10     -4.56      0.00
    1    6   10      3.63      0.00
    2    6   10     -5.10      0.00
    3    6   10     -6.45      0.00
    4    6   10      6.68      0.00
    5    6   10      1.80      0.00
    6    6   10     -5.78      0.00
    7    6   10     -4.24      0.00
    8    6   10      2.07      0.00
    9    6   10      0.62      0.00
   10    6   10     -1.24      0.00
   11    6   10     -0.49      0.00
   12    6   10      1.83      0.00
   13    6   10     -0.59      0.00
   14    6   10      0.12      0.00
   15    6   10      0.63      0.00
   16    6   10      0.04      0.00
   -9    7   10     -0.77      0.00
   -8    7   10     -1.59      0.00
   -7    7   10      1.81      0.00
   -6    7   10      0.34      0.00
   -5    7   10     -4.98      0.00
   -4    7   10      0.65      0.00
   -3    7   10      9.18      0.00
   -2    7   10      0.34      0.00
   -1    7   10     -8.01      0.00
    0    7   10     -1.99      0.00
    1    7   10      0.50      0.00
    2    7   10     -5.52      0.00
    3    7   10     -2.04      0.00
    4    7   10      3.86      0.00
    5    7   10      0.53      0.00
    6    7   10     -2.38      0.00
    7    7   10     -1.51      0.00
    8    7   10      2.21      0.00
    9    7   10     -1.01      0.00
   10    7   10     -1.71      0.00
   11    7   10     -0.03      0.00
   12    7   10     -0.05      0.00
   13    7   10     -0.68      0.00
   14    7   10      1.48      0.00
   15    7   10      0.90      0.00
   16    7   10     -0.41      0.00
   -9    8   10      0.02      0.00
   -8    8   10     -0.32      0.00
   -7    8   10      1.82      0.00
   -6    8   10     -1.93      0.00
   -5    8   10     -4.94      0.00
   -4    8   10      2.64      0.00
   -3    8   10      7.05      0.00
   -2    8   10     -1.77      0.00
   -1    8   10     -5.16      0.00
    0    8   10     -0.76      0.00
    1    8   10     -1.40      0.00
    2    8   10     -2.94      0.00
    3    8   10     -0.91      0.00
    4    8   10      0.23      0.00
    5    8   10      2.21      0.00
    6    8   10      0.32      0.00
    7    8   10      0.65      0.00
    8    8   10      1.56      0.00
    9    8   10     -2.10      0.00
   10    8   10     -0.78      0.00
   11    8   10     -0.42      0.00
   12    8   10     -1.91      0.00
   13    8   10      0.73      0.00
   14    8   10      2.23      0.00
   15    8   10      0.81      0.00
   16    8   10     -0.80      0.00
   -9    9   10      0.19      0.00
   -8    9   10      0.11      0.00
   -7    9   10      1.68      0.00
   -6    9   10     -3.23      0.00
   -5    9   10     -3.15      0.00
   -4    9   10      2.92      0.00
   -3    9   10      3.52      0.00
   -2    9   10     -1.95      0.00
   -1    9   10     -2.04      0.00
    0    9   10     -1.23      0.00
    1    9   10     -1.35      0.00
    2    9   10     -1.30      0.00
    3    9   10     -2.13      0.00
    4    9   10     -0.34      0.00
    5    9   10      3.39      0.00
    6    9   10      1.37      0.00
    7    9   10      2.68      0.00
    8    9   10      0.28      0.00
    9    9   10     -2.58      0.00
   10    9   10     -0.75      0.00
   11    9   10     -1.95      0.00
   12    9   10     -1.54      0.00
   13    9   10      1.60      0.00
   14    9   10      1.78      0.00
   15    9   10      0.35      0.00
   16    9   10     -0.36      0.00
   -8   10   10      0.49      0.00
   -7   10   10      1.62      0.00
   -6   10   10     -2.95      0.00
   -5   10   10     -1.28      0.00
   -4   10   10      1.09      0.00
   -3   10   10      1.44      0.00
   -2   10   10     -0.33      0.00
   -1   10   10     -0.66      0.00
    0   10   10     -1.63      0.00
    1   10   10     -1.15      0.00
    2   10   10     -2.00      0.00
    3   10   10     -2.34      0.00
    4   10   10      1.01      0.00
    5   10   10      2.38      0.00
    6   10   10      2.60      0.00
    7   10   10      4.43      0.00
    8   10   10     -1.22      0.00
    9   10   10     -3.05      0.00
   10   10   10     -1.09      0.00
   11   10   10     -2.33      0.00
   12   10   10     -1.19      0.00
   13   10   10      0.19      0.00
   14   10   10      1.09      0.00
   15   10   10     -0.16      0.00
   16   10   10      0.57      0.00
   -8   11   10      0.45      0.00
   -7   11   10      1.74      0.00
   -6   11   10     -1.97      0.00
   -5   11   10     -0.82      0.00
   -4   11   10     -0.03      0.00
   -3   11   10      1.09      0.00
   -2   11   10      0.08      0.00
   -1   11   10      0.28      0.00
    0   11   10     -1.04      0.00
    1   11   10     -2.29      0.00
    2   11   10     -2.95      0.00
    3   11   10     -1.16      0.00
    4   11   10      1.17      0.00
    5   11   10      0.16      0.00
    6   11   10      3.77      0.00
    7   11   10      4.66      0.00
    8   11   10     -2.30      0.00
    9   11   10     -1.86      0.00
   10   11   10     -0.28      0.00
   11   11   10     -2.47      0.00
   12   11   10     -2.09      0.00
   13   11   10     -0.96      0.00
   14   11   10      0.40      0.00
   15   11   10     -0.65      0.00
   16   11   10      0.81      0.00
   -7   12   10      1.86      0.00
   -6   12   10     -1.56      0.00
   -5   12   10     -0.52      0.00
   -4   12   10      0.25      0.00
   -3   12   10     -0.53      0.00
   -2   12   10      0.24      0.00
   -1   12   10      2.22      0.00
    0   12   10     -0.46      0.00
    1   12   10     -3.11      0.00
    2   12   10     -2.64      0.00
    3   12   10      0.00      0.00
    4   12   10     -0.28      0.00
    5   12   10     -1.91      0.00
    6   12   10      3.40      0.00
    7   12   10      2.79      0.00
    8   12   10     -1.84      0.00
    9   12   10      0.53      0.00
   10   12   10     -0.58      0.00
   11   12   10     -2.33      0.00
   12   12   10     -1.96      0.00
   13   12   10     -1.12      0.00
   14   12   10     -0.69      0.00
   15   12   10     -0.80      0.00
   -6   13   10     -1.10      0.00
   -5   13   10      0.01      0.00
   -4   13   10     -0.34      0.00
   -3   13   10     -2.32      0.00
   -2   13   10      2.02      0.00
   -1   13   10      2.64      0.00
    0   13   10      0.15      0.00
    1   13   10     -2.51      0.00
    2   13   10     -1.47      0.00
    3   13   10      0.98      0.00
    4   13   10     -1.55      0.00
    5   13   10     -2.50      0.00
    6   13   10      1.81      0.00
    7   13   10     -0.02      0.00
    8   13   10     -0.27      0.00
    9   13   10      1.04      0.00
   10   13   10     -1.66      0.00
   11   13   10     -1.10      0.00
   12   13   10     -1.60      0.00
   13   13   10     -1.16      0.00
   14   13   10     -1.21      0.00
   15   13   10     -0.75      0.00
   -5   14   10     -0.05      0.00
   -4   14   10     -1.02      0.00
   -3   14   10     -1.65      0.00
   -2   14   10      2.77      0.00
   -1   14   10      0.55      0.00
    0   14   10      1.51      0.00
    1   14   10     -1.50      0.00
    2   14   10     -0.38      0.00
    3   14   10      1.45      0.00
    4   14   10     -1.31      0.00
    5   14   10     -0.83      0.00
    6   14   10     -0.02      0.00
    7   14   10     -2.23      0.00
    8   14   10      1.21      0.00
    9   14   10      0.64      0.00
   10   14   10     -1.54      0.00
   11   14   10     -0.95      0.00
   12   14   10     -1.40      0.00
   13   14   10     -0.63      0.00
   14   14   10     -1.06      0.00
   -4   15   10     -0.59      0.00
   -3   15   10     -0.02      0.00
   -2   15   10      0.70      0.00
   -1   15   10     -0.84      0.00
    0   15   10      3.18      0.00
    1   15   10     -1.08      0.00
    2   15   10     -0.46      0.00
    3   15   10      1.40      0.00
    4   15   10      0.20      0.00
    5   15   10      1.28      0.00
    6   15   10     -2.11      0.00
    7   15   10     -2.59      0.00
    8   15   10      2.57      0.00
    9   15   10      1.26      0.00
   10   15   10     -1.34      0.00
   11   15   10     -1.06      0.00
   12   15   10      0.03      0.00
   13   15   10     -0.39      0.00
   14   15   10     -0.67      0.00
   -3   16   10      0.43      0.00
   -2   16   10     -1.73      0.00
   -1   16   10      0.43      0.00
    0   16   10      3.43      0.00
    1   16   10     -1.08      0.00
    2   16   10     -0.46      0.00
    3   16   10      1.41      0.00
    4   16   10      0.87      0.00
    5   16   10      1.95      0.00
    6   16   10     -3.40      0.00
    7   16   10     -0.91      0.00
    8   16   10      2.83      0.00
    9   16   10      1.79      0.00
   10   16   10     -0.99      0.00
   11   16   10      0.70      0.00
   12   16   10      0.75      0.00
   13   16   10     -0.62      0.00
   -2   17   10     -2.17      0.00
   -1   17   10      1.64      0.00
    0   17   10      1.75      0.00
    1   17   10      0.13      0.00
    2   17   10      0.64      0.00
    3   17   10      0.27      0.00
    4   17   10      0.72      0.00
    5   17   10      1.96      0.00
    6   17   10     -2.70      0.00
    7   17   10      0.68      0.00
    8   17   10      1.51      0.00
    9   17   10      2.07      0.00
   10   17   10      0.24      0.00
   11   17   10      1.78      0.00
   12   17   10     -0.04      0.00
    0   18   10      0.61      0.00
    1   18   10      1.69      0.00
    2   18   10      0.74      0.00
    3   18   10     -1.17      0.00
    4   18   10      1.45      0.00
    5   18   10      1.27      0.00
    6   18   10     -0.92      0.00
    7   18   10      0.75      0.00
    8   18   10      0.82      0.00
    9   18   10      1.99      0.00
   10   18   10      0.62      0.00
   11   18   10      0.93      0.00
    2   19   10      0.44      0.00
    3   19   10     -0.90      0.00
    4   19   10      1.33      0.00
    5   19   10     -0.28      0.00
    6   19   10      0.56      0.00
    7   19   10      0.22      0.00
    8   19   10      1.12      0.00
    9   19   10      0.25      0.00
   -3  -11   11      2.09      0.00
   -2  -11   11     -3.19      0.00
   -1  -11   11      0.03      0.00
    0  -11   11      1.58      0.00
    1  -11   11      0.50      0.00
    2  -11   11     -1.77      0.00
    3  -11   11     -1.19      0.00
   -5  -10   11     -1.60      0.00
   -4  -10   11      1.92      0.00
   -3  -10   11      1.52      0.00
   -2  -10   11     -3.19      0.00
   -1  -10   11     -0.09      0.00
    0  -10   11      1.67      0.00
    1  -10   11     -0.06      0.00
    2  -10   11     -2.24      0.00
    3  -10   11      0.62      0.00
    4  -10   11      1.58      0.00
    5  -10   11     -0.73      0.00
    6  -10   11      1.53      0.00
   -6   -9   11     -1.05      0.00
   -5   -9   11     -1.76      0.00
   -4   -9   11      1.78      0.00
   -3   -9   11      0.70      0.00
   -2   -9   11     -2.02      0.00
   -1   -9   11      0.21      0.00
    0   -9   11      0.83      0.00
    1   -9   11     -0.89      0.00
    2   -9   11     -1.10      0.00
    3   -9   11      2.33      0.00
    4   -9   11      0.60      0.00
    5   -9   11     -0.36      0.00
    6   -9   11      1.04      0.00
    7   -9   11     -0.72      0.00
   -7   -8   11      0.95      0.00
   -6   -8   11     -1.19      0.00
   -5   -8   11     -0.70      0.00
   -4   -8   11      0.85      0.00
   -3   -8   11      0.48      0.00
   -2   -8   11      0.28      0.00
   -1   -8   11      0.26      0.00
    0   -8   11     -1.39      0.00
    1   -8   11     -1.04      0.00
    2   -8   11     -0.12      0.00
    3   -8   11      2.91      0.00
    4   -8   11      0.04      0.00
    5   -8   11     -0.81      0.00
    6   -8   11      0.79      0.00
    7   -8   11      0.59      0.00
    8   -8   11     -2.13      0.00
    9   -8   11     -3.15      0.00
   -8   -7   11     -0.10      0.00
   -7   -7   11     -0.15      0.00
   -6   -7   11      0.62      0.00
   -5   -7   11      0.46      0.00
   -4   -7   11     -0.16      0.00
   -3   -7   11      1.69      0.00
   -2   -7   11      2.06      0.00
   -1   -7   11     -0.53      0.00
    0   -7   11     -1.68      0.00
    1   -7   11     -1.53      0.00
    2   -7   11     -0.52      0.00
    3   -7   11      3.47      0.00
    4   -7   11     -1.72      0.00
    5   -7   11     -1.58      0.00
    6   -7   11      2.54      0.00
    7   -7   11      1.29      0.00
    8   -7   11     -3.31      0.00
    9   -7   11     -2.65      0.00
   10   -7   11      0.09      0.00
   -8   -6   11     -1.00      0.00
   -7   -6   11      0.00      0.00
   -6   -6   11      2.02      0.00
   -5   -6   11     -0.15      0.00
   -4   -6   11     -0.14      0.00
   -3   -6   11      2.40      0.00
   -2   -6   11      1.64      0.00
   -1   -6   11      0.73      0.00
    0   -6   11      0.39      0.00
    1   -6   11     -3.93      0.00
    2   -6   11      0.12      0.00
    3   -6   11      2.75      0.00
    4   -6   11     -4.02      0.00
    5   -6   11      0.11      0.00
    6   -6   11      2.90      0.00
    7   -6   11      0.46      0.00
    8   -6   11     -2.25      0.00
    9   -6   11     -0.93      0.00
   10   -6   11     -1.24      0.00
   11   -6   11     -0.46      0.00
   -9   -5   11     -0.81      0.00
   -8   -5   11     -0.27      0.00
   -7   -5   11      0.42      0.00
   -6   -5   11      0.41      0.00
   -5   -5   11     -0.48      0.00
   -4   -5   11     -0.08      0.00
   -3   -5   11      0.46      0.00
   -2   -5   11      0.87      0.00
   -1   -5   11      3.89      0.00
    0   -5   11      0.78      0.00
    1   -5   11     -5.48      0.00
    2   -5   11      1.69      0.00
    3   -5   11     -0.06      0.00
    4   -5   11     -3.12      0.00
    5   -5   11      2.04      0.00
    6   -5   11      0.74      0.00
    7   -5   11      1.42      0.00
    8   -5   11     -0.17      0.00
    9   -5   11     -1.07      0.00
   10   -5   11     -3.23      0.00
   11   -5   11     -0.34      0.00
   12   -5   11      0.62      0.00
   -9   -4   11     -0.19      0.00
   -8   -4   11      0.98      0.00
   -7   -4   11     -1.28      0.00
   -6   -4   11     -0.33      0.00
   -5   -4   11      0.53      0.00
   -4   -4   11     -1.44      0.00
   -3   -4   11     -2.43      0.00
   -2   -4   11      0.89      0.00
   -1   -4   11      5.11      0.00
    0   -4   11     -0.57      0.00
    1   -4   11     -4.57      0.00
    2   -4   11      1.05      0.00
    3   -4   11     -2.56      0.00
    4   -4   11     -0.11      0.00
    5   -4   11      2.14      0.00
    6   -4   11      0.29      0.00
    7   -4   11      3.15      0.00
    8   -4   11     -0.56      0.00
    9   -4   11     -2.38      0.00
   10   -4   11     -2.85      0.00
   11   -4   11      0.68      0.00
   12   -4   11      0.85      0.00
  -10   -3   11      0.41      0.00
   -9   -3   11      0.84      0.00
   -8   -3   11     -0.08      0.00
   -7   -3   11     -1.66      0.00
   -6   -3   11      1.51      0.00
   -5   -3   11      0.67      0.00
   -4   -3   11     -2.68      0.00
   -3   -3   11     -4.04      0.00
   -2   -3   11      0.92      0.00
   -1   -3   11      4.18      0.00
    0   -3   11     -1.77      0.00
    1   -3   11     -3.24      0.00
    2   -3   11     -1.26      0.00
    3   -3   11     -4.08      0.00
    4   -3   11      1.95      0.00
    5   -3   11      2.21      0.00
    6   -3   11      1.38      0.00
    7   -3   11      1.88      0.00
    8   -3   11     -1.86      0.00
    9   -3   11     -1.75      0.00
   10   -3   11     -0.28      0.00
   11   -3   11      0.60      0.00
   12   -3   11      0.31      0.00
   13   -3   11      0.18      0.00
  -10   -2   11     -0.09      0.00
   -9   -2   11      0.38      0.00
   -8   -2   11     -0.79      0.00
   -7   -2   11      0.36      0.00
   -6   -2   11      1.96      0.00
   -5   -2   11      0.30      0.00
   -4   -2   11     -2.59      0.00
   -3   -2   11     -3.98      0.00
   -2   -2   11      0.83      0.00
   -1   -2   11      2.18      0.00
    0   -2   11     -2.54      0.00
    1   -2   11     -0.98      0.00
    2   -2   11     -3.30      0.00
    3   -2   11     -5.30      0.00
    4   -2   11      2.89      0.00
    5   -2   11      1.95      0.00
    6   -2   11      1.20      0.00
    7   -2   11     -0.48      0.00
    8   -2   11     -1.20      0.00
    9   -2   11     -0.54      0.00
   10   -2   11      1.06      0.00
   11   -2   11     -0.43      0.00
   12   -2   11      0.40      0.00
   13   -2   11      0.52      0.00
   14   -2   11     -1.84      0.00
  -10   -1   11     -1.27      0.00
   -9   -1   11      0.20      0.00
   -8   -1   11      0.04      0.00
   -7   -1   11      0.91      0.00
   -6   -1   11      1.15      0.00
   -5   -1   11      0.76      0.00
   -4   -1   11     -2.24      0.00
   -3   -1   11     -2.38      0.00
   -2   -1   11     -0.24      0.00
   -1   -1   11     -0.41      0.00
    0   -1   11     -1.21      0.00
    1   -1   11      2.23      0.00
    2   -1   11     -5.03      0.00
    3   -1   11     -4.53      0.00
    4   -1   11      2.56      0.00
    5   -1   11      0.56      0.00
    6   -1   11      0.67      0.00
    7   -1   11     -0.85      0.00
    8   -1   11     -0.28      0.00
    9   -1   11     -0.95      0.00
   10   -1   11      1.22      0.00
   11   -1   11     -0.97      0.00
   12   -1   11      0.24      0.00
   13   -1   11     -0.31      0.00
   14   -1   11     -2.05      0.00
  -10    0   11     -1.75      0.00
   -9    0   11      0.60      0.00
   -8    0   11     -0.19      0.00
   -7    0   11      0.71      0.00
   -6    0   11      1.29      0.00
   -5    0   11      0.68      0.00
   -4    0   11     -1.81      0.00
   -3    0   11     -0.20      0.00
   -2    0   11     -2.25      0.00
   -1    0   11     -1.36      0.00
    0    0   11      1.72      0.00
    1    0   11      3.35      0.00
    2    0   11     -4.27      0.00
    3    0   11     -1.04      0.00
    4    0   11      0.25      0.00
    5    0   11     -0.85      0.00
    6    0   11      0.49      0.00
    7    0   11      0.10      0.00
    8    0   11     -0.46      0.00
    9    0   11     -0.54      0.00
   10    0   11      1.28      0.00
   11    0   11     -1.91      0.00
   12    0   11     -0.24      0.00
   13    0   11     -0.59      0.00
   14    0   11     -0.37      0.00
   15    0   11      1.73      0.00
  -10    1   11     -1.20      0.00
   -9    1   11     -0.32      0.00
   -8    1   11     -0.60      0.00
   -7    1   11      1.48      0.00
   -6    1   11      0.92      0.00
   -5    1   11      0.16      0.00
   -4    1   11     -0.57      0.00
   -3    1   11      1.28      0.00
   -2    1   11     -3.17      0.00
   -1    1   11     -0.58      0.00
    0    1   11      2.88      0.00
    1    1   11      3.73      0.00
    2    1   11      0.96      0.00
    3    1   11      1.92      0.00
    4    1   11     -2.96      0.00
    5    1   11     -1.90      0.00
    6    1   11      0.14      0.00
    7    1   11      0.78      0.00
    8    1   11     -0.17      0.00
    9    1   11      1.44      0.00
   10    1   11      0.04      0.00
   11    1   11     -1.78      0.00
   12    1   11      1.01      0.00
   13    1   11     -0.50      0.00
   14    1   11      0.01      0.00
   15    1   11     -0.34      0.00
  -10    2   11     -0.43      0.00
   -9    2   11     -1.57      0.00
   -8    2   11     -0.26      0.00
   -7    2   11      1.13      0.00
   -6    2   11      0.64      0.00
   -5    2   11      0.66      0.00
   -4    2   11      0.58      0.00
   -3    2   11      1.26      0.00
   -2    2   11     -2.66      0.00
   -1    2   11     -0.46      0.00
    0    2   11      2.43      0.00
    1    2   11      6.38      0.00
    2    2   11      6.91      0.00
    3    2   11      2.67      0.00
    4    2   11     -4.73      0.00
    5    2   11     -2.46      0.00
    6    2   11     -0.07      0.00
    7    2   11      0.68      0.00
    8    2   11      0.56      0.00
    9    2   11      1.92      0.00
   10    2   11     -0.74      0.00
   11    2   11      0.77      0.00
   12    2   11      1.44      0.00
   13    2   11     -1.48      0.00
   14    2   11     -0.21      0.00
   15    2   11     -0.84      0.00
  -10    3   11      0.49      0.00
   -9    3   11     -2.04      0.00
   -8    3   11     -0.72      0.00
   -7    3   11      0.74      0.00
   -6    3   11      2.10      0.00
   -5    3   11      0.85      0.00
   -4    3   11      0.52      0.00
   -3    3   11     -0.29      0.00
   -2    3   11     -1.28      0.00
   -1    3   11     -1.56      0.00
    0    3   11      1.32      0.00
    1    3   11      8.62      0.00
    2    3   11     10.18      0.00
    3    3   11      3.27      0.00
    4    3   11     -4.84      0.00
    5    3   11     -1.84      0.00
    6    3   11      0.60      0.00
    7    3   11     -0.14      0.00
    8    3   11     -0.18      0.00
    9    3   11      1.30      0.00
   10    3   11      0.46      0.00
   11    3   11      1.56      0.00
   12    3   11     -0.27      0.00
   13    3   11     -0.69      0.00
   14    3   11      0.58      0.00
   15    3   11     -0.57      0.00
  -10    4   11      0.94      0.00
   -9    4   11     -2.03      0.00
   -8    4   11     -0.74      0.00
   -7    4   11      1.79      0.00
   -6    4   11      2.80      0.00
   -5    4   11      0.25      0.00
   -4    4   11     -0.41      0.00
   -3    4   11     -1.44      0.00
   -2    4   11      1.09      0.00
   -1    4   11     -3.63      0.00
    0    4   11     -1.65      0.00
    1    4   11      8.04      0.00
    2    4   11     11.54      0.00
    3    4   11      2.76      0.00
    4    4   11     -4.88      0.00
    5    4   11      0.95      0.00
    6    4   11      1.53      0.00
    7    4   11     -2.34      0.00
    8    4   11     -1.76      0.00
    9    4   11      1.83      0.00
   10    4   11      0.97      0.00
   11    4   11      0.17      0.00
   12    4   11     -0.34      0.00
   13    4   11      1.71      0.00
   14    4   11     -0.03      0.00
   15    4   11     -1.09      0.00
   16    4   11     -0.20      0.00
  -10    5   11      0.71      0.00
   -9    5   11     -0.83      0.00
   -8    5   11     -0.06      0.00
   -7    5   11      1.43      0.00
   -6    5   11      2.32      0.00
   -5    5   11      0.24      0.00
   -4    5   11     -1.56      0.00
   -3    5   11     -0.22      0.00
   -2    5   11      3.16      0.00
   -1    5   11     -5.86      0.00
    0    5   11     -5.18      0.00
    1    5   11      6.56      0.00
    2    5   11     10.16      0.00
    3    5   11     -1.19      0.00
    4    5   11     -3.49      0.00
    5    5   11      4.76      0.00
    6    5   11     -0.02      0.00
    7    5   11     -5.57      0.00
    8    5   11     -2.17      0.00
    9    5   11      2.68      0.00
   10    5   11      0.75      0.00
   11    5   11     -0.02      0.00
   12    5   11      0.73      0.00
   13    5   11      2.51      0.00
   14    5   11     -1.41      0.00
   15    5   11     -1.04      0.00
   16    5   11     -0.43      0.00
   -9    6   11      0.35      0.00
   -8    6   11     -1.07      0.00
   -7    6   11     -0.10      0.00
   -6    6   11      2.86      0.00
   -5    6   11      0.00      0.00
   -4    6   11     -2.17      0.00
   -3    6   11      2.23      0.00
   -2    6   11      4.01      0.00
   -1    6   11     -6.56      0.00
    0    6   11     -6.77      0.00
    1    6   11      5.24      0.00
    2    6   11      5.07      0.00
    3    6   11     -5.11      0.00
    4    6   11      0.36      0.00
    5    6   11      5.51      0.00
    6    6   11     -3.57      0.00
    7    6   11     -7.24      0.00
    8    6   11     -1.57      0.00
    9    6   11      3.01      0.00
   10    6   11      0.72      0.00
   11    6   11     -0.56      0.00
   12    6   11      1.27      0.00
   13    6   11      2.30      0.00
   14    6   11     -1.58      0.00
   15    6   11     -0.70      0.00
   16    6   11     -0.36      0.00
   -9    7   11     -0.13      0.00
   -8    7   11     -2.15      0.00
   -7    7   11     -0.29      0.00
   -6    7   11      3.21      0.00
   -5    7   11     -1.38      0.00
   -4    7   11     -2.01      0.00
   -3    7   11      4.27      0.00
   -2    7   11      4.46      0.00
   -1    7   11     -6.63      0.00
    0    7   11     -6.15      0.00
    1    7   11      3.59      0.00
    2    7   11     -0.44      0.00
    3    7   11     -5.05      0.00
    4    7   11      3.11      0.00
    5    7   11      3.01      0.00
    6    7   11     -4.64      0.00
    7    7   11     -6.61      0.00
    8    7   11     -0.74      0.00
    9    7   11      2.70      0.00
   10    7   11     -0.71      0.00
   11    7   11     -1.27      0.00
   12    7   11      2.13      0.00
   13    7   11      1.15      0.00
   14    7   11     -1.16      0.00
   15    7   11     -0.47      0.00
   16    7   11      0.15      0.00
   -9    8   11     -0.45      0.00
   -8    8   11     -1.35      0.00
   -7    8   11     -0.09      0.00
   -6    8   11      2.22      0.00
   -5    8   11     -3.23      0.00
   -4    8   11     -1.33      0.00
   -3    8   11      6.04      0.00
   -2    8   11      3.72      0.00
   -1    8   11     -7.11      0.00
    0    8   11     -3.96      0.00
    1    8   11      1.49      0.00
    2    8   11     -2.95      0.00
    3    8   11     -2.74      0.00
    4    8   11      2.48      0.00
    5    8   11      1.40      0.00
    6    8   11     -2.71      0.00
    7    8   11     -5.21      0.00
    8    8   11      0.36      0.00
    9    8   11      1.56      0.00
   10    8   11     -1.85      0.00
   11    8   11     -0.26      0.00
   12    8   11      1.30      0.00
   13    8   11     -0.33      0.00
   14    8   11     -0.10      0.00
   15    8   11      0.02      0.00
   16    8   11      0.37      0.00
   -8    9   11     -0.39      0.00
   -7    9   11      0.03      0.00
   -6    9   11      0.70      0.00
   -5    9   11     -4.83      0.00
   -4    9   11      0.23      0.00
   -3    9   11      6.41      0.00
   -2    9   11      1.55      0.00
   -1    9   11     -6.02      0.00
    0    9   11     -1.92      0.00
    1    9   11     -0.21      0.00
    2    9   11     -2.45      0.00
    3    9   11     -1.53      0.00
    4    9   11      0.58      0.00
    5    9   11      1.94      0.00
    6    9   11     -1.14      0.00
    7    9   11     -3.48      0.00
    8    9   11      1.57      0.00
    9    9   11      0.62      0.00
   10    9   11     -1.45      0.00
   11    9   11     -0.13      0.00
   12    9   11     -0.58      0.00
   13    9   11      0.42      0.00
   14    9   11      0.66      0.00
   15    9   11      0.38      0.00
   16    9   11     -0.04      0.00
   -8   10   11      0.09      0.00
   -7   10   11      0.47      0.00
   -6   10   11     -0.80      0.00
   -5   10   11     -4.86      0.00
   -4   10   11      1.54      0.00
   -3   10   11      4.51      0.00
   -2   10   11      0.55      0.00
   -1   10   11     -3.63      0.00
    0   10   11     -1.41      0.00
    1   10   11     -0.33      0.00
    2   10   11     -1.47      0.00
    3   10   11     -1.87      0.00
    4   10   11      0.03      0.00
    5   10   11      2.81      0.00
    6   10   11     -0.78      0.00
    7   10   11     -0.73      0.00
    8   10   11      2.58      0.00
    9   10   11     -0.53      0.00
   10   10   11     -1.80      0.00
   11   10   11     -0.94      0.00
   12   10   11     -0.57      0.00
   13   10   11      1.13      0.00
   14   10   11      0.19      0.00
   15   10   11      0.73      0.00
   16   10   11     -0.27      0.00
   -7   11   11      0.54      0.00
   -6   11   11     -1.09      0.00
   -5   11   11     -3.54      0.00
   -4   11   11      1.21      0.00
   -3   11   11      2.92      0.00
   -2   11   11      0.64      0.00
   -1   11   11     -2.16      0.00
    0   11   11     -1.05      0.00
    1   11   11     -0.02      0.00
    2   11   11     -2.01      0.00
    3   11   11     -2.19      0.00
    4   11   11      0.88      0.00
    5   11   11      2.55      0.00
    6   11   11     -0.24      0.00
    7   11   11      2.88      0.00
    8   11   11      2.53      0.00
    9   11   11     -2.48      0.00
   10   11   11     -1.79      0.00
   11   11   11     -0.81      0.00
   12   11   11     -0.68      0.00
   13   11   11     -0.13      0.00
   14   11   11      0.06      0.00
   15   11   11      0.75      0.00
   16   11   11     -0.18      0.00
   -6   12   11     -0.27      0.00
   -5   12   11     -2.55      0.00
   -4   12   11      0.74      0.00
   -3   12   11      2.43      0.00
   -2   12   11     -0.56      0.00
   -1   12   11     -0.38      0.00
    0   12   11     -0.21      0.00
    1   12   11     -0.93      0.00
    2   12   11     -3.29      0.00
    3   12   11     -1.91      0.00
    4   12   11      1.22      0.00
    5   12   11      0.90      0.00
    6   12   11      0.72      0.00
    7   12   11      5.40      0.00
    8   12   11      1.33      0.00
    9   12   11     -2.73      0.00
   10   12   11     -0.65      0.00
   11   12   11     -1.10      0.00
   12   12   11     -1.25      0.00
   13   12   11     -1.04      0.00
   14   12   11      0.04      0.00
   15   12   11     -0.06      0.00
   -6   13   11      0.11      0.00
   -5   13   11     -1.81      0.00
   -4   13   11      0.74      0.00
   -3   13   11      0.99      0.00
   -2   13   11     -1.44      0.00
   -1   13   11      2.63      0.00
    0   13   11     -0.16      0.00
    1   13   11     -1.91      0.00
    2   13   11     -3.99      0.00
    3   13   11     -1.29      0.00
    4   13   11      0.42      0.00
    5   13   11     -1.40      0.00
    6   13   11      1.07      0.00
    7   13   11      5.22      0.00
    8   13   11      0.36      0.00
    9   13   11     -1.36      0.00
   10   13   11     -0.89      0.00
   11   13   11     -1.04      0.00
   12   13   11     -0.63      0.00
   13   13   11     -1.54      0.00
   14   13   11     -0.68      0.00
   15   13   11     -0.75      0.00
   -5   14   11     -1.11      0.00
   -4   14   11      0.10      0.00
   -3   14   11     -0.75      0.00
   -2   14   11      0.07      0.00
   -1   14   11      3.82      0.00
    0   14   11     -0.75      0.00
    1   14   11     -1.71      0.00
    2   14   11     -3.62      0.00
    3   14   11     -0.21      0.00
    4   14   11     -0.41      0.00
    5   14   11     -2.85      0.00
    6   14   11      0.98      0.00
    7   14   11      2.84      0.00
    8   14   11     -0.25      0.00
    9   14   11     -0.76      0.00
   10   14   11     -1.45      0.00
   11   14   11     -0.16      0.00
   12   14   11     -0.80      0.00
   13   14   11     -1.96      0.00
   14   14   11     -0.98      0.00
   -4   15   11     -0.43      0.00
   -3   15   11     -1.14      0.00
   -2   15   11      1.90      0.00
   -1   15   11      1.66      0.00
    0   15   11     -0.42      0.00
    1   15   11     -0.98      0.00
    2   15   11     -2.85      0.00
    3   15   11      0.78      0.00
    4   15   11     -0.13      0.00
    5   15   11     -2.36      0.00
    6   15   11      1.03      0.00
    7   15   11     -0.54      0.00
    8   15   11     -0.37      0.00
    9   15   11      0.04      0.00
   10   15   11     -1.03      0.00
   11   15   11     -1.01      0.00
   12   15   11     -1.21      0.00
   13   15   11     -1.29      0.00
   14   15   11     -0.91      0.00
   -3   16   11     -0.75      0.00
   -2   16   11      1.97      0.00
   -1   16   11     -0.82      0.00
    0   16   11      1.13      0.00
    1   16   11     -1.12      0.00
    2   16   11     -2.45      0.00
    3   16   11      1.68      0.00
    4   16   11      0.54      0.00
    5   16   11     -0.95      0.00
    6   16   11      0.61      0.00
    7   16   11     -2.81      0.00
    8   16   11      0.87      0.00
    9   16   11      1.12      0.00
   10   16   11     -1.18      0.00
   11   16   11     -1.74      0.00
   12   16   11      0.30      0.00
   13   16   11     -0.92      0.00
   -1   17   11     -0.92      0.00
    0   17   11      1.77      0.00
    1   17   11     -1.69      0.00
    2   17   11     -1.12      0.00
    3   17   11      2.13      0.00
    4   17   11     -0.26      0.00
    5   17   11      0.41      0.00
    6   17   11     -0.16      0.00
    7   17   11     -2.36      0.00
    8   17   11      1.57      0.00
    9   17   11      1.10      0.00
   10   17   11     -1.03      0.00
   11   17   11     -0.07      0.00
   12   17   11      1.22      0.00
    1   18   11     -0.46      0.00
    2   18   11      0.71      0.00
    3   18   11      0.92      0.00
    4   18   11     -1.21      0.00
    5   18   11      1.79      0.00
    6   18   11     -0.68      0.00
    7   18   11     -0.66      0.00
    8   18   11      0.55      0.00
    9   18   11      1.39      0.00
   10   18   11     -0.03      0.00
   11   18   11      1.19      0.00
    3   19   11     -0.17      0.00
    4   19   11     -0.65      0.00
    5   19   11      1.80      0.00
    6   19   11     -0.73      0.00
    7   19   11      0.53      0.00
    8   19   11      0.04      0.00
   -2  -10   12     -1.63      0.00
   -1  -10   12     -2.19      0.00
    0  -10   12      1.31      0.00
    1  -10   12      0.57      0.00
    2  -10   12     -0.52      0.00
    3  -10   12     -0.91      0.00
    4  -10   12      0.92      0.00
   -4   -9   12     -0.09      0.00
   -3   -9   12      2.53      0.00
   -2   -9   12     -2.39      0.00
   -1   -9   12     -2.04      0.00
    0   -9   12      2.07      0.00
    1   -9   12      0.42      0.00
    2   -9   12     -1.20      0.00
    3   -9   12     -0.27      0.00
    4   -9   12      1.86      0.00
    5   -9   12     -0.27      0.00
    6   -9   12      0.25      0.00
   -6   -8   12     -0.07      0.00
   -5   -8   12     -1.97      0.00
   -4   -8   12      0.45      0.00
   -3   -8   12      1.90      0.00
   -2   -8   12     -2.39      0.00
   -1   -8   12     -0.19      0.00
    0   -8   12      1.74      0.00
    1   -8   12     -0.77      0.00
    2   -8   12     -0.37      0.00
    3   -8   12      0.60      0.00
    4   -8   12      2.19      0.00
    5   -8   12      0.04      0.00
    6   -8   12     -0.49      0.00
    7   -8   12     -0.79      0.00
    8   -8   12     -0.61      0.00
   -7   -7   12      0.67      0.00
   -6   -7   12     -0.85      0.00
   -5   -7   12     -0.60      0.00
   -4   -7   12      0.36      0.00
   -3   -7   12      0.11      0.00
   -2   -7   12     -0.13      0.00
   -1   -7   12      1.20      0.00
    0   -7   12     -0.98      0.00
    1   -7   12     -0.76      0.00
    2   -7   12     -0.20      0.00
    3   -7   12      1.09      0.00
    4   -7   12      3.06      0.00
    5   -7   12     -0.98      0.00
    6   -7   12     -0.94      0.00
    7   -7   12      0.34      0.00
    8   -7   12     -0.64      0.00
    9   -7   12     -2.65      0.00
   -7   -6   12     -0.07      0.00
   -6   -6   12      0.44      0.00
   -5   -6   12      1.01      0.00
   -4   -6   12     -1.05      0.00
   -3   -6   12      0.05      0.00
   -2   -6   12      2.55      0.00
   -1   -6   12      0.11      0.00
    0   -6   12     -1.62      0.00
    1   -6   12     -0.54      0.00
    2   -6   12     -2.43      0.00
    3   -6   12      3.04      0.00
    4   -6   12      2.16      0.00
    5   -6   12     -3.14      0.00
    6   -6   12      1.11      0.00
    7   -6   12      1.22      0.00
    8   -6   12     -1.47      0.00
    9   -6   12     -2.79      0.00
   10   -6   12      0.51      0.00
   -8   -5   12     -1.56      0.00
   -7   -5   12      0.89      0.00
   -6   -5   12      1.19      0.00
   -5   -5   12      0.16      0.00
   -4   -5   12     -1.37      0.00
   -3   -5   12      1.14      0.00
   -2   -5   12      2.38      0.00
   -1   -5   12      0.23      0.00
    0   -5   12      0.89      0.00
    1   -5   12     -2.88      0.00
    2   -5   12     -3.22      0.00
    3   -5   12      4.83      0.00
    4   -5   12     -1.19      0.00
    5   -5   12     -2.77      0.00
    6   -5   12      2.86      0.00
    7   -5   12      0.12      0.00
    8   -5   12     -0.96      0.00
    9   -5   12     -0.90      0.00
   10   -5   12     -0.30      0.00
   11   -5   12     -2.04      0.00
   -8   -4   12     -0.27      0.00
   -7   -4   12      1.25      0.00
   -6   -4   12     -0.79      0.00
   -5   -4   12     -0.18      0.00
   -4   -4   12     -0.69      0.00
   -3   -4   12      0.19      0.00
   -2   -4   12      0.82      0.00
   -1   -4   12      2.76      0.00
    0   -4   12      2.12      0.00
    1   -4   12     -4.92      0.00
    2   -4   12     -1.35      0.00
    3   -4   12      3.50      0.00
    4   -4   12     -3.07      0.00
    5   -4   12     -0.37      0.00
    6   -4   12      2.02      0.00
    7   -4   12      0.04      0.00
    8   -4   12      0.72      0.00
    9   -4   12     -0.29      0.00
   10   -4   12     -2.74      0.00
   11   -4   12     -1.74      0.00
   12   -4   12      0.95      0.00
   -9   -3   12      0.38      0.00
   -8   -3   12      0.75      0.00
   -7   -3   12     -0.91      0.00
   -6   -3   12     -1.08      0.00
   -5   -3   12      1.04      0.00
   -4   -3   12     -1.17      0.00
   -3   -3   12     -1.94      0.00
   -2   -3   12     -0.08      0.00
   -1   -3   12      4.30      0.00
    0   -3   12      1.68      0.00
    1   -3   12     -4.64      0.00
    2   -3   12     -0.52      0.00
    3   -3   12      0.48      0.00
    4   -3   12     -2.55      0.00
    5   -3   12      1.68      0.00
    6   -3   12      1.35      0.00
    7   -3   12      1.35      0.00
    8   -3   12      0.29      0.00
    9   -3   12     -1.02      0.00
   10   -3   12     -2.92      0.00
   11   -3   12      0.16      0.00
   12   -3   12      0.50      0.00
   -9   -2   12      0.89      0.00
   -8   -2   12     -0.48      0.00
   -7   -2   12     -1.58      0.00
   -6   -2   12      1.05      0.00
   -5   -2   12      1.09      0.00
   -4   -2   12     -1.63      0.00
   -3   -2   12     -3.15      0.00
   -2   -2   12     -0.27      0.00
   -1   -2   12      4.09      0.00
    0   -2   12      0.97      0.00
    1   -2   12     -4.02      0.00
    2   -2   12     -0.97      0.00
    3   -2   12     -2.55      0.00
    4   -2   12     -1.84      0.00
    5   -2   12      3.33      0.00
    6   -2   12      1.69      0.00
    7   -2   12      1.02      0.00
    8   -2   12     -1.22      0.00
    9   -2   12     -0.19      0.00
   10   -2   12     -1.05      0.00
   11   -2   12      0.82      0.00
   12   -2   12     -0.38      0.00
   13   -2   12      0.84      0.00
   -9   -1   12      0.22      0.00
   -8   -1   12     -0.96      0.00
   -7   -1   12     -0.26      0.00
   -6   -1   12      1.58      0.00
   -5   -1   12      0.58      0.00
   -4   -1   12     -1.03      0.00
   -3   -1   12     -3.35      0.00
   -2   -1   12      0.19      0.00
   -1   -1   12      2.46      0.00
    0   -1   12      0.00      0.00
    1   -1   12     -2.34      0.00
    2   -1   12     -1.44      0.00
    3   -1   12     -5.74      0.00
    4   -1   12     -1.21      0.00
    5   -1   12      3.97      0.00
    6   -1   12      1.63      0.00
    7   -1   12     -0.24      0.00
    8   -1   12     -0.90      0.00
    9   -1   12      0.42      0.00
   10   -1   12     -0.34      0.00
   11   -1   12      0.69      0.00
   12   -1   12     -0.28      0.00
   13   -1   12      1.09      0.00
   14   -1   12     -0.82      0.00
   -9    0   12      0.11      0.00
   -8    0   12     -0.17      0.00
   -7    0   12     -0.12      0.00
   -6    0   12      1.21      0.00
   -5    0   12      0.73      0.00
   -4    0   12     -0.89      0.00
   -3    0   12     -2.64      0.00
   -2    0   12      0.36      0.00
   -1    0   12     -0.22      0.00
    0    0   12      0.24      0.00
    1    0   12      0.48      0.00
    2    0   12     -2.80      0.00
    3    0   12     -6.97      0.00
    4    0   12     -0.41      0.00
    5    0   12      2.80      0.00
    6    0   12      1.57      0.00
    7    0   12     -0.29      0.00
    8    0   12     -0.14      0.00
    9    0   12     -0.97      0.00
   10    0   12      0.31      0.00
   11    0   12      0.35      0.00
   12    0   12     -0.83      0.00
   13    0   12      0.39      0.00
   14    0   12     -1.17      0.00
   -9    1   12      0.61      0.00
   -8    1   12     -0.26      0.00
   -7    1   12     -0.05      0.00
   -6    1   12      1.54      0.00
   -5    1   12      0.27      0.00
   -4    1   12     -1.28      0.00
   -3    1   12     -0.99      0.00
   -2    1   12     -0.18      0.00
   -1    1   12     -2.05      0.00
    0    1   12      1.34      0.00
    1    1   12      1.94      0.00
    2    1   12     -3.15      0.00
    3    1   12     -4.79      0.00
    4    1   12     -0.73      0.00
    5    1   12      0.67      0.00
    6    1   12      1.73      0.00
    7    1   12      0.29      0.00
    8    1   12     -0.31      0.00
    9    1   12     -0.87      0.00
   10    1   12      1.27      0.00
   11    1   12     -1.50      0.00
   12    1   12     -1.18      0.00
   13    1   12      0.26      0.00
   14    1   12     -0.79      0.00
   15    1   12      0.55      0.00
   -9    2   12      0.31      0.00
   -8    2   12     -0.69      0.00
   -7    2   12      0.71      0.00
   -6    2   12      1.15      0.00
   -5    2   12     -0.21      0.00
   -4    2   12     -1.00      0.00
   -3    2   12      1.21      0.00
   -2    2   12     -0.89      0.00
   -1    2   12     -2.62      0.00
    0    2   12      1.52      0.00
    1    2   12      3.24      0.00
    2    2   12     -0.30      0.00
    3    2   12     -1.99      0.00
    4    2   12     -2.12      0.00
    5    2   12     -1.19      0.00
    6    2   12      1.27      0.00
    7    2   12      0.38      0.00
    8    2   12      0.22      0.00
    9    2   12      1.27      0.00
   10    2   12      0.47      0.00
   11    2   12     -2.09      0.00
   12    2   12      0.36      0.00
   13    2   12     -0.38      0.00
   14    2   12     -1.20      0.00
   15    2   12     -0.13      0.00
   -9    3   12     -0.46      0.00
   -8    3   12     -1.13      0.00
   -7    3   12      0.64      0.00
   -6    3   12      1.00      0.00
   -5    3   12      0.26      0.00
   -4    3   12     -0.32      0.00
   -3    3   12      2.59      0.00
   -2    3   12     -1.85      0.00
   -1    3   12     -2.46      0.00
    0    3   12      1.46      0.00
    1    3   12      5.81      0.00
    2    3   12      3.60      0.00
    3    3   12      0.30      0.00
    4    3   12     -2.56      0.00
    5    3   12     -2.48      0.00
    6    3   12      0.28      0.00
    7    3   12      0.52      0.00
    8    3   12      1.28      0.00
    9    3   12      1.80      0.00
   10    3   12     -0.19      0.00
   11    3   12     -0.27      0.00
   12    3   12      0.61      0.00
   13    3   12     -1.59      0.00
   14    3   12     -0.45      0.00
   15    3   12     -0.05      0.00
   -9    4   12     -1.22      0.00
   -8    4   12     -1.85      0.00
   -7    4   12      1.07      0.00
   -6    4   12      1.79      0.00
   -5    4   12      0.39      0.00
   -4    4   12      0.09      0.00
   -3    4   12      1.97      0.00
   -2    4   12     -2.00      0.00
   -1    4   12     -1.84      0.00
    0    4   12      0.76      0.00
    1    4   12      7.11      0.00
    2    4   12      7.12      0.00
    3    4   12      3.51      0.00
    4    4   12     -2.31      0.00
    5    4   12     -2.89      0.00
    6    4   12      0.55      0.00
    7    4   12      0.94      0.00
    8    4   12      0.68      0.00
    9    4   12      0.94      0.00
   10    4   12      0.58      0.00
   11    4   12      0.01      0.00
   12    4   12     -0.49      0.00
   13    4   12     -0.53      0.00
   14    4   12      1.15      0.00
   15    4   12     -0.49      0.00
   -9    5   12     -1.48      0.00
   -8    5   12     -1.23      0.00
   -7    5   12      2.05      0.00
   -6    5   12      1.47      0.00
   -5    5   12      0.48      0.00
   -4    5   12     -0.09      0.00
   -3    5   12      0.69      0.00
   -2    5   12     -0.39      0.00
   -1    5   12     -2.20      0.00
    0    5   12     -1.57      0.00
    1    5   12      6.20      0.00
    2    5   12     10.27      0.00
    3    5   12      5.37      0.00
    4    5   12     -2.90      0.00
    5    5   12     -0.95      0.00
    6    5   12      2.09      0.00
    7    5   12     -0.12      0.00
    8    5   12     -1.16      0.00
    9    5   12      0.82      0.00
   10    5   12      1.00      0.00
   11    5   12     -0.38      0.00
   12    5   12     -0.24      0.00
   13    5   12      1.11      0.00
   14    5   12      0.94      0.00
   15    5   12     -1.36      0.00
   16    5   12      0.14      0.00
   -9    6   12     -0.51      0.00
   -8    6   12     -0.22      0.00
   -7    6   12      1.17      0.00
   -6    6   12      0.88      0.00
   -5    6   12      1.48      0.00
   -4    6   12     -0.90      0.00
   -3    6   12      0.68      0.00
   -2    6   12      1.24      0.00
   -1    6   12     -3.19      0.00
    0    6   12     -4.02      0.00
    1    6   12      4.55      0.00
    2    6   12     10.90      0.00
    3    6   12      3.23      0.00
    4    6   12     -2.89      0.00
    5    6   12      2.55      0.00
    6    6   12      1.73      0.00
    7    6   12     -2.90      0.00
    8    6   12     -2.44      0.00
    9    6   12      1.36      0.00
   10    6   12      1.81      0.00
   11    6   12      0.29      0.00
   12    6   12     -0.36      0.00
   13    6   12      1.81      0.00
   14    6   12      0.21      0.00
   15    6   12     -1.43      0.00
   16    6   12     -0.30      0.00
   -8    7   12     -0.86      0.00
   -7    7   12     -0.30      0.00
   -6    7   12      1.45      0.00
   -5    7   12      2.11      0.00
   -4    7   12     -1.59      0.00
   -3    7   12      1.32      0.00
   -2    7   12      2.16      0.00
   -1    7   12     -3.13      0.00
    0    7   12     -5.70      0.00
    1    7   12      3.22      0.00
    2    7   12      7.94      0.00
    3    7   12     -0.50      0.00
    4    7   12     -1.08      0.00
    5    7   12      4.03      0.00
    6    7   12     -0.73      0.00
    7    7   12     -5.04      0.00
    8    7   12     -3.14      0.00
    9    7   12      2.24      0.00
   10    7   12      2.45      0.00
   11    7   12     -0.62      0.00
   12    7   12     -0.26      0.00
   13    7   12      2.85      0.00
   14    7   12     -0.16      0.00
   15    7   12     -1.54      0.00
   16    7   12     -0.90      0.00
   -8    8   12     -1.41      0.00
   -7    8   12     -0.69      0.00
   -6    8   12      1.70      0.00
   -5    8   12      1.82      0.00
   -4    8   12     -2.14      0.00
   -3    8   12      1.97      0.00
   -2    8   12      3.48      0.00
   -1    8   12     -3.30      0.00
    0    8   12     -6.40      0.00
    1    8   12      2.43      0.00
    2    8   12      3.41      0.00
    3    8   12     -2.38      0.00
    4    8   12      0.92      0.00
    5    8   12      2.92      0.00
    6    8   12     -1.94      0.00
    7    8   12     -5.69      0.00
    8    8   12     -3.52      0.00
    9    8   12      2.66      0.00
   10    8   12      0.93      0.00
   11    8   12     -1.56      0.00
   12    8   12      1.38      0.00
   13    8   12      2.27      0.00
   14    8   12     -0.42      0.00
   15    8   12     -1.57      0.00
   16    8   12     -0.51      0.00
   -8    9   12     -0.73      0.00
   -7    9   12     -0.85      0.00
   -6    9   12      1.36      0.00
   -5    9   12      0.54      0.00
   -4    9   12     -2.85      0.00
   -3    9   12      3.46      0.00
   -2    9   12      4.26      0.00
   -1    9   12     -4.25      0.00
    0    9   12     -5.43      0.00
    1    9   12      1.21      0.00
    2    9   12      0.07      0.00
    3    9   12     -2.03      0.00
    4    9   12      1.48      0.00
    5    9   12      1.57      0.00
    6    9   12     -1.21      0.00
    7    9   12     -5.84      0.00
    8    9   12     -3.21      0.00
    9    9   12      2.38      0.00
   10    9   12     -0.14      0.00
   11    9   12     -0.74      0.00
   12    9   12      1.21      0.00
   13    9   12      0.72      0.00
   14    9   12      0.48      0.00
   15    9   12     -1.40      0.00
   16    9   12      0.03      0.00
   -7   10   12     -0.58      0.00
   -6   10   12      0.75      0.00
   -5   10   12     -1.74      0.00
   -4   10   12     -2.59      0.00
   -3   10   12      4.70      0.00
   -2   10   12      3.75      0.00
   -1   10   12     -3.92      0.00
    0   10   12     -3.88      0.00
    1   10   12     -0.18      0.00
    2   10   12     -0.51      0.00
    3   10   12     -1.29      0.00
    4   10   12      0.74      0.00
    5   10   12      1.34      0.00
    6   10   12     -0.56      0.00
    7   10   12     -5.86      0.00
    8   10   12     -1.75      0.00
    9   10   12      2.62      0.00
   10   10   12     -0.08      0.00
   11   10   12     -0.85      0.00
   12   10   12      0.02      0.00
   13   10   12      1.31      0.00
   14   10   12      0.98      0.00
   15   10   12     -1.26      0.00
   16   10   12      0.13      0.00
   -6   11   12     -0.30      0.00
   -5   11   12     -3.08      0.00
   -4   11   12     -1.52      0.00
   -3   11   12      4.12      0.00
   -2   11   12      3.41      0.00
   -1   11   12     -2.89      0.00
    0   11   12     -2.70      0.00
    1   11   12     -0.21      0.00
    2   11   12      0.24      0.00
    3   11   12     -1.39      0.00
    4   11   12      0.28      0.00
    5   11   12      1.96      0.00
    6   11   12     -0.93      0.00
    7   11   12     -4.57      0.00
    8   11   12      0.91      0.00
    9   11   12      1.98      0.00
   10   11   12     -1.17      0.00
   11   11   12     -1.05      0.00
   12   11   12      0.29      0.00
   13   11   12      1.67      0.00
   14   11   12      0.22      0.00
   15   11   12     -0.31      0.00
   -6   12   12     -0.44      0.00
   -5   12   12     -2.67      0.00
   -4   12   12     -0.99      0.00
   -3   12   12      3.11      0.00
   -2   12   12      2.92      0.00
   -1   12   12     -2.73      0.00
    0   12   12     -0.89      0.00
    1   12   12      0.11      0.00
    2   12   12      0.10      0.00
    3   12   12     -1.80      0.00
    4   12   12      0.79      0.00
    5   12   12      2.27      0.00
    6   12   12     -1.20      0.00
    7   12   12     -1.18      0.00
    8   12   12      2.93      0.00
    9   12   12     -0.36      0.00
   10   12   12     -1.73      0.00
   11   12   12     -0.42      0.00
   12   12   12     -0.05      0.00
   13   12   12      0.68      0.00
   14   12   12      0.05      0.00
   15   12   12      0.68      0.00
   -5   13   12     -1.87      0.00
   -4   13   12     -0.61      0.00
   -3   13   12      2.52      0.00
   -2   13   12      1.01      0.00
   -1   13   12     -1.83      0.00
    0   13   12      1.17      0.00
    1   13   12     -0.67      0.00
    2   13   12     -1.16      0.00
    3   13   12     -2.28      0.00
    4   13   12      1.18      0.00
    5   13   12      1.57      0.00
    6   13   12     -0.86      0.00
    7   13   12      2.28      0.00
    8   13   12      3.25      0.00
    9   13   12     -1.51      0.00
   10   13   12     -1.35      0.00
   11   13   12     -0.85      0.00
   12   13   12     -0.16      0.00
   13   13   12      0.30      0.00
   14   13   12     -0.14      0.00
   15   13   12      0.50      0.00
   -4   14   12     -0.40      0.00
   -3   14   12      1.55      0.00
   -2   14   12     -0.69      0.00
   -1   14   12      1.02      0.00
    0   14   12      1.78      0.00
    1   14   12     -1.61      0.00
    2   14   12     -2.79      0.00
    3   14   12     -2.57      0.00
    4   14   12      1.01      0.00
    5   14   12      0.09      0.00
    6   14   12     -0.97      0.00
    7   14   12      3.85      0.00
    8   14   12      2.65      0.00
    9   14   12     -1.24      0.00
   10   14   12     -1.97      0.00
   11   14   12     -0.79      0.00
   12   14   12      0.96      0.00
   13   14   12     -0.45      0.00
   14   14   12     -0.91      0.00
   -3   15   12      0.61      0.00
   -2   15   12     -0.61      0.00
   -1   15   12      3.45      0.00
    0   15   12      0.64      0.00
    1   15   12     -1.49      0.00
    2   15   12     -3.85      0.00
    3   15   12     -2.12      0.00
    4   15   12      0.98      0.00
    5   15   12     -1.22      0.00
    6   15   12     -1.29      0.00
    7   15   12      3.34      0.00
    8   15   12      1.03      0.00
    9   15   12     -0.89      0.00
   10   15   12     -2.03      0.00
   11   15   12     -0.06      0.00
   12   15   12      0.37      0.00
   13   15   12     -1.27      0.00
   14   15   12     -1.05      0.00
   -2   16   12      0.24      0.00
   -1   16   12      3.32      0.00
    0   16   12     -0.46      0.00
    1   16   12     -0.71      0.00
    2   16   12     -4.45      0.00
    3   16   12     -1.16      0.00
    4   16   12      1.87      0.00
    5   16   12     -1.56      0.00
    6   16   12     -0.90      0.00
    7   16   12      1.08      0.00
    8   16   12     -0.31      0.00
    9   16   12      0.28      0.00
   10   16   12     -1.24      0.00
   11   16   12     -1.19      0.00
   12   16   12     -0.65      0.00
   13   16   12     -0.62      0.00
   -1   17   12      1.84      0.00
    0   17   12     -0.06      0.00
    1   17   12     -1.05      0.00
    2   17   12     -4.61      0.00
    3   17   12      0.37      0.00
    4   17   12      2.54      0.00
    5   17   12     -1.59      0.00
    6   17   12     -0.03      0.00
    7   17   12     -1.07      0.00
    8   17   12      0.32      0.00
    9   17   12      0.77      0.00
   10   17   12     -1.20      0.00
   11   17   12     -2.02      0.00
   12   17   12      0.49      0.00
    1   18   12     -2.15      0.00
    2   18   12     -2.72      0.00
    3   18   12      1.39      0.00
    4   18   12      1.28      0.00
    5   18   12     -1.18      0.00
    6   18   12      0.86      0.00
    7   18   12     -1.55      0.00
    8   18   12      0.93      0.00
    9   18   12     -0.35      0.00
   10   18   12     -0.63      0.00
    4   19   12      0.04      0.00
    5   19   12     -0.04      0.00
    6   19   12      0.98      0.00
    7   19   12     -1.11      0.00
    8   19   12      0.53      0.00
   -2   -9   13      0.40      0.00
   -1   -9   13     -3.09      0.00
    0   -9   13      0.12      0.00
    1   -9   13      1.67      0.00
    2   -9   13     -1.08      0.00
    3   -9   13     -0.09      0.00
    4   -9   13      0.26      0.00
   -4   -8   13     -0.08      0.00
   -3   -8   13      1.54      0.00
   -2   -8   13     -0.07      0.00
   -1   -8   13     -3.83      0.00
    0   -8   13      1.86      0.00
    1   -8   13      1.93      0.00
    2   -8   13     -1.62      0.00
    3   -8   13     -0.06      0.00
    4   -8   13      0.44      0.00
    5   -8   13      0.63      0.00
    6   -8   13      0.70      0.00
   -5   -7   13     -1.46      0.00
   -4   -7   13      0.69      0.00
   -3   -7   13      1.80      0.00
   -2   -7   13     -1.48      0.00
   -1   -7   13     -1.46      0.00
    0   -7   13      2.84      0.00
    1   -7   13      0.15      0.00
    2   -7   13     -0.28      0.00
    3   -7   13     -0.24      0.00
    4   -7   13      0.83      0.00
    5   -7   13      1.76      0.00
    6   -7   13     -0.29      0.00
    7   -7   13     -1.27      0.00
    8   -7   13     -1.48      0.00
   -6   -6   13      0.21      0.00
   -5   -6   13     -0.35      0.00
   -4   -6   13      1.05      0.00
   -3   -6   13     -0.38      0.00
   -2   -6   13     -0.79      0.00
   -1   -6   13      1.37      0.00
    0   -6   13      0.28      0.00
    1   -6   13     -0.32      0.00
    2   -6   13      0.59      0.00
    3   -6   13     -1.11      0.00
    4   -6   13      3.00      0.00
    5   -6   13      1.15      0.00
    6   -6   13     -1.79      0.00
    7   -6   13      0.20      0.00
    8   -6   13     -1.13      0.00
    9   -6   13     -1.35      0.00
   -7   -5   13     -0.48      0.00
   -6   -5   13      1.45      0.00
   -5   -5   13      0.72      0.00
   -4   -5   13     -0.30      0.00
   -3   -5   13     -1.42      0.00
   -2   -5   13      1.44      0.00
   -1   -5   13      0.95      0.00
    0   -5   13     -1.26      0.00
    1   -5   13      0.41      0.00
    2   -5   13     -1.87      0.00
    3   -5   13      0.09      0.00
    4   -5   13      4.48      0.00
    5   -5   13     -1.94      0.00
    6   -5   13     -0.89      0.00
    7   -5   13      2.06      0.00
    8   -5   13     -1.85      0.00
    9   -5   13     -2.26      0.00
   10   -5   13      0.77      0.00
   -7   -4   13      1.20      0.00
   -6   -4   13      1.57      0.00
   -5   -4   13     -0.31      0.00
   -4   -4   13     -0.70      0.00
   -3   -4   13     -0.70      0.00
   -2   -4   13      1.66      0.00
   -1   -4   13      0.21      0.00
    0   -4   13      0.52      0.00
    1   -4   13     -0.92      0.00
    2   -4   13     -3.94      0.00
    3   -4   13      2.85      0.00
    4   -4   13      2.85      0.00
    5   -4   13     -3.91      0.00
    6   -4   13      1.14      0.00
    7   -4   13      1.51      0.00
    8   -4   13     -1.84      0.00
    9   -4   13     -1.21      0.00
   10   -4   13      1.09      0.00
   11   -4   13     -2.14      0.00
   -8   -3   13     -0.13      0.00
   -7   -3   13      1.62      0.00
   -6   -3   13     -0.51      0.00
   -5   -3   13     -0.42      0.00
   -4   -3   13     -0.07      0.00
   -3   -3   13     -0.91      0.00
   -2   -3   13      0.26      0.00
   -1   -3   13      1.35      0.00
    0   -3   13      2.16      0.00
    1   -3   13     -2.53      0.00
    2   -3   13     -3.21      0.00
    3   -3   13      3.63      0.00
    4   -3   13      0.45      0.00
    5   -3   13     -3.35      0.00
    6   -3   13      1.90      0.00
    7   -3   13      0.56      0.00
    8   -3   13     -0.45      0.00
    9   -3   13     -0.90      0.00
   10   -3   13     -0.33      0.00
   11   -3   13     -2.55      0.00
   12   -3   13      0.95      0.00
   -8   -2   13      0.37      0.00
   -7   -2   13     -0.41      0.00
   -6   -2   13     -0.76      0.00
   -5   -2   13      0.77      0.00
   -4   -2   13     -0.33      0.00
   -3   -2   13     -1.70      0.00
   -2   -2   13     -1.12      0.00
   -1   -2   13      2.67      0.00
    0   -2   13      2.62      0.00
    1   -2   13     -2.76      0.00
    2   -2   13     -2.30      0.00
    3   -2   13      2.40      0.00
    4   -2   13     -1.04      0.00
    5   -2   13     -1.60      0.00
    6   -2   13      2.36      0.00
    7   -2   13      0.66      0.00
    8   -2   13     -0.42      0.00
    9   -2   13     -1.27      0.00
   10   -2   13     -0.35      0.00
   11   -2   13     -1.15      0.00
   12   -2   13      0.48      0.00
   13   -2   13     -0.37      0.00
   -8   -1   13     -0.51      0.00
   -7   -1   13     -1.35      0.00
   -6   -1   13      0.64      0.00
   -5   -1   13      1.03      0.00
   -4   -1   13     -0.44      0.00
   -3   -1   13     -1.96      0.00
   -2   -1   13     -1.74      0.00
   -1   -1   13      3.39      0.00
    0   -1   13      2.13      0.00
    1   -1   13     -2.71      0.00
    2   -1   13     -1.68      0.00
    3   -1   13      0.19      0.00
    4   -1   13     -2.50      0.00
    5   -1   13      0.54      0.00
    6   -1   13      3.02      0.00
    7   -1   13      0.46      0.00
    8   -1   13     -1.26      0.00
    9   -1   13      0.03      0.00
   10   -1   13      0.17      0.00
   11   -1   13     -0.23      0.00
   12   -1   13     -0.15      0.00
   13   -1   13      0.22      0.00
   -8    0   13     -0.59      0.00
   -7    0   13     -0.96      0.00
   -6    0   13      0.69      0.00
   -5    0   13      1.08      0.00
   -4    0   13      0.02      0.00
   -3    0   13     -1.99      0.00
   -2    0   13     -1.15      0.00
   -1    0   13      2.82      0.00
    0    0   13      0.98      0.00
    1    0   13     -1.53      0.00
    2    0   13     -1.14      0.00
    3    0   13     -3.07      0.00
    4    0   13     -3.51      0.00
    5    0   13      2.12      0.00
    6    0   13      3.13      0.00
    7    0   13      0.26      0.00
    8    0   13     -0.77      0.00
    9    0   13      0.53      0.00
   10    0   13     -0.60      0.00
   11    0   13      0.80      0.00
   12    0   13     -0.21      0.00
   13    0   13      0.64      0.00
   14    0   13      0.57      0.00
   -8    1   13      0.19      0.00
   -7    1   13     -0.92      0.00
   -6    1   13      0.34      0.00
   -5    1   13      1.25      0.00
   -4    1   13     -0.17      0.00
   -3    1   13     -1.91      0.00
   -2    1   13     -0.10      0.00
   -1    1   13      1.00      0.00
    0    1   13      0.68      0.00
    1    1   13      0.28      0.00
    2    1   13     -1.73      0.00
    3    1   13     -5.39      0.00
    4    1   13     -3.29      0.00
    5    1   13      2.09      0.00
    6    1   13      2.87      0.00
    7    1   13      1.06      0.00
    8    1   13     -0.25      0.00
    9    1   13     -1.05      0.00
   10    1   13     -0.14      0.00
   11    1   13      0.96      0.00
   12    1   13     -1.20      0.00
   13    1   13      0.64      0.00
   14    1   13      0.48      0.00
   -8    2   13      0.62      0.00
   -7    2   13     -0.47      0.00
   -6    2   13      0.29      0.00
   -5    2   13      0.60      0.00
   -4    2   13     -0.68      0.00
   -3    2   13     -1.45      0.00
   -2    2   13      1.00      0.00
   -1    2   13     -0.81      0.00
    0    2   13      0.55      0.00
    1    2   13      1.10      0.00
    2    2   13     -1.79      0.00
    3    2   13     -5.37      0.00
    4    2   13     -3.05      0.00
    5    2   13      0.59      0.00
    6    2   13      2.56      0.00
    7    2   13      1.88      0.00
    8    2   13     -0.65      0.00
    9    2   13     -0.92      0.00
   10    2   13      1.37      0.00
   11    2   13     -1.13      0.00
   12    2   13     -1.32      0.00
   13    2   13      0.59      0.00
   14    2   13     -0.33      0.00
   15    2   13     -0.20      0.00
   -8    3   13      0.58      0.00
   -7    3   13     -0.05      0.00
   -6    3   13      0.06      0.00
   -5    3   13      0.07      0.00
   -4    3   13     -0.87      0.00
   -3    3   13     -0.15      0.00
   -2    3   13      1.82      0.00
   -1    3   13     -2.38      0.00
    0    3   13     -0.10      0.00
    1    3   13      2.43      0.00
    2    3   13      0.04      0.00
    3    3   13     -4.47      0.00
    4    3   13     -3.25      0.00
    5    3   13     -1.27      0.00
    6    3   13      1.78      0.00
    7    3   13      1.59      0.00
    8    3   13     -0.23      0.00
    9    3   13      1.31      0.00
   10    3   13      1.38      0.00
   11    3   13     -1.89      0.00
   12    3   13     -0.03      0.00
   13    3   13     -0.92      0.00
   14    3   13     -1.40      0.00
   15    3   13      0.08      0.00
   -8    4   13     -0.42      0.00
   -7    4   13     -0.24      0.00
   -6    4   13      0.91      0.00
   -5    4   13     -0.29      0.00
   -4    4   13     -0.84      0.00
   -3    4   13      1.45      0.00
   -2    4   13      1.38      0.00
   -1    4   13     -2.91      0.00
    0    4   13     -0.35      0.00
    1    4   13      4.58      0.00
    2    4   13      2.50      0.00
    3    4   13     -2.40      0.00
    4    4   13     -2.71      0.00
    5    4   13     -2.76      0.00
    6    4   13      0.54      0.00
    7    4   13      1.16      0.00
    8    4   13      1.08      0.00
    9    4   13      2.26      0.00
   10    4   13      1.01      0.00
   11    4   13     -0.83      0.00
   12    4   13     -0.36      0.00
   13    4   13     -1.98      0.00
   14    4   13     -0.19      0.00
   15    4   13      0.67      0.00
   -8    5   13     -1.59      0.00
   -7    5   13      0.53      0.00
   -6    5   13      2.09      0.00
   -5    5   13     -1.31      0.00
   -4    5   13     -0.25      0.00
   -3    5   13      1.72      0.00
   -2    5   13      0.73      0.00
   -1    5   13     -2.12      0.00
    0    5   13     -1.02      0.00
    1    5   13      5.48      0.00
    2    5   13      5.31      0.00
    3    5   13      1.76      0.00
    4    5   13     -1.71      0.00
    5    5   13     -3.33      0.00
    6    5   13      0.42      0.00
    7    5   13      1.43      0.00
    8    5   13      1.37      0.00
    9    5   13      1.61      0.00
   10    5   13      0.87      0.00
   11    5   13     -0.87      0.00
   12    5   13     -0.76      0.00
   13    5   13     -0.65      0.00
   14    5   13      1.41      0.00
   15    5   13      0.02      0.00
   -8    6   13     -1.10      0.00
   -7    6   13      1.45      0.00
   -6    6   13      1.61      0.00
   -5    6   13     -1.39      0.00
   -4    6   13      0.44      0.00
   -3    6   13      0.85      0.00
   -2    6   13      1.20      0.00
   -1    6   13     -1.82      0.00
    0    6   13     -2.51      0.00
    1    6   13      4.61      0.00
    2    6   13      8.05      0.00
    3    6   13      5.45      0.00
    4    6   13     -1.40      0.00
    5    6   13     -2.03      0.00
    6    6   13      1.71      0.00
    7    6   13      1.09      0.00
    8    6   13      0.46      0.00
    9    6   13      0.73      0.00
   10    6   13      0.78      0.00
   11    6   13     -0.16      0.00
   12    6   13      0.00      0.00
   13    6   13      0.08      0.00
   14    6   13      1.31      0.00
   15    6   13     -0.71      0.00
   -8    7   13     -0.15      0.00
   -7    7   13      0.80      0.00
   -6    7   13      0.87      0.00
   -5    7   13      0.11      0.00
   -4    7   13      0.47      0.00
   -3    7   13      0.30      0.00
   -2    7   13      1.61      0.00
   -1    7   13     -2.01      0.00
    0    7   13     -3.69      0.00
    1    7   13      2.72      0.00
    2    7   13      9.19      0.00
    3    7   13      5.86      0.00
    4    7   13     -1.54      0.00
    5    7   13      0.51      0.00
    6    7   13      2.07      0.00
    7    7   13     -0.53      0.00
    8    7   13     -0.80      0.00
    9    7   13      0.35      0.00
   10    7   13      2.25      0.00
   11    7   13      1.10      0.00
   12    7   13     -0.61      0.00
   13    7   13      0.49      0.00
   14    7   13      1.16      0.00
   15    7   13     -0.75      0.00
   16    7   13     -0.44      0.00
   -7    8   13      0.02      0.00
   -6    8   13      0.73      0.00
   -5    8   13      1.56      0.00
   -4    8   13      0.46      0.00
   -3    8   13     -0.07      0.00
   -2    8   13      1.57      0.00
   -1    8   13     -1.58      0.00
    0    8   13     -4.78      0.00
    1    8   13      1.33      0.00
    2    8   13      7.98      0.00
    3    8   13      3.34      0.00
    4    8   13     -1.11      0.00
    5    8   13      2.34      0.00
    6    8   13      0.64      0.00
    7    8   13     -2.09      0.00
    8    8   13     -2.19      0.00
    9    8   13      0.68      0.00
   10    8   13      3.25      0.00
   11    8   13      0.04      0.00
   12    8   13     -0.57      0.00
   13    8   13      2.09      0.00
   14    8   13      0.72      0.00
   15    8   13     -0.77      0.00
   16    8   13     -1.35      0.00
   -7    9   13     -0.07      0.00
   -6    9   13      0.31      0.00
   -5    9   13      2.48      0.00
   -4    9   13      0.17      0.00
   -3    9   13     -0.51      0.00
   -2    9   13      2.18      0.00
   -1    9   13     -1.34      0.00
    0    9   13     -5.57      0.00
    1    9   13      0.83      0.00
    2    9   13      4.59      0.00
    3    9   13      0.68      0.00
    4    9   13      0.35      0.00
    5    9   13      2.51      0.00
    6    9   13     -0.78      0.00
    7    9   13     -2.70      0.00
    8    9   13     -3.66      0.00
    9    9   13      0.47      0.00
   10    9   13      1.98      0.00
   11    9   13     -0.70      0.00
   12    9   13      0.92      0.00
   13    9   13      1.89      0.00
   14    9   13      0.38      0.00
   15    9   13     -0.40      0.00
   -6   10   13      0.11      0.00
   -5   10   13      2.18      0.00
   -4   10   13     -1.00      0.00
   -3   10   13      0.12      0.00
   -2   10   13      3.10      0.00
   -1   10   13     -1.25      0.00
    0   10   13     -5.36      0.00
    1   10   13     -0.19      0.00
    2   10   13      1.16      0.00
    3   10   13      0.03      0.00
    4   10   13      1.48      0.00
    5   10   13      1.55      0.00
    6   10   13     -0.80      0.00
    7   10   13     -3.21      0.00
    8   10   13     -5.12      0.00
    9   10   13      0.12      0.00
   10   10   13      1.57      0.00
   11   10   13     -0.14      0.00
   12   10   13      0.43      0.00
   13   10   13      0.91      0.00
   14   10   13      1.51      0.00
   15   10   13     -0.44      0.00
   -6   11   13     -0.04      0.00
   -5   11   13      0.33      0.00
   -4   11   13     -1.82      0.00
   -3   11   13      1.33      0.00
   -2   11   13      3.53      0.00
   -1   11   13     -0.40      0.00
    0   11   13     -4.81      0.00
    1   11   13     -1.03      0.00
    2   11   13      0.03      0.00
    3   11   13      0.34      0.00
    4   11   13      1.04      0.00
    5   11   13      1.03      0.00
    6   11   13     -0.25      0.00
    7   11   13     -4.63      0.00
    8   11   13     -5.21      0.00
    9   11   13      1.25      0.00
   10   11   13      1.70      0.00
   11   11   13     -0.70      0.00
   12   11   13     -0.23      0.00
   13   11   13      1.62      0.00
   14   11   13      1.98      0.00
   15   11   13     -1.01      0.00
   -5   12   13     -1.04      0.00
   -4   12   13     -1.79      0.00
   -3   12   13      1.65      0.00
   -2   12   13      3.64      0.00
   -1   12   13      0.01      0.00
    0   12   13     -3.83      0.00
    1   12   13     -0.24      0.00
    2   12   13      0.39      0.00
    3   12   13      0.33      0.00
    4   12   13      0.36      0.00
    5   12   13      1.58      0.00
    6   12   13     -0.42      0.00
    7   12   13     -5.35      0.00
    8   12   13     -2.85      0.00
    9   12   13      1.74      0.00
   10   12   13      0.05      0.00
   11   12   13     -0.75      0.00
   12   12   13      0.34      0.00
   13   12   13      1.57      0.00
   14   12   13      1.38      0.00
   15   12   13     -0.55      0.00
   -4   13   13     -1.47      0.00
   -3   13   13      1.37      0.00
   -2   13   13      3.07      0.00
   -1   13   13     -1.09      0.00
    0   13   13     -1.70      0.00
    1   13   13      0.72      0.00
    2   13   13      0.65      0.00
    3   13   13     -0.02      0.00
    4   13   13      0.33      0.00
    5   13   13      2.21      0.00
    6   13   13     -0.51      0.00
    7   13   13     -3.67      0.00
    8   13   13      0.12      0.00
    9   13   13      0.37      0.00
   10   13   13     -1.23      0.00
   11   13   13     -0.30      0.00
   12   13   13     -0.24      0.00
   13   13   13      1.03      0.00
   14   13   13      1.29      0.00
   -4   14   13     -0.71      0.00
   -3   14   13      0.87      0.00
   -2   14   13      1.71      0.00
   -1   14   13     -2.12      0.00
    0   14   13      0.96      0.00
    1   14   13      0.52      0.00
    2   14   13      0.20      0.00
    3   14   13     -1.29      0.00
    4   14   13      0.50      0.00
    5   14   13      2.30      0.00
    6   14   13     -0.18      0.00
    7   14   13     -1.10      0.00
    8   14   13      2.22      0.00
    9   14   13     -0.52      0.00
   10   14   13     -1.68      0.00
   11   14   13     -1.25      0.00
   12   14   13     -0.09      0.00
   13   14   13      1.46      0.00
   14   14   13      0.61      0.00
   -3   15   13      0.19      0.00
   -2   15   13      0.71      0.00
   -1   15   13     -1.40      0.00
    0   15   13      2.74      0.00
    1   15   13     -0.28      0.00
    2   15   13     -0.95      0.00
    3   15   13     -2.99      0.00
    4   15   13      0.63      0.00
    5   15   13      1.68      0.00
    6   15   13     -0.59      0.00
    7   15   13      0.78      0.00
    8   15   13      2.94      0.00
    9   15   13     -0.69      0.00
   10   15   13     -2.25      0.00
   11   15   13     -1.44      0.00
   12   15   13      1.29      0.00
   13   15   13      0.83      0.00
   -1   16   13      0.38      0.00
    0   16   13      2.61      0.00
    1   16   13     -0.42      0.00
    2   16   13     -1.95      0.00
    3   16   13     -3.99      0.00
    4   16   13      0.82      0.00
    5   16   13      1.01      0.00
    6   16   13     -1.40      0.00
    7   16   13      1.40      0.00
    8   16   13      1.46      0.00
    9   16   13     -0.15      0.00
   10   16   13     -1.72      0.00
   11   16   13     -0.90      0.00
   12   16   13      0.62      0.00
   13   16   13     -0.17      0.00
    0   17   13      1.39      0.00
    1   17   13      0.35      0.00
    2   17   13     -3.11      0.00
    3   17   13     -3.90      0.00
    4   17   13      1.65      0.00
    5   17   13      0.83      0.00
    6   17   13     -1.77      0.00
    7   17   13      0.70      0.00
    8   17   13     -0.14      0.00
    9   17   13      1.54      0.00
   10   17   13     -1.23      0.00
   11   17   13     -1.51      0.00
    2   18   13     -4.07      0.00
    3   18   13     -2.28      0.00
    4   18   13      2.08      0.00
    5   18   13      0.34      0.00
    6   18   13     -1.37      0.00
    7   18   13      0.19      0.00
    8   18   13     -0.04      0.00
    9   18   13      1.76      0.00
   10   18   13     -1.66      0.00
   -1   -8   14     -1.43      0.00
    0   -8   14     -2.00      0.00
    1   -8   14      2.47      0.00
    2   -8   14      0.34      0.00
    3   -8   14     -0.77      0.00
    4   -8   14      0.27      0.00
   -3   -7   14      1.89      0.00
   -2   -7   14      0.78      0.00
   -1   -7   14     -3.24      0.00
    0   -7   14     -0.22      0.00
    1   -7   14      3.74      0.00
    2   -7   14     -0.53      0.00
    3   -7   14     -0.24      0.00
    4   -7   14     -0.58      0.00
    5   -7   14     -0.14      0.00
    6   -7   14      1.14      0.00
   -5   -6   14     -0.54      0.00
   -4   -6   14      0.80      0.00
   -3   -6   14      2.59      0.00
   -2   -6   14     -0.55      0.00
   -1   -6   14     -1.96      0.00
    0   -6   14      2.09      0.00
    1   -6   14      2.01      0.00
    2   -6   14      0.41      0.00
    3   -6   14      0.22      0.00
    4   -6   14     -1.22      0.00
    5   -6   14      1.51      0.00
    6   -6   14      0.60      0.00
    7   -6   14     -1.09      0.00
    8   -6   14     -0.87      0.00
   -5   -5   14      0.23      0.00
   -4   -5   14      1.25      0.00
   -3   -5   14      0.74      0.00
   -2   -5   14     -1.09      0.00
   -1   -5   14      0.79      0.00
    0   -5   14      0.83      0.00
    1   -5   14      0.51      0.00
    2   -5   14      1.73      0.00
    3   -5   14     -0.74      0.00
    4   -5   14      0.60      0.00
    5   -5   14      2.43      0.00
    6   -5   14     -1.53      0.00
    7   -5   14     -0.01      0.00
    8   -5   14      0.01      0.00
    9   -5   14     -1.48      0.00
   -6   -4   14      1.91      0.00
   -5   -4   14      0.54      0.00
   -4   -4   14      0.32      0.00
   -3   -4   14     -0.66      0.00
   -2   -4   14     -0.18      0.00
   -1   -4   14      1.14      0.00
    0   -4   14     -0.94      0.00
    1   -4   14      0.42      0.00
    2   -4   14      0.12      0.00
    3   -4   14     -0.76      0.00
    4   -4   14      3.41      0.00
    5   -4   14      0.82      0.00
    6   -4   14     -2.66      0.00
    7   -4   14      2.29      0.00
    8   -4   14     -0.49      0.00
    9   -4   14     -2.41      0.00
   10   -4   14     -0.45      0.00
   -7   -3   14      0.85      0.00
   -6   -3   14      1.96      0.00
   -5   -3   14     -0.36      0.00
   -4   -3   14      0.10      0.00
   -3   -3   14     -0.65      0.00
   -2   -3   14      0.12      0.00
   -1   -3   14      0.31      0.00
    0   -3   14     -0.44      0.00
    1   -3   14     -0.35      0.00
    2   -3   14     -2.15      0.00
    3   -3   14      0.99      0.00
    4   -3   14      4.30      0.00
    5   -3   14     -1.37      0.00
    6   -3   14     -2.36      0.00
    7   -3   14      2.72      0.00
    8   -3   14     -1.06      0.00
    9   -3   14     -1.89      0.00
   10   -3   14     -0.05      0.00
   11   -3   14      0.12      0.00
   -7   -2   14      1.09      0.00
   -6   -2   14      0.35      0.00
   -5   -2   14     -0.22      0.00
   -4   -2   14      0.34      0.00
   -3   -2   14     -0.64      0.00
   -2   -2   14     -0.39      0.00
   -1   -2   14     -0.06      0.00
    0   -2   14      1.09      0.00
    1   -2   14     -1.09      0.00
    2   -2   14     -2.78      0.00
    3   -2   14      2.23      0.00
    4   -2   14      3.59      0.00
    5   -2   14     -2.32      0.00
    6   -2   14     -1.68      0.00
    7   -2   14      1.94      0.00
    8   -2   14     -0.58      0.00
    9   -2   14     -1.93      0.00
   10   -2   14     -0.28      0.00
   11   -2   14     -0.61      0.00
   12   -2   14     -0.39      0.00
   -7   -1   14     -0.30      0.00
   -6   -1   14     -0.05      0.00
   -5   -1   14      0.52      0.00
   -4   -1   14      0.22      0.00
   -3   -1   14     -0.59      0.00
   -2   -1   14     -1.44      0.00
   -1   -1   14      0.20      0.00
    0   -1   14      2.57      0.00
    1   -1   14     -1.45      0.00
    2   -1   14     -2.79      0.00
    3   -1   14      2.40      0.00
    4   -1   14      2.32      0.00
    5   -1   14     -2.18      0.00
    6   -1   14     -0.39      0.00
    7   -1   14      1.44      0.00
    8   -1   14     -0.62      0.00
    9   -1   14     -1.96      0.00
   10   -1   14      0.57      0.00
   11   -1   14     -0.73      0.00
   12   -1   14     -0.42      0.00
   13   -1   14     -0.84      0.00
   -7    0   14     -1.11      0.00
   -6    0   14      0.23      0.00
   -5    0   14      0.69      0.00
   -4    0   14      0.66      0.00
   -3    0   14     -0.60      0.00
   -2    0   14     -2.17      0.00
   -1    0   14      1.26      0.00
    0    0   14      2.70      0.00
    1    0   14     -1.76      0.00
    2    0   14     -2.19      0.00
    3    0   14      1.49      0.00
    4    0   14      0.13      0.00
    5    0   14     -1.39      0.00
    6    0   14      1.43      0.00
    7    0   14      1.05      0.00
    8    0   14     -0.82      0.00
    9    0   14     -0.34      0.00
   10    0   14      0.52      0.00
   11    0   14     -0.73      0.00
   12    0   14     -0.14      0.00
   13    0   14     -0.74      0.00
   -8    1   14     -0.02      0.00
   -7    1   14     -1.26      0.00
   -6    1   14     -0.12      0.00
   -5    1   14      0.94      0.00
   -4    1   14      1.11      0.00
   -3    1   14     -0.74      0.00
   -2    1   14     -1.77      0.00
   -1    1   14      1.91      0.00
    0    1   14      1.73      0.00
    1    1   14     -0.83      0.00
    2    1   14     -1.52      0.00
    3    1   14     -0.85      0.00
    4    1   14     -2.28      0.00
    5    1   14     -0.21      0.00
    6    1   14      2.80      0.00
    7    1   14      0.94      0.00
    8    1   14      0.02      0.00
    9    1   14      0.24      0.00
   10    1   14     -1.07      0.00
   11    1   14      0.65      0.00
   12    1   14     -0.28      0.00
   13    1   14     -0.13      0.00
   14    1   14      0.93      0.00
   -8    2   14      0.25      0.00
   -7    2   14     -0.89      0.00
   -6    2   14     -0.46      0.00
   -5    2   14      0.68      0.00
   -4    2   14      0.83      0.00
   -3    2   14     -0.78      0.00
   -2    2   14     -1.10      0.00
   -1    2   14      1.82      0.00
    0    2   14      1.31      0.00
    1    2   14      0.34      0.00
    2    2   14     -1.67      0.00
    3    2   14     -3.19      0.00
    4    2   14     -3.71      0.00
    5    2   14      0.75      0.00
    6    2   14      2.96      0.00
    7    2   14      1.55      0.00
    8    2   14      0.70      0.00
    9    2   14     -1.16      0.00
   10    2   14     -0.92      0.00
   11    2   14      1.30      0.00
   12    2   14     -1.65      0.00
   13    2   14      1.13      0.00
   14    2   14      0.84      0.00
   -8    3   14      0.75      0.00
   -7    3   14      0.20      0.00
   -6    3   14     -1.11      0.00
   -5    3   14     -0.11      0.00
   -4    3   14      0.44      0.00
   -3    3   14     -0.97      0.00
   -2    3   14     -0.12      0.00
   -1    3   14      1.45      0.00
    0    3   14      0.80      0.00
    1    3   14      0.56      0.00
    2    3   14     -1.19      0.00
    3    3   14     -4.55      0.00
    4    3   14     -4.46      0.00
    5    3   14      0.51      0.00
    6    3   14      2.09      0.00
    7    3   14      2.30      0.00
    8    3   14      0.42      0.00
    9    3   14     -1.30      0.00
   10    3   14      0.80      0.00
   11    3   14     -0.11      0.00
   12    3   14     -1.61      0.00
   13    3   14      1.51      0.00
   14    3   14     -1.08      0.00
   -8    4   14      1.08      0.00
   -7    4   14      0.59      0.00
   -6    4   14     -1.59      0.00
   -5    4   14     -0.07      0.00
   -4    4   14     -0.48      0.00
   -3    4   14     -0.67      0.00
   -2    4   14      1.24      0.00
   -1    4   14      0.35      0.00
    0    4   14      0.02      0.00
    1    4   14      1.14      0.00
    2    4   14      0.54      0.00
    3    4   14     -5.12      0.00
    4    4   14     -4.91      0.00
    5    4   14     -0.94      0.00
    6    4   14      0.91      0.00
    7    4   14      2.13      0.00
    8    4   14      0.35      0.00
    9    4   14      0.45      0.00
   10    4   14      1.85      0.00
   11    4   14     -0.59      0.00
   12    4   14     -0.74      0.00
   13    4   14     -0.49      0.00
   14    4   14     -2.44      0.00
   15    4   14      0.57      0.00
   -7    5   14      0.16      0.00
   -6    5   14     -0.35      0.00
   -5    5   14     -0.16      0.00
   -4    5   14     -1.89      0.00
   -3    5   14      0.64      0.00
   -2    5   14      1.66      0.00
   -1    5   14     -0.54      0.00
    0    5   14     -0.29      0.00
    1    5   14      2.14      0.00
    2    5   14      2.65      0.00
    3    5   14     -3.93      0.00
    4    5   14     -4.46      0.00
    5    5   14     -2.44      0.00
    6    5   14     -0.15      0.00
    7    5   14      1.38      0.00
    8    5   14      0.95      0.00
    9    5   14      1.93      0.00
   10    5   14      2.04      0.00
   11    5   14     -0.52      0.00
   12    5   14     -1.26      0.00
   13    5   14     -1.37      0.00
   14    5   14     -0.91      0.00
   15    5   14      1.25      0.00
   -7    6   14      0.38      0.00
   -6    6   14      1.24      0.00
   -5    6   14     -1.23      0.00
   -4    6   14     -2.10      0.00
   -3    6   14      1.48      0.00
   -2    6   14      1.30      0.00
   -1    6   14     -0.40      0.00
    0    6   14     -0.93      0.00
    1    6   14      2.55      0.00
    2    6   14      4.67      0.00
    3    6   14     -0.44      0.00
    4    6   14     -2.74      0.00
    5    6   14     -3.03      0.00
    6    6   14     -0.29      0.00
    7    6   14      1.21      0.00
    8    6   14      1.42      0.00
    9    6   14      2.20      0.00
   10    6   14      0.97      0.00
   11    6   14     -1.02      0.00
   12    6   14     -0.77      0.00
   13    6   14     -0.16      0.00
   14    6   14      0.56      0.00
   15    6   14      0.56      0.00
   -7    7   14      0.55      0.00
   -6    7   14      1.52      0.00
   -5    7   14     -1.50      0.00
   -4    7   14     -1.11      0.00
   -3    7   14      1.14      0.00
   -2    7   14      1.25      0.00
   -1    7   14     -0.36      0.00
    0    7   14     -1.92      0.00
    1    7   14      1.83      0.00
    2    7   14      6.05      0.00
    3    7   14      3.73      0.00
    4    7   14     -0.95      0.00
    5    7   14     -2.61      0.00
    6    7   14      0.96      0.00
    7    7   14      1.22      0.00
    8    7   14      1.33      0.00
    9    7   14      1.49      0.00
   10    7   14      0.09      0.00
   11    7   14      0.22      0.00
   12    7   14      0.27      0.00
   13    7   14     -0.12      0.00
   14    7   14      0.77      0.00
   15    7   14     -0.15      0.00
   -7    8   14     -0.06      0.00
   -6    8   14      1.45      0.00
   -5    8   14     -0.62      0.00
   -4    8   14      0.03      0.00
   -3    8   14      0.68      0.00
   -2    8   14      1.03      0.00
   -1    8   14     -0.68      0.00
    0    8   14     -2.70      0.00
    1    8   14      0.30      0.00
    2    8   14      6.94      0.00
    3    8   14      5.79      0.00
    4    8   14     -0.71      0.00
    5    8   14     -1.09      0.00
    6    8   14      2.19      0.00
    7    8   14      0.36      0.00
    8    8   14      0.81      0.00
    9    8   14      0.92      0.00
   10    8   14      1.37      0.00
   11    8   14      1.33      0.00
   12    8   14     -0.41      0.00
   13    8   14      0.30      0.00
   14    8   14      1.02      0.00
   15    8   14     -0.54      0.00
   -6    9   14      1.20      0.00
   -5    9   14      0.37      0.00
   -4    9   14      1.29      0.00
   -3    9   14      0.23      0.00
   -2    9   14      0.32      0.00
   -1    9   14     -0.88      0.00
    0    9   14     -3.43      0.00
    1    9   14     -0.44      0.00
    2    9   14      6.78      0.00
    3    9   14      4.16      0.00
    4    9   14     -0.80      0.00
    5    9   14      1.26      0.00
    6    9   14      1.48      0.00
    7    9   14     -0.90      0.00
    8    9   14      0.29      0.00
    9    9   14      0.73      0.00
   10    9   14      1.88      0.00
   11    9   14      0.17      0.00
   12    9   14     -0.11      0.00
   13    9   14      1.77      0.00
   14    9   14      0.49      0.00
   15    9   14     -0.45      0.00
   -6   10   14      0.63      0.00
   -5   10   14      1.28      0.00
   -4   10   14      1.88      0.00
   -3   10   14     -0.35      0.00
   -2   10   14      0.07      0.00
   -1   10   14     -0.92      0.00
    0   10   14     -3.63      0.00
    1   10   14     -0.73      0.00
    2   10   14      4.29      0.00
    3   10   14      1.46      0.00
    4   10   14      0.74      0.00
    5   10   14      2.56      0.00
    6   10   14     -0.50      0.00
    7   10   14     -1.11      0.00
    8   10   14     -0.65      0.00
    9   10   14     -0.70      0.00
   10   10   14      0.63      0.00
   11   10   14     -0.02      0.00
   12   10   14      0.75      0.00
   13   10   14      1.28      0.00
   14   10   14      0.30      0.00
   15   10   14      0.63      0.00
   -5   11   14      1.24      0.00
   -4   11   14      1.22      0.00
   -3   11   14     -0.23      0.00
   -2   11   14      0.63      0.00
   -1   11   14     -0.27      0.00
    0   11   14     -3.40      0.00
    1   11   14     -1.93      0.00
    2   11   14      1.38      0.00
    3   11   14      0.48      0.00
    4   11   14      2.14      0.00
    5   11   14      1.94      0.00
    6   11   14     -1.20      0.00
    7   11   14     -0.99      0.00
    8   11   14     -2.93      0.00
    9   11   14     -2.16      0.00
   10   11   14      0.97      0.00
   11   11   14      0.51      0.00
   12   11   14     -0.44      0.00
   13   11   14      0.69      0.00
   14   11   14      1.48      0.00
   15   11   14      0.98      0.00
   -4   12   14      0.32      0.00
   -3   12   14      0.39      0.00
   -2   12   14      1.43      0.00
   -1   12   14      0.99      0.00
    0   12   14     -3.36      0.00
    1   12   14     -2.32      0.00
    2   12   14      0.17      0.00
    3   12   14      0.45      0.00
    4   12   14      1.76      0.00
    5   12   14      1.17      0.00
    6   12   14     -0.59      0.00
    7   12   14     -2.21      0.00
    8   12   14     -4.90      0.00
    9   12   14     -1.38      0.00
   10   12   14      1.61      0.00
   11   12   14     -0.33      0.00
   12   12   14     -0.73      0.00
   13   12   14      1.28      0.00
   14   12   14      1.77      0.00
   15   12   14      0.48      0.00
   -4   13   14     -0.50      0.00
   -3   13   14      0.75      0.00
   -2   13   14      1.78      0.00
   -1   13   14      1.55      0.00
    0   13   14     -3.15      0.00
    1   13   14     -0.80      0.00
    2   13   14      0.02      0.00
    3   13   14      0.90      0.00
    4   13   14      0.78      0.00
    5   13   14      1.21      0.00
    6   13   14     -0.16      0.00
    7   13   14     -3.37      0.00
    8   13   14     -4.59      0.00
    9   13   14     -0.23      0.00
   10   13   14      0.27      0.00
   11   13   14     -0.55      0.00
   12   13   14      0.02      0.00
   13   13   14      0.59      0.00
   14   13   14      1.60      0.00
   -3   14   14      0.94      0.00
   -2   14   14      1.24      0.00
   -1   14   14      0.70      0.00
    0   14   14     -2.57      0.00
    1   14   14      0.91      0.00
    2   14   14      0.31      0.00
    3   14   14      1.59      0.00
    4   14   14     -0.12      0.00
    5   14   14      1.74      0.00
    6   14   14      0.38      0.00
    7   14   14     -2.98      0.00
    8   14   14     -2.64      0.00
    9   14   14      0.02      0.00
   10   14   14     -1.19      0.00
   11   14   14     -0.63      0.00
   12   14   14     -0.82      0.00
   13   14   14      0.24      0.00
   14   14   14      1.97      0.00
   -2   15   14      0.46      0.00
   -1   15   14     -0.65      0.00
    0   15   14     -1.56      0.00
    1   15   14      1.54      0.00
    2   15   14      0.44      0.00
    3   15   14      0.98      0.00
    4   15   14     -0.69      0.00
    5   15   14      2.37      0.00
    6   15   14      0.78      0.00
    7   15   14     -1.86      0.00
    8   15   14      0.10      0.00
    9   15   14      0.02      0.00
   10   15   14     -2.02      0.00
   11   15   14     -1.76      0.00
   12   15   14     -0.83      0.00
   13   15   14      1.26      0.00
   -1   16   14     -1.22      0.00
    0   16   14     -0.11      0.00
    1   16   14      0.99      0.00
    2   16   14      0.25      0.00
    3   16   14     -0.70      0.00
    4   16   14     -0.84      0.00
    5   16   14      2.10      0.00
    6   16   14      0.41      0.00
    7   16   14     -0.70      0.00
    8   16   14      1.82      0.00
    9   16   14     -0.60      0.00
   10   16   14     -1.80      0.00
   11   16   14     -1.88      0.00
   12   16   14      0.34      0.00
    1   17   14      0.39      0.00
    2   17   14      0.38      0.00
    3   17   14     -2.38      0.00
    4   17   14     -0.84      0.00
    5   17   14      1.43      0.00
    6   17   14     -0.02      0.00
    7   17   14     -0.38      0.00
    8   17   14      1.05      0.00
    9   17   14     -0.38      0.00
   10   17   14     -0.17      0.00
   11   17   14     -1.64      0.00
    3   18   14     -3.08      0.00
    4   18   14     -0.20      0.00
    5   18   14      1.09      0.00
    6   18   14     -0.43      0.00
    7   18   14     -0.79      0.00
    8   18   14      0.21      0.00
    9   18   14      1.17      0.00
    0   -7   15     -2.18      0.00
    1   -7   15      0.75      0.00
    2   -7   15      2.16      0.00
    3   -7   15     -0.54      0.00
    4   -7   15      0.45      0.00
   -2   -6   15      1.35      0.00
   -1   -6   15     -2.03      0.00
    0   -6   15     -1.46      0.00
    1   -6   15      2.75      0.00
    2   -6   15      1.40      0.00
    3   -6   15     -0.10      0.00
    4   -6   15     -0.20      0.00
    5   -6   15     -1.09      0.00
    6   -6   15      0.49      0.00
   -4   -5   15     -0.01      0.00
   -3   -5   15      3.15      0.00
   -2   -5   15      0.79      0.00
   -1   -5   15     -1.66      0.00
    0   -5   15      0.88      0.00
    1   -5   15      2.16      0.00
    2   -5   15      1.30      0.00
    3   -5   15      1.00      0.00
    4   -5   15     -1.04      0.00
    5   -5   15     -0.04      0.00
    6   -5   15      1.01      0.00
    7   -5   15     -1.24      0.00
    8   -5   15     -0.03      0.00
   -5   -4   15      0.50      0.00
   -4   -4   15      0.20      0.00
   -3   -4   15      2.12      0.00
   -2   -4   15     -0.22      0.00
   -1   -4   15     -0.01      0.00
    0   -4   15      1.11      0.00
    1   -4   15      0.55      0.00
    2   -4   15      1.77      0.00
    3   -4   15      0.84      0.00
    4   -4   15     -0.21      0.00
    5   -4   15      1.69      0.00
    6   -4   15      0.10      0.00
    7   -4   15     -1.34      0.00
    8   -4   15      1.32      0.00
    9   -4   15     -0.74      0.00
   -5   -3   15      0.24      0.00
   -4   -3   15     -0.09      0.00
   -3   -3   15      0.92      0.00
   -2   -3   15     -0.72      0.00
   -1   -3   15      0.72      0.00
    0   -3   15      0.00      0.00
    1   -3   15     -0.56      0.00
    2   -3   15      0.61      0.00
    3   -3   15      0.33      0.00
    4   -3   15      2.07      0.00
    5   -3   15      2.25      0.00
    6   -3   15     -1.19      0.00
    7   -3   15     -0.18      0.00
    8   -3   15      1.39      0.00
    9   -3   15     -1.37      0.00
   10   -3   15     -1.12      0.00
   -6   -2   15      1.64      0.00
   -5   -2   15     -0.26      0.00
   -4   -2   15      0.08      0.00
   -3   -2   15      0.30      0.00
   -2   -2   15     -0.65      0.00
   -1   -2   15      0.53      0.00
    0   -2   15     -0.72      0.00
    1   -2   15     -1.17      0.00
    2   -2   15     -1.10      0.00
    3   -2   15      0.56      0.00
    4   -2   15      3.70      0.00
    5   -2   15      1.72      0.00
    6   -2   15     -2.13      0.00
    7   -2   15      0.20      0.00
    8   -2   15      0.67      0.00
    9   -2   15     -1.09      0.00
   10   -2   15     -1.39      0.00
   11   -2   15      0.90      0.00
   -6   -1   15      0.82      0.00
   -5   -1   15      0.09      0.00
   -4   -1   15     -0.07      0.00
   -3   -1   15      0.36      0.00
   -2   -1   15     -0.34      0.00
   -1   -1   15     -0.56      0.00
    0   -1   15     -0.20      0.00
    1   -1   15     -0.77      0.00
    2   -1   15     -2.24      0.00
    3   -1   15      0.87      0.00
    4   -1   15      4.27      0.00
    5   -1   15      1.16      0.00
    6   -1   15     -2.61      0.00
    7   -1   15     -0.05      0.00
    8   -1   15      0.23      0.00
    9   -1   15     -1.33      0.00
   10   -1   15     -1.21      0.00
   11   -1   15      0.84      0.00
   12   -1   15     -0.98      0.00
   -6    0   15      0.23      0.00
   -5    0   15      0.36      0.00
   -4    0   15     -0.08      0.00
   -3    0   15      0.94      0.00
   -2    0   15     -0.95      0.00
   -1    0   15     -1.38      0.00
    0    0   15      1.45      0.00
    1    0   15     -0.60      0.00
    2    0   15     -2.91      0.00
    3    0   15      1.13      0.00
    4    0   15      4.10      0.00
    5    0   15      0.52      0.00
    6    0   15     -2.20      0.00
    7    0   15      0.24      0.00
    8    0   15     -0.39      0.00
    9    0   15     -1.24      0.00
   10    0   15      0.20      0.00
   11    0   15     -0.28      0.00
   12    0   15     -0.96      0.00
   -7    1   15     -0.55      0.00
   -6    1   15     -0.45      0.00
   -5    1   15      0.50      0.00
   -4    1   15      0.82      0.00
   -3    1   15      0.86      0.00
   -2    1   15     -1.55      0.00
   -1    1   15     -0.79      0.00
    0    1   15      2.10      0.00
    1    1   15     -0.87      0.00
    2    1   15     -2.50      0.00
    3    1   15      0.90      0.00
    4    1   15      2.57      0.00
    5    1   15     -0.49      0.00
    6    1   15     -0.44      0.00
    7    1   15      1.05      0.00
    8    1   15     -0.84      0.00
    9    1   15      0.19      0.00
   10    1   15      0.30      0.00
   11    1   15     -1.36      0.00
   12    1   15      0.08      0.00
   13    1   15     -1.97      0.00
   -7    2   15     -0.89      0.00
   -6    2   15     -0.81      0.00
   -5    2   15      0.63      0.00
   -4    2   15      1.27      0.00
   -3    2   15      0.57      0.00
   -2    2   15     -1.18      0.00
   -1    2   15     -0.06      0.00
    0    2   15      1.74      0.00
    1    2   15      0.01      0.00
    2    2   15     -1.82      0.00
    3    2   15     -0.43      0.00
    4    2   15     -0.12      0.00
    5    2   15     -0.94      0.00
    6    2   15      1.98      0.00
    7    2   15      1.49      0.00
    8    2   15     -0.47      0.00
    9    2   15      0.83      0.00
   10    2   15     -1.15      0.00
   11    2   15     -0.42      0.00
   12    2   15      0.08      0.00
   13    2   15     -1.75      0.00
   -7    3   15     -0.56      0.00
   -6    3   15     -0.51      0.00
   -5    3   15     -0.55      0.00
   -4    3   15      1.16      0.00
   -3    3   15      0.72      0.00
   -2    3   15     -1.10      0.00
   -1    3   15      0.49      0.00
    0    3   15      1.80      0.00
    1    3   15      1.21      0.00
    2    3   15     -1.68      0.00
    3    3   15     -2.05      0.00
    4    3   15     -2.74      0.00
    5    3   15     -0.35      0.00
    6    3   15      3.09      0.00
    7    3   15      1.56      0.00
    8    3   15      0.18      0.00
    9    3   15     -0.10      0.00
   10    3   15     -1.48      0.00
   11    3   15      0.47      0.00
   12    3   15     -1.21      0.00
   13    3   15      0.28      0.00
   14    3   15      2.17      0.00
   -7    4   15      0.51      0.00
   -6    4   15     -0.73      0.00
   -5    4   15     -2.07      0.00
   -4    4   15      1.28      0.00
   -3    4   15      0.20      0.00
   -2    4   15     -1.00      0.00
   -1    4   15      1.12      0.00
    0    4   15      1.63      0.00
    1    4   15      1.72      0.00
    2    4   15     -1.12      0.00
    3    4   15     -3.21      0.00
    4    4   15     -4.67      0.00
    5    4   15     -0.36      0.00
    6    4   15      2.39      0.00
    7    4   15      1.85      0.00
    8    4   15      0.41      0.00
    9    4   15     -0.65      0.00
   10    4   15     -0.40      0.00
   11    4   15      0.31      0.00
   12    4   15     -1.22      0.00
   13    4   15      1.19      0.00
   14    4   15     -0.24      0.00
   -6    5   15     -1.11      0.00
   -5    5   15     -1.98      0.00
   -4    5   15      0.37      0.00
   -3    5   15     -0.64      0.00
   -2    5   15      0.12      0.00
   -1    5   15      0.90      0.00
    0    5   15      1.08      0.00
    1    5   15      2.08      0.00
    2    5   15      0.30      0.00
    3    5   15     -3.53      0.00
    4    5   15     -6.22      0.00
    5    5   15     -1.79      0.00
    6    5   15      1.21      0.00
    7    5   15      1.77      0.00
    8    5   15      0.28      0.00
    9    5   15      0.08      0.00
   10    5   15      1.16      0.00
   11    5   15      0.47      0.00
   12    5   15     -1.14      0.00
   13    5   15     -0.33      0.00
   14    5   15     -1.78      0.00
   -6    6   15     -0.58      0.00
   -5    6   15     -1.24      0.00
   -4    6   15     -1.70      0.00
   -3    6   15     -0.44      0.00
   -2    6   15      1.13      0.00
   -1    6   15      0.23      0.00
    0    6   15      0.73      0.00
    1    6   15      2.31      0.00
    2    6   15      2.16      0.00
    3    6   15     -2.74      0.00
    4    6   15     -6.69      0.00
    5    6   15     -3.04      0.00
    6    6   15      0.09      0.00
    7    6   15      1.05      0.00
    8    6   15      0.33      0.00
    9    6   15      1.43      0.00
   10    6   15      2.12      0.00
   11    6   15     -0.31      0.00
   12    6   15     -1.75      0.00
   13    6   15     -0.59      0.00
   14    6   15     -0.70      0.00
   15    6   15      0.57      0.00
   -6    7   15     -0.05      0.00
   -5    7   15     -0.85      0.00
   -4    7   15     -2.79      0.00
   -3    7   15      0.06      0.00
   -2    7   15      1.36      0.00
   -1    7   15      0.06      0.00
    0    7   15      0.18      0.00
    1    7   15      2.13      0.00
    2    7   15      3.31      0.00
    3    7   15     -0.57      0.00
    4    7   15     -4.61      0.00
    5    7   15     -3.47      0.00
    6    7   15     -0.71      0.00
    7    7   15      1.00      0.00
    8    7   15      0.65      0.00
    9    7   15      2.30      0.00
   10    7   15      1.16      0.00
   11    7   15     -1.32      0.00
   12    7   15     -0.81      0.00
   13    7   15      0.30      0.00
   14    7   15      0.20      0.00
   15    7   15      0.44      0.00
   -6    8   15     -0.02      0.00
   -5    8   15     -0.21      0.00
   -4    8   15     -2.34      0.00
   -3    8   15      0.06      0.00
   -2    8   15      1.44      0.00
   -1    8   15     -0.01      0.00
    0    8   15     -0.62      0.00
    1    8   15      1.00      0.00
    2    8   15      3.53      0.00
    3    8   15      3.05      0.00
    4    8   15     -1.83      0.00
    5    8   15     -3.92      0.00
    6    8   15      0.19      0.00
    7    8   15      1.65      0.00
    8    8   15      0.79      0.00
    9    8   15      2.28      0.00
   10    8   15      0.46      0.00
   11    8   15     -0.29      0.00
   12    8   15     -0.12      0.00
   13    8   15      0.06      0.00
   14    8   15      0.64      0.00
   15    8   15     -0.01      0.00
   -5    9   15      0.39      0.00
   -4    9   15     -1.03      0.00
   -3    9   15      0.16      0.00
   -2    9   15      1.29      0.00
   -1    9   15     -0.48      0.00
    0    9   15     -1.58      0.00
    1    9   15     -0.51      0.00
    2    9   15      4.38      0.00
    3    9   15      5.48      0.00
    4    9   15     -1.54      0.00
    5    9   15     -3.09      0.00
    6    9   15      2.22      0.00
    7    9   15      1.04      0.00
    8    9   15      0.81      0.00
    9    9   15      2.64      0.00
   10    9   15      1.59      0.00
   11    9   15      0.07      0.00
   12    9   15     -0.80      0.00
   13    9   15      0.68      0.00
   14    9   15      1.03      0.00
   15    9   15     -0.84      0.00
   -5   10   15      0.68      0.00
   -4   10   15      0.51      0.00
   -3   10   15      0.36      0.00
   -2   10   15      0.64      0.00
   -1   10   15     -1.24      0.00
    0   10   15     -2.30      0.00
    1   10   15     -0.86      0.00
    2   10   15      4.88      0.00
    3   10   15      4.25      0.00
    4   10   15     -1.81      0.00
    5   10   15     -0.04      0.00
    6   10   15      2.22      0.00
    7   10   15     -0.83      0.00
    8   10   15      1.51      0.00
    9   10   15      3.09      0.00
   10   10   15      1.33      0.00
   11   10   15     -1.09      0.00
   12   10   15     -0.09      0.00
   13   10   15      1.39      0.00
   14   10   15      0.44      0.00
   15   10   15     -0.91      0.00
   -4   11   15      1.19      0.00
   -3   11   15      0.50      0.00
   -2   11   15      0.12      0.00
   -1   11   15     -1.65      0.00
    0   11   15     -2.07      0.00
    1   11   15     -1.22      0.00
    2   11   15      3.21      0.00
    3   11   15      1.90      0.00
    4   11   15     -0.13      0.00
    5   11   15      2.28      0.00
    6   11   15      0.12      0.00
    7   11   15     -1.58      0.00
    8   11   15      1.92      0.00
    9   11   15      1.47      0.00
   10   11   15     -0.32      0.00
   11   11   15     -0.48      0.00
   12   11   15      0.25      0.00
   13   11   15      0.10      0.00
   14   11   15      0.51      0.00
   -4   12   15      1.03      0.00
   -3   12   15      0.79      0.00
   -2   12   15      0.30      0.00
   -1   12   15     -1.09      0.00
    0   12   15     -1.45      0.00
    1   12   15     -2.59      0.00
    2   12   15      1.24      0.00
    3   12   15      0.57      0.00
    4   12   15      1.46      0.00
    5   12   15      2.26      0.00
    6   12   15     -0.91      0.00
    7   12   15     -1.36      0.00
    8   12   15      0.35      0.00
    9   12   15     -0.97      0.00
   10   12   15     -0.02      0.00
   11   12   15      0.53      0.00
   12   12   15     -1.30      0.00
   13   12   15     -0.26      0.00
   14   12   15      1.29      0.00
   -3   13   15      0.69      0.00
   -2   13   15      1.02      0.00
   -1   13   15     -0.03      0.00
    0   13   15     -0.93      0.00
    1   13   15     -2.93      0.00
    2   13   15      0.39      0.00
    3   13   15     -0.49      0.00
    4   13   15      1.84      0.00
    5   13   15      1.33      0.00
    6   13   15     -0.52      0.00
    7   13   15     -1.68      0.00
    8   13   15     -2.02      0.00
    9   13   15     -1.85      0.00
   10   13   15      0.95      0.00
   11   13   15      0.05      0.00
   12   13   15     -1.20      0.00
   13   13   15      0.34      0.00
   14   13   15      0.82      0.00
   -2   14   15      1.49      0.00
   -1   14   15      0.58      0.00
    0   14   15     -0.54      0.00
    1   14   15     -1.75      0.00
    2   14   15      0.02      0.00
    3   14   15     -0.38      0.00
    4   14   15      1.84      0.00
    5   14   15      0.32      0.00
    6   14   15      0.22      0.00
    7   14   15     -1.89      0.00
    8   14   15     -3.54      0.00
    9   14   15     -1.55      0.00
   10   14   15      0.65      0.00
   11   14   15     -0.30      0.00
   12   14   15     -0.36      0.00
   13   14   15     -0.61      0.00
   -1   15   15      0.50      0.00
    0   15   15     -0.93      0.00
    1   15   15     -0.39      0.00
    2   15   15      0.03      0.00
    3   15   15      0.92      0.00
    4   15   15      1.29      0.00
    5   15   15      0.23      0.00
    6   15   15      1.15      0.00
    7   15   15     -1.74      0.00
    8   15   15     -3.48      0.00
    9   15   15     -0.35      0.00
   10   15   15     -0.37      0.00
   11   15   15     -0.93      0.00
   12   15   15     -1.19      0.00
   13   15   15     -0.92      0.00
    0   16   15     -1.68      0.00
    1   16   15      0.38      0.00
    2   16   15     -0.17      0.00
    3   16   15      1.56      0.00
    4   16   15      0.55      0.00
    5   16   15      1.13      0.00
    6   16   15      1.17      0.00
    7   16   15     -1.33      0.00
    8   16   15     -1.47      0.00
    9   16   15      0.53      0.00
   10   16   15     -1.63      0.00
   11   16   15     -1.63      0.00
   12   16   15     -1.35      0.00
    2   17   15     -0.37      0.00
    3   17   15      1.17      0.00
    4   17   15     -0.12      0.00
    5   17   15      1.32      0.00
    6   17   15      0.44      0.00
    7   17   15     -0.43      0.00
    8   17   15      0.03      0.00
    9   17   15     -0.25      0.00
   10   17   15     -1.36      0.00
    5   18   15      0.88      0.00
    6   18   15      0.21      0.00
    7   18   15     -0.30      0.00
    8   18   15     -0.32      0.00
    1   -6   16     -0.48      0.00
    2   -6   16      1.42      0.00
    3   -6   16      0.00      0.00
   -1   -5   16     -1.11      0.00
    0   -5   16     -1.58      0.00
    1   -5   16      1.19      0.00
    2   -5   16      1.41      0.00
    3   -5   16     -0.17      0.00
    4   -5   16      0.17      0.00
    5   -5   16     -0.82      0.00
    6   -5   16     -0.24      0.00
   -3   -4   16      1.40      0.00
   -2   -4   16      2.63      0.00
   -1   -4   16     -1.13      0.00
    0   -4   16      0.01      0.00
    1   -4   16      1.88      0.00
    2   -4   16      1.03      0.00
    3   -4   16      0.63      0.00
    4   -4   16     -0.16      0.00
    5   -4   16     -0.72      0.00
    6   -4   16      0.50      0.00
    7   -4   16     -0.08      0.00
    8   -4   16     -0.79      0.00
   -4   -3   16     -0.96      0.00
   -3   -3   16      1.34      0.00
   -2   -3   16      1.66      0.00
   -1   -3   16     -0.93      0.00
    0   -3   16      1.27      0.00
    1   -3   16      1.20      0.00
    2   -3   16      0.52      0.00
    3   -3   16      0.97      0.00
    4   -3   16      0.18      0.00
    5   -3   16      0.51      0.00
    6   -3   16      1.00      0.00
    7   -3   16     -0.27      0.00
    8   -3   16      0.28      0.00
    9   -3   16     -0.05      0.00
   -4   -2   16     -0.96      0.00
   -3   -2   16      0.75      0.00
   -2   -2   16      0.25      0.00
   -1   -2   16     -0.45      0.00
    0   -2   16      1.37      0.00
    1   -2   16     -0.35      0.00
    2   -2   16     -0.57      0.00
    3   -2   16      0.69      0.00
    4   -2   16      1.34      0.00
    5   -2   16      1.68      0.00
    6   -2   16      1.00      0.00
    7   -2   16     -0.17      0.00
    8   -2   16      0.70      0.00
    9   -2   16     -0.62      0.00
   10   -2   16     -0.04      0.00
   -5   -1   16      0.35      0.00
   -4   -1   16     -0.56      0.00
   -3   -1   16     -0.11      0.00
   -2   -1   16      0.11      0.00
   -1   -1   16      0.00      0.00
    0   -1   16      0.18      0.00
    1   -1   16     -1.18      0.00
    2   -1   16     -1.37      0.00
    3   -1   16      0.23      0.00
    4   -1   16      2.31      0.00
    5   -1   16      2.22      0.00
    6   -1   16      0.54      0.00
    7   -1   16     -0.76      0.00
    8   -1   16      0.44      0.00
    9   -1   16     -0.69      0.00
   10   -1   16     -0.64      0.00
   11   -1   16      0.52      0.00
   -5    0   16      0.55      0.00
   -4    0   16     -0.79      0.00
   -3    0   16      0.05      0.00
   -2    0   16      0.82      0.00
   -1    0   16     -0.89      0.00
    0    0   16     -0.51      0.00
    1    0   16     -0.38      0.00
    2    0   16     -2.00      0.00
    3    0   16     -0.29      0.00
    4    0   16      3.02      0.00
    5    0   16      2.71      0.00
    6    0   16     -0.39      0.00
    7    0   16     -1.58      0.00
    8    0   16      0.26      0.00
    9    0   16     -1.17      0.00
   10    0   16     -0.63      0.00
   11    0   16      1.13      0.00
   12    0   16     -0.82      0.00
   -5    1   16      0.21      0.00
   -4    1   16     -0.46      0.00
   -3    1   16      1.04      0.00
   -2    1   16      0.28      0.00
   -1    1   16     -1.77      0.00
    0    1   16      0.23      0.00
    1    1   16      0.00      0.00
    2    1   16     -2.53      0.00
    3    1   16     -0.34      0.00
    4    1   16      3.66      0.00
    5    1   16      2.62      0.00
    6    1   16     -1.39      0.00
    7    1   16     -1.07      0.00
    8    1   16      0.14      0.00
    9    1   16     -1.41      0.00
   10    1   16      0.48      0.00
   11    1   16     -0.06      0.00
   12    1   16     -1.25      0.00
   -6    2   16     -0.75      0.00
   -5    2   16      0.29      0.00
   -4    2   16      0.71      0.00
   -3    2   16      1.13      0.00
   -2    2   16     -0.36      0.00
   -1    2   16     -1.34      0.00
    0    2   16      0.51      0.00
    1    2   16     -0.41      0.00
    2    2   16     -2.02      0.00
    3    2   16     -0.31      0.00
    4    2   16      3.21      0.00
    5    2   16      1.17      0.00
    6    2   16     -0.95      0.00
    7    2   16      0.75      0.00
    8    2   16     -0.15      0.00
    9    2   16     -0.74      0.00
   10    2   16      0.84      0.00
   11    2   16     -1.47      0.00
   12    2   16     -0.26      0.00
   13    2   16     -1.76      0.00
   -6    3   16     -1.26      0.00
   -5    3   16      0.63      0.00
   -4    3   16      0.79      0.00
   -3    3   16      1.22      0.00
   -2    3   16      0.03      0.00
   -1    3   16     -1.03      0.00
    0    3   16      0.43      0.00
    1    3   16      0.07      0.00
    2    3   16     -1.06      0.00
    3    3   16     -0.96      0.00
    4    3   16      1.19      0.00
    5    3   16     -0.14      0.00
    6    3   16      1.05      0.00
    7    3   16      1.81      0.00
    8    3   16     -0.35      0.00
    9    3   16     -0.20      0.00
   10    3   16      0.11      0.00
   11    3   16     -1.33      0.00
   12    3   16     -0.10      0.00
   13    3   16     -2.19      0.00
   -6    4   16     -0.73      0.00
   -5    4   16     -0.45      0.00
   -4    4   16      0.15      0.00
   -3    4   16      2.10      0.00
   -2    4   16     -0.24      0.00
   -1    4   16     -0.92      0.00
    0    4   16      1.01      0.00
    1    4   16      1.14      0.00
    2    4   16     -0.38      0.00
    3    4   16     -1.94      0.00
    4    4   16     -1.08      0.00
    5    4   16     -0.28      0.00
    6    4   16      2.25      0.00
    7    4   16      1.79      0.00
    8    4   16     -0.08      0.00
    9    4   16     -0.44      0.00
   10    4   16     -0.58      0.00
   11    4   16     -0.91      0.00
   12    4   16     -0.66      0.00
   13    4   16     -0.66      0.00
   14    4   16      2.24      0.00
   -5    5   16     -2.13      0.00
   -4    5   16      0.11      0.00
   -3    5   16      1.94      0.00
   -2    5   16     -0.97      0.00
   -1    5   16     -0.29      0.00
    0    5   16      1.25      0.00
    1    5   16      2.02      0.00
    2    5   16      0.34      0.00
    3    5   16     -2.32      0.00
    4    5   16     -2.75      0.00
    5    5   16     -1.15      0.00
    6    5   16      1.89      0.00
    7    5   16      2.02      0.00
    8    5   16      0.22      0.00
    9    5   16     -0.89      0.00
   10    5   16     -0.64      0.00
   11    5   16     -0.33      0.00
   12    5   16     -0.53      0.00
   13    5   16     -0.06      0.00
   14    5   16      0.65      0.00
   -5    6   16     -2.66      0.00
   -4    6   16     -0.30      0.00
   -3    6   16      0.51      0.00
   -2    6   16     -0.65      0.00
   -1    6   16      0.10      0.00
    0    6   16      0.81      0.00
    1    6   16      2.60      0.00
    2    6   16      1.54      0.00
    3    6   16     -1.71      0.00
    4    6   16     -4.66      0.00
    5    6   16     -3.20      0.00
    6    6   16      1.28      0.00
    7    6   16      1.98      0.00
    8    6   16      0.02      0.00
    9    6   16     -0.75      0.00
   10    6   16      0.56      0.00
   11    6   16      0.40      0.00
   12    6   16     -1.11      0.00
   13    6   16     -0.99      0.00
   14    6   16     -0.38      0.00
   -5    7   16     -2.29      0.00
   -4    7   16     -1.36      0.00
   -3    7   16     -0.60      0.00
   -2    7   16      0.01      0.00
   -1    7   16      0.24      0.00
    0    7   16      0.25      0.00
    1    7   16      2.84      0.00
    2    7   16      3.01      0.00
    3    7   16     -1.13      0.00
    4    7   16     -5.78      0.00
    5    7   16     -4.16      0.00
    6    7   16      0.06      0.00
    7    7   16      1.17      0.00
    8    7   16     -0.15      0.00
    9    7   16      0.19      0.00
   10    7   16      1.83      0.00
   11    7   16     -0.30      0.00
   12    7   16     -1.80      0.00
   13    7   16     -0.72      0.00
   14    7   16      0.03      0.00
   -5    8   16     -1.46      0.00
   -4    8   16     -1.86      0.00
   -3    8   16     -1.17      0.00
   -2    8   16      0.16      0.00
   -1    8   16      0.76      0.00
    0    8   16     -0.34      0.00
    1    8   16      2.61      0.00
    2    8   16      3.15      0.00
    3    8   16     -0.27      0.00
    4    8   16     -3.67      0.00
    5    8   16     -4.40      0.00
    6    8   16     -1.82      0.00
    7    8   16      1.34      0.00
    8    8   16      0.06      0.00
    9    8   16      1.01      0.00
   10    8   16      1.65      0.00
   11    8   16     -0.79      0.00
   12    8   16     -1.11      0.00
   13    8   16     -0.20      0.00
   14    8   16      0.24      0.00
   -4    9   16     -1.41      0.00
   -3    9   16     -1.38      0.00
   -2    9   16      0.22      0.00
   -1    9   16      1.28      0.00
    0    9   16     -1.09      0.00
    1    9   16      1.32      0.00
    2    9   16      2.33      0.00
    3    9   16      2.45      0.00
    4    9   16     -0.87      0.00
    5    9   16     -5.60      0.00
    6    9   16     -1.59      0.00
    7    9   16      2.57      0.00
    8    9   16      0.02      0.00
    9    9   16      1.47      0.00
   10    9   16      2.00      0.00
   11    9   16      0.31      0.00
   12    9   16     -1.30      0.00
   13    9   16     -0.20      0.00
   14    9   16      0.61      0.00
   -4   10   16     -0.26      0.00
   -3   10   16     -1.09      0.00
   -2   10   16      0.31      0.00
   -1   10   16      1.08      0.00
    0   10   16     -2.07      0.00
    1   10   16     -0.07      0.00
    2   10   16      2.75      0.00
    3   10   16      4.73      0.00
    4   10   16     -1.02      0.00
    5   10   16     -5.29      0.00
    6   10   16      0.88      0.00
    7   10   16      2.05      0.00
    8   10   16     -0.07      0.00
    9   10   16      2.81      0.00
   10   10   16      3.53      0.00
   11   10   16      0.12      0.00
   12   10   16     -1.89      0.00
   13   10   16      0.86      0.00
   14   10   16      0.62      0.00
   -3   11   16     -0.64      0.00
   -2   11   16      0.28      0.00
   -1   11   16      0.21      0.00
    0   11   16     -2.61      0.00
    1   11   16     -0.23      0.00
    2   11   16      3.10      0.00
    3   11   16      4.15      0.00
    4   11   16     -1.67      0.00
    5   11   16     -2.07      0.00
    6   11   16      1.70      0.00
    7   11   16     -0.32      0.00
    8   11   16      0.69      0.00
    9   11   16      4.29      0.00
   10   11   16      3.17      0.00
   11   11   16     -1.01      0.00
   12   11   16     -0.55      0.00
   13   11   16      0.78      0.00
   14   11   16     -0.16      0.00
   -3   12   16      0.08      0.00
   -2   12   16      0.19      0.00
   -1   12   16     -0.47      0.00
    0   12   16     -2.26      0.00
    1   12   16     -0.50      0.00
    2   12   16      1.79      0.00
    3   12   16      2.89      0.00
    4   12   16     -0.78      0.00
    5   12   16      0.87      0.00
    6   12   16      0.45      0.00
    7   12   16     -1.78      0.00
    8   12   16      1.37      0.00
    9   12   16      3.71      0.00
   10   12   16      1.24      0.00
   11   12   16     -0.20      0.00
   12   12   16     -0.01      0.00
   13   12   16     -1.18      0.00
   14   12   16      0.19      0.00
   -2   13   16      0.10      0.00
   -1   13   16     -0.34      0.00
    0   13   16     -1.57      0.00
    1   13   16     -1.33      0.00
    2   13   16      0.59      0.00
    3   13   16      1.65      0.00
    4   13   16     -0.28      0.00
    5   13   16      2.09      0.00
    6   13   16     -0.31      0.00
    7   13   16     -1.96      0.00
    8   13   16      0.79      0.00
    9   13   16      1.54      0.00
   10   13   16      0.45      0.00
   11   13   16      1.02      0.00
   12   13   16     -1.03      0.00
   13   13   16     -1.33      0.00
   -1   14   16      0.18      0.00
    0   14   16     -0.60      0.00
    1   14   16     -1.32      0.00
    2   14   16      0.25      0.00
    3   14   16     -0.41      0.00
    4   14   16      0.05      0.00
    5   14   16      2.08      0.00
    6   14   16     -0.44      0.00
    7   14   16     -1.58      0.00
    8   14   16     -0.51      0.00
    9   14   16     -0.80      0.00
   10   14   16      0.62      0.00
   11   14   16      1.18      0.00
   12   14   16     -0.54      0.00
   13   14   16     -0.43      0.00
    0   15   16      0.44      0.00
    1   15   16     -0.71      0.00
    2   15   16      0.25      0.00
    3   15   16     -1.53      0.00
    4   15   16      1.03      0.00
    5   15   16      0.88      0.00
    6   15   16      0.08      0.00
    7   15   16     -0.86      0.00
    8   15   16     -2.13      0.00
    9   15   16     -2.11      0.00
   10   15   16      0.96      0.00
   11   15   16      0.85      0.00
   12   15   16      0.14      0.00
    2   16   16      0.36      0.00
    3   16   16     -1.08      0.00
    4   16   16      1.74      0.00
    5   16   16      0.20      0.00
    6   16   16      1.13      0.00
    7   16   16     -0.86      0.00
    8   16   16     -2.75      0.00
    9   16   16     -1.22      0.00
   10   16   16      0.65      0.00
   11   16   16     -0.31      0.00
    4   17   16      1.76      0.00
    5   17   16      0.62      0.00
    6   17   16      1.10      0.00
    7   17   16     -0.94      0.00
    8   17   16     -1.42      0.00
    9   17   16     -0.12      0.00
    0   -4   17     -1.76      0.00
    1   -4   17      0.35      0.00
    2   -4   17      1.17      0.00
    3   -4   17     -0.85      0.00
    4   -4   17     -0.57      0.00
    5   -4   17     -0.40      0.00
   -2   -3   17      2.12      0.00
   -1   -3   17      0.64      0.00
    0   -3   17     -1.33      0.00
    1   -3   17      1.79      0.00
    2   -3   17      1.37      0.00
    3   -3   17     -0.67      0.00
    4   -3   17     -0.39      0.00
    5   -3   17     -0.77      0.00
    6   -3   17     -0.48      0.00
    7   -3   17      0.63      0.00
   -3   -2   17     -0.23      0.00
   -2   -2   17      1.57      0.00
   -1   -2   17     -0.23      0.00
    0   -2   17     -0.08      0.00
    1   -2   17      2.36      0.00
    2   -2   17      0.59      0.00
    3   -2   17     -0.27      0.00
    4   -2   17      0.11      0.00
    5   -2   17     -0.26      0.00
    6   -2   17      0.09      0.00
    7   -2   17      1.27      0.00
    8   -2   17      0.34      0.00
    9   -2   17     -0.13      0.00
   -3   -1   17     -0.44      0.00
   -2   -1   17      0.13      0.00
   -1   -1   17     -0.31      0.00
    0   -1   17      0.80      0.00
    1   -1   17      1.18      0.00
    2   -1   17     -0.55      0.00
    3   -1   17     -0.02      0.00
    4   -1   17      0.72      0.00
    5   -1   17      0.42      0.00
    6   -1   17      0.67      0.00
    7   -1   17      1.54      0.00
    8   -1   17      0.39      0.00
    9   -1   17     -0.37      0.00
   10   -1   17     -0.37      0.00
   -4    0   17     -0.18      0.00
   -3    0   17     -1.28      0.00
   -2    0   17      0.22      0.00
   -1    0   17      0.17      0.00
    0    0   17     -0.02      0.00
    1    0   17      0.14      0.00
    2    0   17     -0.90      0.00
    3    0   17     -0.23      0.00
    4    0   17      0.93      0.00
    5    0   17      1.08      0.00
    6    0   17      1.05      0.00
    7    0   17      0.54      0.00
    8    0   17      0.09      0.00
    9    0   17     -0.30      0.00
   10    0   17     -0.94      0.00
   11    0   17      1.00      0.00
   -4    1   17     -0.62      0.00
   -3    1   17     -0.94      0.00
   -2    1   17      1.22      0.00
   -1    1   17     -0.56      0.00
    0    1   17     -0.84      0.00
    1    1   17      0.43      0.00
    2    1   17     -1.19      0.00
    3    1   17     -0.80      0.00
    4    1   17      1.32      0.00
    5    1   17      2.37      0.00
    6    1   17      0.60      0.00
    7    1   17     -1.11      0.00
    8    1   17      0.21      0.00
    9    1   17     -0.57      0.00
   10    1   17     -1.22      0.00
   11    1   17      1.47      0.00
   -4    2   17     -0.16      0.00
   -3    2   17      0.33      0.00
   -2    2   17      0.77      0.00
   -1    2   17     -1.18      0.00
    0    2   17     -0.60      0.00
    1    2   17      0.24      0.00
    2    2   17     -1.71      0.00
    3    2   17     -0.95      0.00
    4    2   17      2.23      0.00
    5    2   17      3.24      0.00
    6    2   17     -0.56      0.00
    7    2   17     -1.21      0.00
    8    2   17      0.72      0.00
    9    2   17     -0.99      0.00
   10    2   17     -0.78      0.00
   11    2   17      0.62      0.00
   12    2   17     -1.01      0.00
   -4    3   17      1.15      0.00
   -3    3   17      0.65      0.00
   -2    3   17      0.30      0.00
   -1    3   17     -0.71      0.00
    0    3   17     -0.68      0.00
    1    3   17     -0.50      0.00
    2    3   17     -1.59      0.00
    3    3   17     -0.81      0.00
    4    3   17      2.29      0.00
    5    3   17      2.49      0.00
    6    3   17     -0.53      0.00
    7    3   17      0.26      0.00
    8    3   17      0.69      0.00
    9    3   17     -0.97      0.00
   10    3   17     -0.25      0.00
   11    3   17     -0.28      0.00
   12    3   17     -0.80      0.00
   -4    4   17      1.10      0.00
   -3    4   17      0.97      0.00
   -2    4   17      1.07      0.00
   -1    4   17     -0.83      0.00
    0    4   17     -0.68      0.00
    1    4   17     -0.38      0.00
    2    4   17     -0.93      0.00
    3    4   17     -1.08      0.00
    4    4   17      0.86      0.00
    5    4   17      1.71      0.00
    6    4   17      0.94      0.00
    7    4   17      1.00      0.00
    8    4   17      0.27      0.00
    9    4   17     -0.62      0.00
   10    4   17     -0.03      0.00
   11    4   17     -0.61      0.00
   12    4   17     -0.89      0.00
   13    4   17     -1.06      0.00
   -4    5   17     -0.10      0.00
   -3    5   17      2.14      0.00
   -2    5   17      1.24      0.00
   -1    5   17     -1.53      0.00
    0    5   17      0.12      0.00
    1    5   17      0.37      0.00
    2    5   17     -0.14      0.00
    3    5   17     -1.67      0.00
    4    5   17     -0.44      0.00
    5    5   17      1.63      0.00
    6    5   17      1.61      0.00
    7    5   17      1.05      0.00
    8    5   17      0.31      0.00
    9    5   17     -0.50      0.00
   10    5   17     -0.49      0.00
   11    5   17     -1.00      0.00
   12    5   17     -0.83      0.00
   13    5   17     -0.28      0.00
   -4    6   17     -0.96      0.00
   -3    6   17      2.43      0.00
   -2    6   17      0.59      0.00
   -1    6   17     -1.74      0.00
    0    6   17      0.64      0.00
    1    6   17      1.07      0.00
    2    6   17      0.68      0.00
    3    6   17     -1.33      0.00
    4    6   17     -1.02      0.00
    5    6   17      0.19      0.00
    6    6   17      1.32      0.00
    7    6   17      1.75      0.00
    8    6   17      0.51      0.00
    9    6   17     -0.85      0.00
   10    6   17     -1.14      0.00
   11    6   17     -0.77      0.00
   12    6   17     -0.49      0.00
   13    6   17     -0.38      0.00
   -4    7   17     -1.47      0.00
   -3    7   17      1.37      0.00
   -2    7   17      0.32      0.00
   -1    7   17     -1.70      0.00
    0    7   17      0.62      0.00
    1    7   17      1.29      0.00
    2    7   17      1.98      0.00
    3    7   17      0.09      0.00
    4    7   17     -2.64      0.00
    5    7   17     -2.21      0.00
    6    7   17      1.27      0.00
    7    7   17      1.99      0.00
    8    7   17      0.37      0.00
    9    7   17     -1.16      0.00
   10    7   17     -0.61      0.00
   11    7   17     -0.20      0.00
   12    7   17     -0.98      0.00
   13    7   17     -1.06      0.00
   14    7   17     -0.25      0.00
   -4    8   17     -1.66      0.00
   -3    8   17      0.09      0.00
   -2    8   17      0.04      0.00
   -1    8   17     -1.33      0.00
    0    8   17      0.59      0.00
    1    8   17      1.07      0.00
    2    8   17      3.54      0.00
    3    8   17      0.49      0.00
    4    8   17     -4.12      0.00
    5    8   17     -2.72      0.00
    6    8   17     -0.05      0.00
    7    8   17      1.11      0.00
    8    8   17      0.35      0.00
    9    8   17     -1.02      0.00
   10    8   17      0.41      0.00
   11    8   17     -0.35      0.00
   12    8   17     -1.05      0.00
   13    8   17     -0.98      0.00
   14    8   17     -0.08      0.00
   -3    9   17     -0.74      0.00
   -2    9   17     -0.62      0.00
   -1    9   17     -0.28      0.00
    0    9   17      0.52      0.00
    1    9   17      0.52      0.00
    2    9   17      3.53      0.00
    3    9   17      0.30      0.00
    4    9   17     -2.41      0.00
    5    9   17     -2.75      0.00
    6    9   17     -2.89      0.00
    7    9   17      1.29      0.00
    8    9   17      0.51      0.00
    9    9   17     -0.76      0.00
   10    9   17      0.78      0.00
   11    9   17      0.29      0.00
   12    9   17     -0.43      0.00
   13    9   17     -1.18      0.00
   14    9   17      0.17      0.00
   -3   10   17     -0.78      0.00
   -2   10   17     -1.18      0.00
   -1   10   17      0.75      0.00
    0   10   17      0.08      0.00
    1   10   17     -0.66      0.00
    2   10   17      2.50      0.00
    3   10   17      1.87      0.00
    4   10   17     -0.03      0.00
    5   10   17     -4.42      0.00
    6   10   17     -3.51      0.00
    7   10   17      2.59      0.00
    8   10   17      0.19      0.00
    9   10   17     -0.20      0.00
   10   10   17      1.79      0.00
   11   10   17      1.88      0.00
   12   10   17     -1.16      0.00
   13   10   17     -0.87      0.00
   -2   11   17     -1.26      0.00
   -1   11   17      0.99      0.00
    0   11   17     -0.64      0.00
    1   11   17     -1.54      0.00
    2   11   17      2.46      0.00
    3   11   17      3.45      0.00
    4   11   17     -0.03      0.00
    5   11   17     -4.91      0.00
    6   11   17     -1.35      0.00
    7   11   17      2.14      0.00
    8   11   17     -0.24      0.00
    9   11   17      1.40      0.00
   10   11   17      3.55      0.00
   11   11   17      1.82      0.00
   12   11   17     -1.61      0.00
   13   11   17      0.80      0.00
   -2   12   17     -0.72      0.00
   -1   12   17      0.48      0.00
    0   12   17     -1.06      0.00
    1   12   17     -1.37      0.00
    2   12   17      2.28      0.00
    3   12   17      3.38      0.00
    4   12   17     -0.06      0.00
    5   12   17     -3.02      0.00
    6   12   17      0.03      0.00
    7   12   17      0.04      0.00
    8   12   17     -0.14      0.00
    9   12   17      3.08      0.00
   10   12   17      3.81      0.00
   11   12   17      0.83      0.00
   12   12   17     -0.08      0.00
   13   12   17      0.69      0.00
   -1   13   17     -0.19      0.00
    0   13   17     -1.07      0.00
    1   13   17     -1.16      0.00
    2   13   17      1.07      0.00
    3   13   17      3.30      0.00
    4   13   17      0.38      0.00
    5   13   17     -1.15      0.00
    6   13   17      0.26      0.00
    7   13   17     -1.37      0.00
    8   13   17     -0.16      0.00
    9   13   17      3.43      0.00
   10   13   17      2.54      0.00
   11   13   17      0.90      0.00
   12   13   17      0.60      0.00
   13   13   17     -1.10      0.00
    0   14   17     -0.97      0.00
    1   14   17     -1.03      0.00
    2   14   17      0.20      0.00
    3   14   17      2.84      0.00
    4   14   17     -0.55      0.00
    5   14   17      0.40      0.00
    6   14   17      0.46      0.00
    7   14   17     -1.69      0.00
    8   14   17     -0.33      0.00
    9   14   17      2.40      0.00
   10   14   17      1.04      0.00
   11   14   17      1.27      0.00
   12   14   17      0.20      0.00
    1   15   17     -0.40      0.00
    2   15   17      0.03      0.00
    3   15   17      1.15      0.00
    4   15   17     -1.55      0.00
    5   15   17      1.55      0.00
    6   15   17      0.08      0.00
    7   15   17     -0.91      0.00
    8   15   17     -0.49      0.00
    9   15   17      0.16      0.00
   10   15   17      0.05      0.00
   11   15   17      1.52      0.00
    3   16   17     -0.28      0.00
    4   16   17     -1.16      0.00
    5   16   17      1.46      0.00
    6   16   17     -0.06      0.00
    7   16   17      0.16      0.00
    8   16   17     -1.34      0.00
    9   16   17     -1.65      0.00
   10   16   17      0.17      0.00
    3   -3   18     -0.42      0.00
    4   -3   18     -1.66      0.00
    0   -2   18     -0.97      0.00
    1   -2   18      0.35      0.00
    2   -2   18      2.05      0.00
    3   -2   18     -0.55      0.00
    4   -2   18     -1.30      0.00
    5   -2   18     -0.80      0.00
    6   -2   18     -0.88      0.00
    7   -2   18     -0.22      0.00
   -1   -1   18      0.10      0.00
    0   -1   18     -0.43      0.00
    1   -1   18      1.44      0.00
    2   -1   18      1.74      0.00
    3   -1   18     -0.44      0.00
    4   -1   18     -0.37      0.00
    5   -1   18     -0.67      0.00
    6   -1   18     -0.82      0.00
    7   -1   18      0.66      0.00
    8   -1   18      1.12      0.00
   -2    0   18     -1.03      0.00
   -1    0   18      0.12      0.00
    0    0   18      0.17      0.00
    1    0   18      1.04      0.00
    2    0   18      0.89      0.00
    3    0   18     -0.13      0.00
    4    0   18      0.36      0.00
    5    0   18     -0.61      0.00
    6    0   18     -0.35      0.00
    7    0   18      1.31      0.00
    8    0   18      0.79      0.00
    9    0   18      0.24      0.00
   -2    1   18     -0.63      0.00
   -1    1   18      0.69      0.00
    0    1   18     -0.50      0.00
    1    1   18      0.47      0.00
    2    1   18      0.54      0.00
    3    1   18     -0.12      0.00
    4    1   18      0.26      0.00
    5    1   18     -0.20      0.00
    6    1   18      0.45      0.00
    7    1   18      0.51      0.00
    8    1   18      0.16      0.00
    9    1   18      0.72      0.00
   10    1   18     -0.97      0.00
   -3    2   18     -0.72      0.00
   -2    2   18      0.54      0.00
   -1    2   18      0.08      0.00
    0    2   18     -1.00      0.00
    1    2   18      0.48      0.00
    2    2   18      0.08      0.00
    3    2   18     -0.54      0.00
    4    2   18      0.25      0.00
    5    2   18      1.39      0.00
    6    2   18      0.61      0.00
    7    2   18     -1.03      0.00
    8    2   18      0.21      0.00
    9    2   18      0.74      0.00
   10    2   18     -1.43      0.00
   11    2   18      0.03      0.00
   -3    3   18      0.49      0.00
   -2    3   18      0.32      0.00
   -1    3   18     -0.37      0.00
    0    3   18     -0.76      0.00
    1    3   18     -0.06      0.00
    2    3   18     -0.68      0.00
    3    3   18     -0.82      0.00
    4    3   18      0.85      0.00
    5    3   18      2.62      0.00
    6    3   18      0.16      0.00
    7    3   18     -1.05      0.00
    8    3   18      0.63      0.00
    9    3   18      0.15      0.00
   10    3   18     -1.52      0.00
   11    3   18     -0.39      0.00
   -3    4   18      0.86      0.00
   -2    4   18      0.18      0.00
   -1    4   18      0.13      0.00
    0    4   18     -1.02      0.00
    1    4   18     -0.59      0.00
    2    4   18     -1.12      0.00
    3    4   18     -0.90      0.00
    4    4   18      0.72      0.00
    5    4   18      2.33      0.00
    6    4   18      0.80      0.00
    7    4   18      0.09      0.00
    8    4   18      0.35      0.00
    9    4   18     -0.30      0.00
   10    4   18     -0.91      0.00
   11    4   18     -0.31      0.00
   12    4   18     -0.49      0.00
   -3    5   18      0.94      0.00
   -2    5   18      1.32      0.00
   -1    5   18      0.05      0.00
    0    5   18     -1.31      0.00
    1    5   18     -0.15      0.00
    2    5   18     -1.04      0.00
    3    5   18     -1.29      0.00
    4    5   18     -0.51      0.00
    5    5   18      2.16      0.00
    6    5   18      2.15      0.00
    7    5   18      0.43      0.00
    8    5   18     -0.20      0.00
    9    5   18     -0.22      0.00
   10    5   18      0.00      0.00
   11    5   18     -0.27      0.00
   12    5   18     -0.96      0.00
   -3    6   18      1.41      0.00
   -2    6   18      2.12      0.00
   -1    6   18     -0.57      0.00
    0    6   18     -1.21      0.00
    1    6   18      0.77      0.00
    2    6   18     -0.61      0.00
    3    6   18     -1.94      0.00
    4    6   18     -0.82      0.00
    5    6   18      2.39      0.00
    6    6   18      2.23      0.00
    7    6   18      0.70      0.00
    8    6   18     -0.15      0.00
    9    6   18     -0.06      0.00
   10    6   18      0.03      0.00
   11    6   18     -0.90      0.00
   12    6   18     -1.04      0.00
   -3    7   18      1.35      0.00
   -2    7   18      2.12      0.00
   -1    7   18     -0.99      0.00
    0    7   18     -1.42      0.00
    1    7   18      1.57      0.00
    2    7   18     -0.29      0.00
    3    7   18     -1.34      0.00
    4    7   18     -0.04      0.00
    5    7   18      0.77      0.00
    6    7   18      1.87      0.00
    7    7   18      1.93      0.00
    8    7   18      0.27      0.00
    9    7   18     -0.18      0.00
   10    7   18     -0.84      0.00
   11    7   18     -1.32      0.00
   12    7   18     -1.06      0.00
   13    7   18     -0.20      0.00
   -2    8   18      1.91      0.00
   -1    8   18     -1.38      0.00
    0    8   18     -1.47      0.00
    1    8   18      1.67      0.00
    2    8   18      0.36      0.00
    3    8   18      0.63      0.00
    4    8   18     -0.90      0.00
    5    8   18     -1.66      0.00
    6    8   18      2.28      0.00
    7    8   18      2.29      0.00
    8    8   18      0.78      0.00
    9    8   18     -0.65      0.00
   10    8   18     -1.28      0.00
   11    8   18     -1.31      0.00
   12    8   18     -1.28      0.00
   13    8   18     -0.34      0.00
   -2    9   18      1.27      0.00
   -1    9   18     -1.44      0.00
    0    9   18     -0.74      0.00
    1    9   18      1.04      0.00
    2    9   18      1.40      0.00
    3    9   18      1.41      0.00
    4    9   18     -2.50      0.00
    5    9   18     -1.85      0.00
    6    9   18      1.24      0.00
    7    9   18      1.11      0.00
    8    9   18      1.45      0.00
    9    9   18     -1.31      0.00
   10    9   18     -1.00      0.00
   11    9   18     -1.16      0.00
   12    9   18     -0.48      0.00
   13    9   18     -0.52      0.00
   -2   10   18      0.31      0.00
   -1   10   18     -0.92      0.00
    0   10   18      0.10      0.00
    1   10   18      0.10      0.00
    2   10   18      1.41      0.00
    3   10   18      1.14      0.00
    4   10   18     -1.71      0.00
    5   10   18     -1.49      0.00
    6   10   18     -1.82      0.00
    7   10   18      0.73      0.00
    8   10   18      1.75      0.00
    9   10   18     -1.70      0.00
   10   10   18     -0.57      0.00
   11   10   18     -0.07      0.00
   12   10   18      0.53      0.00
   13   10   18     -1.42      0.00
   -1   11   18     -0.34      0.00
    0   11   18      0.39      0.00
    1   11   18     -0.94      0.00
    2   11   18      0.67      0.00
    3   11   18      1.89      0.00
    4   11   18     -0.25      0.00
    5   11   18     -2.55      0.00
    6   11   18     -3.24      0.00
    7   11   18      1.39      0.00
    8   11   18      1.16      0.00
    9   11   18     -1.17      0.00
   10   11   18      0.41      0.00
   11   11   18      1.43      0.00
   12   11   18      0.09      0.00
    0   12   18      0.24      0.00
    1   12   18     -1.49      0.00
    2   12   18      0.58      0.00
    3   12   18      2.49      0.00
    4   12   18      0.16      0.00
    5   12   18     -2.75      0.00
    6   12   18     -2.39      0.00
    7   12   18      0.86      0.00
    8   12   18      0.37      0.00
    9   12   18      0.23      0.00
   10   12   18      1.80      0.00
   11   12   18      1.71      0.00
   12   12   18     -0.04      0.00
    1   13   18     -1.32      0.00
    2   13   18      0.51      0.00
    3   13   18      2.13      0.00
    4   13   18      1.33      0.00
    5   13   18     -1.90      0.00
    6   13   18     -1.62      0.00
    7   13   18     -0.46      0.00
    8   13   18     -0.13      0.00
    9   13   18      1.37      0.00
   10   13   18      2.55      0.00
   11   13   18      1.29      0.00
   12   13   18      1.00      0.00
    2   14   18     -0.02      0.00
    3   14   18      2.05      0.00
    4   14   18      2.42      0.00
    5   14   18     -1.68      0.00
    6   14   18     -0.64      0.00
    7   14   18     -1.15      0.00
    8   14   18     -0.68      0.00
    9   14   18      1.76      0.00
   10   14   18      2.40      0.00
   11   14   18      0.94      0.00
    3   15   18      1.83      0.00
    4   15   18      1.47      0.00
    5   15   18     -1.25      0.00
    6   15   18      0.59      0.00
    7   15   18     -1.26      0.00
    8   15   18     -0.72      0.00
    9   15   18      1.50      0.00
   10   15   18      1.41      0.00
    6   16   18      0.75      0.00
    7   16   18     -0.54      0.00
    3   -1   19      0.67      0.00
    4   -1   19     -1.33      0.00
    5   -1   19     -0.82      0.00
    1    0   19      0.42      0.00
    2    0   19      1.14      0.00
    3    0   19      0.69      0.00
    4    0   19     -0.34      0.00
    5    0   19     -0.62      0.00
    6    0   19     -1.29      0.00
    7    0   19     -0.02      0.00
    0    1   19      0.40      0.00
    1    1   19      0.28      0.00
    2    1   19      1.06      0.00
    3    1   19      0.69      0.00
    4    1   19      0.55      0.00
    5    1   19     -0.95      0.00
    6    1   19     -1.12      0.00
    7    1   19      0.63      0.00
    8    1   19      0.59      0.00
   -1    2   19      0.42      0.00
    0    2   19     -0.21      0.00
    1    2   19      0.15      0.00
    2    2   19      1.00      0.00
    3    2   19      0.52      0.00
    4    2   19      0.52      0.00
    5    2   19     -0.92      0.00
    6    2   19     -0.24      0.00
    7    2   19     -0.05      0.00
    8    2   19      0.01      0.00
    9    2   19      0.91      0.00
   -1    3   19      0.12      0.00
    0    3   19     -0.48      0.00
    1    3   19      0.06      0.00
    2    3   19      0.60      0.00
    3    3   19      0.10      0.00
    4    3   19      0.33      0.00
    5    3   19      0.30      0.00
    6    3   19      0.25      0.00
    7    3   19     -1.13      0.00
    8    3   19      0.15      0.00
    9    3   19      1.13      0.00
   10    3   19     -0.46      0.00
   -1    4   19     -0.14      0.00
    0    4   19     -0.29      0.00
    1    4   19     -0.56      0.00
    2    4   19      0.06      0.00
    3    4   19     -0.36      0.00
    4    4   19      0.47      0.00
    5    4   19      1.13      0.00
    6    4   19      0.43      0.00
    7    4   19     -0.75      0.00
    8    4   19      0.36      0.00
    9    4   19      0.49      0.00
   10    4   19     -1.05      0.00
   11    4   19     -1.15      0.00
   -1    5   19      0.31      0.00
    0    5   19     -0.57      0.00
    1    5   19     -0.84      0.00
    2    5   19     -0.23      0.00
    3    5   19     -0.66      0.00
    4    5   19     -0.18      0.00
    5    5   19      0.78      0.00
    6    5   19      1.46      0.00
    7    5   19      0.17      0.00
    8    5   19     -0.03      0.00
    9    5   19     -0.17      0.00
   10    5   19     -0.76      0.00
   11    5   19     -0.35      0.00
   -1    6   19      0.50      0.00
    0    6   19     -0.88      0.00
    1    6   19     -0.46      0.00
    2    6   19      0.06      0.00
    3    6   19     -1.17      0.00
    4    6   19     -1.66      0.00
    5    6   19      1.05      0.00
    6    6   19      2.37      0.00
    7    6   19      0.24      0.00
    8    6   19     -0.40      0.00
    9    6   19     -0.49      0.00
   10    6   19      0.29      0.00
   11    6   19      0.39      0.00
   -1    7   19      0.60      0.00
    0    7   19     -1.26      0.00
    1    7   19     -0.01      0.00
    2    7   19      0.79      0.00
    3    7   19     -2.14      0.00
    4    7   19     -1.65      0.00
    5    7   19      2.00      0.00
    6    7   19      1.70      0.00
    7    7   19      0.69      0.00
    8    7   19     -0.27      0.00
    9    7   19     -0.38      0.00
   10    7   19      0.88      0.00
   11    7   19      0.01      0.00
   12    7   19     -1.10      0.00
   -1    8   19      0.86      0.00
    0    8   19     -2.15      0.00
    1    8   19      0.47      0.00
    2    8   19      0.98      0.00
    3    8   19     -2.12      0.00
    4    8   19     -0.02      0.00
    5    8   19      1.04      0.00
    6    8   19      0.95      0.00
    7    8   19      2.25      0.00
    8    8   19      0.23      0.00
    9    8   19      0.16      0.00
   10    8   19      0.06      0.00
   11    8   19     -0.87      0.00
   12    8   19     -1.71      0.00
   -1    9   19      0.75      0.00
    0    9   19     -2.49      0.00
    1    9   19      0.69      0.00
    2    9   19      0.79      0.00
    3    9   19     -0.59      0.00
    4    9   19      0.14      0.00
    5    9   19     -1.15      0.00
    6    9   19      1.57      0.00
    7    9   19      2.82      0.00
    8    9   19      1.08      0.00
    9    9   19      0.36      0.00
   10    9   19     -1.24      0.00
   11    9   19     -1.30      0.00
   12    9   19     -1.95      0.00
    0   10   19     -1.64      0.00
    1   10   19      0.38      0.00
    2   10   19      0.84      0.00
    3   10   19      0.32      0.00
    4   10   19     -0.96      0.00
    5   10   19     -1.72      0.00
    6   10   19      1.42      0.00
    7   10   19      1.51      0.00
    8   10   19      2.01      0.00
    9   10   19     -0.18      0.00
   10   10   19     -1.80      0.00
   11   10   19     -1.13      0.00
   12   10   19     -1.01      0.00
    0   11   19     -0.61      0.00
    1   11   19     -0.08      0.00
    2   11   19      0.48      0.00
    3   11   19      0.34      0.00
    4   11   19     -0.82      0.00
    5   11   19     -1.63      0.00
    6   11   19     -0.41      0.00
    7   11   19      0.43      0.00
    8   11   19      2.29      0.00
    9   11   19     -0.78      0.00
   10   11   19     -1.53      0.00
   11   11   19     -0.42      0.00
    1   12   19     -0.44      0.00
    2   12   19     -0.24      0.00
    3   12   19      0.78      0.00
    4   12   19     -0.36      0.00
    5   12   19     -1.92      0.00
    6   12   19     -1.47      0.00
    7   12   19      0.16      0.00
    8   12   19      1.48      0.00
    9   12   19     -0.58      0.00
   10   12   19     -0.65      0.00
   11   12   19      0.24      0.00
    2   13   19     -0.46      0.00
    3   13   19      1.01      0.00
    4   13   19     -0.25      0.00
    5   13   19     -1.08      0.00
    6   13   19     -1.55      0.00
    7   13   19     -0.54      0.00
    8   13   19      0.39      0.00
    9   13   19      0.26      0.00
   10   13   19      0.34      0.00
    4   14   19      0.81      0.00
    5   14   19      0.10      0.00
    6   14   19     -1.85      0.00
    7   14   19     -1.13      0.00
    8   14   19     -0.34      0.00
    9   14   19      0.65      0.00
    2    2   20      0.57      0.00
    3    2   20      0.84      0.00
    4    2   20      0.68      0.00
    5    2   20     -0.10      0.00
    6    2   20     -1.53      0.00
    7    2   20      0.19      0.00
    1    3   20      0.14      0.00
    2    3   20      0.63      0.00
    3    3   20      0.82      0.00
    4    3   20      0.59      0.00
    5    3   20     -0.19      0.00
    6    3   20     -0.99      0.00
    7    3   20     -0.32      0.00
    8    3   20     -0.08      0.00
    1    4   20     -0.11      0.00
    2    4   20      0.35      0.00
    3    4   20      0.58      0.00
    4    4   20      0.43      0.00
    5    4   20      0.48      0.00
    6    4   20     -0.57      0.00
    7    4   20     -0.84      0.00
    8    4   20     -0.04      0.00
    9    4   20      0.82      0.00
    1    5   20     -0.67      0.00
    2    5   20      0.11      0.00
    3    5   20      0.11      0.00
    4    5   20      0.56      0.00
    5    5   20      0.60      0.00
    6    5   20     -0.14      0.00
    7    5   20     -0.27      0.00
    8    5   20     -0.26      0.00
    9    5   20      0.49      0.00
    1    6   20     -0.72      0.00
    2    6   20     -0.03      0.00
    3    6   20     -0.06      0.00
    4    6   20     -0.02      0.00
    5    6   20     -0.21      0.00
    6    6   20      0.95      0.00
    7    6   20      0.14      0.00
    8    6   20     -0.69      0.00
    9    6   20      0.10      0.00
   10    6   20     -0.84      0.00
    1    7   20     -0.62      0.00
    2    7   20      0.32      0.00
    3    7   20     -0.04      0.00
    4    7   20     -1.62      0.00
    5    7   20      0.06      0.00
    6    7   20      1.74      0.00
    7    7   20     -0.39      0.00
    8    7   20     -0.73      0.00
    9    7   20     -0.50      0.00
   10    7   20     -0.11      0.00
    1    8   20     -0.97      0.00
    2    8   20      1.17      0.00
    3    8   20     -0.64      0.00
    4    8   20     -2.13      0.00
    5    8   20      1.68      0.00
    6    8   20      0.99      0.00
    7    8   20     -0.41      0.00
    8    8   20     -0.38      0.00
    9    8   20     -0.65      0.00
   10    8   20      0.89      0.00
    1    9   20     -1.18      0.00
    2    9   20      1.41      0.00
    3    9   20     -0.97      0.00
    4    9   20     -0.95      0.00
    5    9   20      1.89      0.00
    6    9   20     -0.08      0.00
    7    9   20      1.04      0.00
    8    9   20      0.23      0.00
    9    9   20      0.11      0.00
   10    9   20      0.61      0.00
    2   10   20      0.92      0.00
    3   10   20     -0.17      0.00
    4   10   20     -0.54      0.00
    5   10   20      0.40      0.00
    6   10   20      0.17      0.00
    7   10   20      2.22      0.00
    8   10   20      0.86      0.00
    9   10   20      0.91      0.00
   10   10   20     -0.58      0.00
    2   11   20      0.60      0.00
    3   11   20      0.43      0.00
    4   11   20     -1.09      0.00
    5   11   20     -0.64      0.00
    6   11   20      0.42      0.00
    7   11   20      1.68      0.00
    8   11   20      1.33      0.00
    9   11   20      1.09      0.00
   10   11   20     -1.34      0.00
    4   12   20     -0.91      0.00
    5   12   20     -1.32      0.00
    6   12   20     -0.18      0.00
    7   12   20      0.75      0.00
    8   12   20      1.39      0.00
    9   12   20      0.74      0.00
    5   13   20     -1.78      0.00
    6   13   20     -0.31      0.00
    7   13   20      0.17      0.00
    8   13   20      0.64      0.00
    5    5   21      0.64      0.00
    4    6   21      0.22      0.00
    5    6   21      0.65      0.00
    6    6   21     -0.09      0.00
    7    6   21     -0.07      0.00
    4    7   21      0.31      0.00
    5    7   21     -0.34      0.00
    6    7   21      0.64      0.00
    7    7   21      0.17      0.00
    4    8   21     -0.59      0.00
    5    8   21     -0.56      0.00
    6    8   21      1.66      0.00
    7    8   21     -0.64      0.00
    8    8   21     -1.26      0.00
    5    9   21      0.75      0.00
    6    9   21      1.66      0.00
    7    9   21     -1.37      0.00
    5   10   21      1.30      0.00
    6   10   21      0.82      0.00
    7   10   21     -0.50      0.00
    1    0    0      5.73      0.00
    0    1    0     96.02      0.00
    1    1    0    -22.73      0.00
  -15    2    0      0.05      0.00
    0    2    0     30.42      0.00
   16    2    0      0.91      0.00
   16    3    0      1.63      0.00
   16    4    0      1.84      0.00
  -14    5    0     -1.38      0.00
   16    5    0      0.63      0.00
  -13    7    0     -1.35      0.00
  -12    9    0     -0.50      0.00
   15   10    0      0.12      0.00
   14   12    0      0.16      0.00
   -6   15    0     -0.44      0.00
    9   17    0     -0.52      0.00
    1   18    0     -0.71      0.00
    2   18    0      0.18      0.00
    5   18    0      0.04      0.00
    6   18    0     -0.79      0.00
   -8  -17    1      0.06      0.00
    2  -17    1      1.04      0.00
    4  -16    1      0.27      0.00
  -11  -15    1      0.81      0.00
    6  -15    1      0.38      0.00
  -12  -14    1      1.11      0.00
    7  -14    1     -0.79      0.00
  -14  -11    1      0.43      0.00
   11  -10    1     -1.71      0.00
   12   -9    1      0.41      0.00
  -15   -8    1      0.12      0.00
   13   -7    1      0.74      0.00
   14   -5    1      0.52      0.00
   15   -3    1     -1.38      0.00
    0   -1    1    -24.02      0.00
    0    0    1     32.41      0.00
    0    1    1     89.48      0.00
    1    1    1     63.16      0.00
   16    1    1     -0.66      0.00
  -15    2    1     -1.68      0.00
   16    2    1     -0.08      0.00
  -14    5    1     -0.81      0.00
   16    6    1      1.34      0.00
  -13    7    1     -2.02      0.00
   16    7    1      0.12      0.00
  -11   10    1     -0.21      0.00
   15   11    1     -0.44      0.00
   14   13    1      0.33      0.00
   13   14    1     -0.87      0.00
    1   15    1     -0.22      0.00
   -5   16    1      0.31      0.00
   11   16    1      0.96      0.00
   -3   17    1     -0.37      0.00
   10   17    1     -0.28      0.00
    0   18    1     -0.93      0.00
    7   18    1      0.67      0.00
   -6  -17    2     -1.54      0.00
    0  -17    2      1.06      0.00
    1  -17    2      0.38      0.00
  -10  -15    2      0.27      0.00
    7  -14    2      0.35      0.00
  -12  -13    2      0.62      0.00
    8  -13    2     -0.45      0.00
  -13  -12    2      0.34      0.00
  -14  -10    2      0.80      0.00
   11  -10    2     -1.03      0.00
  -15   -7    2     -0.24      0.00
   13   -7    2      0.24      0.00
  -15   -6    2     -0.51      0.00
   15   -3    2     -1.26      0.00
  -15    0    2      0.50      0.00
   16    0    2      0.42      0.00
  -15    1    2     -0.16      0.00
    1    1    2     56.65      0.00
   16    1    2      0.00      0.00
  -14    4    2      0.67      0.00
   16    8    2     -0.24      0.00
   16    9    2     -0.21      0.00
  -11   10    2     -0.61      0.00
   -5   16    2     -0.91      0.00
   12   16    2      0.73      0.00
   -3   17    2      1.92      0.00
   -1   18    2     -0.05      0.00
    8   18    2      1.20      0.00
    4   19    2      0.56      0.00
   -4  -17    3     -0.67      0.00
   -3  -17    3      0.44      0.00
   -2  -17    3     -0.36      0.00
   -1  -17    3     -0.58      0.00
   -7  -16    3      1.37      0.00
   -9  -15    3      0.37      0.00
    5  -15    3      0.58      0.00
    8  -13    3      0.18      0.00
    9  -12    3     -1.46      0.00
  -13  -11    3      1.25      0.00
   10  -11    3      1.15      0.00
   11  -10    3     -0.02      0.00
  -14   -9    3      0.30      0.00
   13   -7    3      1.07      0.00
  -15   -4    3      0.50      0.00
  -15   -3    3      1.17      0.00
   15   -3    3      1.82      0.00
  -15   -2    3      1.34      0.00
  -15   -1    3      0.90      0.00
   16    0    3      0.99      0.00
  -14    4    3     -3.04      0.00
  -13    6    3      1.76      0.00
   16    9    3     -0.29      0.00
  -11   10    3     -0.21      0.00
   16   10    3     -0.54      0.00
   15   12    3     -0.24      0.00
   14   14    3      0.16      0.00
   -5   16    3     -1.38      0.00
   11   17    3      1.14      0.00
    3   18    3      0.91      0.00
    9   18    3      0.01      0.00
    2   19    3      1.83      0.00
    3   19    3      1.00      0.00
    4   19    3      2.06      0.00
    5   19    3     -0.71      0.00
    6   19    3      0.55      0.00
   -6  -16    4      1.38      0.00
   -5  -16    4      1.30      0.00
    1  -16    4      1.34      0.00
   -8  -15    4      0.63      0.00
    4  -15    4      0.41      0.00
    6  -14    4      0.25      0.00
  -14   -7    4      0.58      0.00
   13   -7    4     -0.49      0.00
   15   -3    4      0.67      0.00
   16    0    4      0.55      0.00
  -14    2    4     -0.05      0.00
  -14    3    4     -0.07      0.00
  -13    6    4      0.13      0.00
  -12    8    4      0.02      0.00
   16   10    4      0.07      0.00
  -10   11    4      1.00      0.00
   15   13    4      0.31      0.00
   -5   16    4     -2.03      0.00
   -2   18    4      1.53      0.00
   10   18    4     -0.16      0.00
    1   19    4     -1.41      0.00
    2   19    4      0.48      0.00
    7   19    4      0.35      0.00
   -3  -16    5     -0.70      0.00
   -2  -16    5      0.12      0.00
   -1  -16    5     -0.02      0.00
    3  -15    5      0.93      0.00
    5  -14    5      0.69      0.00
    7  -13    5      0.25      0.00
  -12  -10    5      1.07      0.00
  -13   -8    5     -0.26      0.00
   12   -8    5      0.82      0.00
   13   -7    5     -0.92      0.00
  -14   -5    5      0.56      0.00
   14   -5    5      2.09      0.00
  -14   -4    5      0.13      0.00
  -14   -3    5     -0.04      0.00
   15   -3    5     -0.85      0.00
  -14   -2    5      0.43      0.00
  -14   -1    5      0.53      0.00
  -14    0    5      0.24      0.00
   16    0    5      0.73      0.00
  -14    1    5     -0.12      0.00
  -13    5    5     -1.44      0.00
  -10   11    5     -0.57      0.00
   16   11    5      0.17      0.00
   14   15    5     -1.22      0.00
   -5   16    5     -1.76      0.00
   13   16    5      0.50      0.00
   12   17    5      1.27      0.00
   -2   18    5      0.48      0.00
    1   19    5     -0.71      0.00
    8   19    5     -0.38      0.00
   -5  -15    6     -0.62      0.00
   -4  -15    6      1.37      0.00
    1  -15    6     -0.76      0.00
   -7  -14    6      0.44      0.00
    4  -14    6      1.36      0.00
    6  -13    6     -0.51      0.00
  -10  -12    6      0.33      0.00
    9  -11    6     -0.36      0.00
   10  -10    6     -0.98      0.00
  -12   -9    6      0.02      0.00
   11   -9    6     -0.03      0.00
   12   -8    6      0.68      0.00
  -13   -6    6     -0.20      0.00
   14   -5    6     -0.22      0.00
   15   -3    6      0.75      0.00
   16    0    6     -0.72      0.00
  -13    4    6     -0.18      0.00
  -12    7    6     -0.68      0.00
  -11    9    6     -0.86      0.00
   -9   12    6      0.16      0.00
   16   12    6     -0.36      0.00
   -8   13    6      0.94      0.00
   15   14    6     -0.91      0.00
   -6   15    6     -0.18      0.00
   14   15    6     -0.26      0.00
   -5   16    6      0.23      0.00
   -2   18    6      1.05      0.00
   11   18    6     -0.56      0.00
    1   19    6     -0.15      0.00
    9   19    6     -0.21      0.00
   -5  -14    7     -0.92      0.00
    3  -14    7      0.29      0.00
    7  -12    7     -1.10      0.00
  -11   -9    7     -0.09      0.00
  -12   -7    7     -0.60      0.00
   13   -6    7      0.74      0.00
  -13   -4    7     -0.10      0.00
  -13   -3    7      0.05      0.00
  -13    0    7      0.00      0.00
   16    0    7      0.16      0.00
  -13    1    7     -0.11      0.00
  -13    2    7      0.41      0.00
  -12    6    7      0.33      0.00
  -11    8    7     -0.50      0.00
  -10   10    7     -0.11      0.00
   16   12    7      0.27      0.00
   -8   13    7      0.82      0.00
   -7   14    7     -1.49      0.00
   15   14    7      0.36      0.00
   -6   15    7     -1.11      0.00
   -5   16    7     -0.35      0.00
   -2   18    7      0.32      0.00
   11   18    7      0.10      0.00
    1   19    7     -1.33      0.00
    9   19    7      0.18      0.00
   -3  -14    8     -0.28      0.00
   -2  -14    8     -0.52      0.00
   -1  -14    8      0.51      0.00
    0  -14    8     -0.54      0.00
    1  -14    8     -0.81      0.00
   -6  -13    8     -0.20      0.00
    4  -13    8      1.24      0.00
    6  -12    8     -0.07      0.00
    8  -11    8     -1.52      0.00
    9  -10    8     -0.71      0.00
  -11   -8    8     -0.02      0.00
   12   -7    8      0.69      0.00
  -12   -5    8     -1.28      0.00
   14   -4    8      0.96      0.00
   15   -2    8      0.06      0.00
   16    0    8      1.71      0.00
  -12    4    8      0.70      0.00
  -11    7    8     -0.43      0.00
   -9   11    8      0.83      0.00
   16   12    8     -0.19      0.00
   15   14    8     -0.32      0.00
   -3   17    8     -0.98      0.00
   13   17    8     -0.25      0.00
    1   19    8     -0.21      0.00
   10   19    8     -0.25      0.00
   -3  -13    9     -1.16      0.00
    2  -13    9     -0.70      0.00
   -6  -12    9     -1.27      0.00
    5  -12    9      0.88      0.00
    7  -11    9     -1.31      0.00
  -10   -8    9     -0.11      0.00
  -11   -6    9      0.25      0.00
   13   -5    9      0.25      0.00
  -12   -2    9     -1.67      0.00
   15   -2    9      0.74      0.00
  -12   -1    9     -1.13      0.00
  -12    0    9     -0.37      0.00
  -12    1    9     -0.07      0.00
   16    1    9      1.70      0.00
  -12    2    9      0.24      0.00
  -11    6    9      1.35      0.00
   -8   12    9      1.40      0.00
   16   12    9     -1.04      0.00
   15   14    9     -0.42      0.00
   -4   16    9     -0.09      0.00
   14   16    9      0.44      0.00
   -3   17    9     -2.39      0.00
   13   17    9      0.96      0.00
   -1   18    9     -0.60      0.00
    1   19    9      0.36      0.00
   10   19    9      0.04      0.00
   -4  -12   10      2.13      0.00
   -3  -12   10     -0.45      0.00
    3  -12   10      0.50      0.00
   -6  -11   10     -1.68      0.00
    6  -11   10      1.59      0.00
   -7  -10   10     -0.01      0.00
   -8   -9   10      0.42      0.00
    9   -9   10     -1.95      0.00
   -9   -8   10     -0.48      0.00
   10   -8   10      0.39      0.00
   11   -7   10      0.26      0.00
  -10   -6   10      0.51      0.00
   12   -6   10     -0.01      0.00
  -11   -4   10      0.01      0.00
  -11   -3   10     -1.12      0.00
   14   -3   10     -1.00      0.00
   15   -1   10      0.93      0.00
   16    2   10      1.04      0.00
  -11    4   10      1.88      0.00
  -10    7   10      0.92      0.00
   16   12   10      0.18      0.00
   -6   14   10     -0.38      0.00
   15   14   10     -0.56      0.00
   -5   15   10      0.14      0.00
   -4   16   10     -0.16      0.00
   14   16   10      0.00      0.00
   13   17   10      0.06      0.00
   -1   18   10      0.65      0.00
    1   19   10      1.01      0.00
   10   19   10      0.15      0.00
   -4  -11   11      0.92      0.00
    4  -11   11      1.55      0.00
   -7   -9   11      0.64      0.00
    8   -9   11     -1.28      0.00
   -8   -8   11     -0.27      0.00
   -9   -6   11     -0.16      0.00
  -10   -4   11      0.55      0.00
   13   -4   11     -0.02      0.00
   16    2   11      0.66      0.00
   16    3   11      0.51      0.00
  -10    6   11      0.80      0.00
   -7   12   11      0.73      0.00
   16   12   11     -0.25      0.00
   15   14   11     -0.79      0.00
   14   16   11     -0.73      0.00
   -2   17   11      1.01      0.00
   13   17   11     -1.17      0.00
    0   18   11      0.60      0.00
    2   19   11      0.62      0.00
    9   19   11      2.06      0.00
   10   19   11      0.05      0.00
   -3  -10   12      1.82      0.00
    5  -10   12      0.17      0.00
   -5   -9   12     -1.09      0.00
    7   -9   12     -0.04      0.00
   -8   -6   12     -0.84      0.00
   -9   -4   12     -0.21      0.00
   13   -3   12      0.33      0.00
  -10   -1   12      0.62      0.00
  -10    0   12     -0.53      0.00
  -10    1   12     -1.47      0.00
  -10    2   12     -1.35      0.00
  -10    3   12     -0.42      0.00
   16    3   12      0.13      0.00
   16    4   12      0.14      0.00
   -9    7   12      0.32      0.00
   -7   11   12     -0.11      0.00
   16   11   12      0.18      0.00
   -5   14   12     -1.09      0.00
   15   14   12      0.12      0.00
   -4   15   12     -0.79      0.00
   -3   16   12      0.04      0.00
    0   18   12      0.54      0.00
   11   18   12     -0.94      0.00
    3   19   12      0.59      0.00
    9   19   12     -0.49      0.00
   -3   -9   13      0.06      0.00
    5   -9   13      0.32      0.00
   -5   -8   13     -0.42      0.00
    7   -8   13     -0.45      0.00
   -6   -7   13      0.64      0.00
   -7   -6   13     -0.22      0.00
   10   -6   13     -0.59      0.00
   11   -5   13      0.10      0.00
   -8   -4   13     -1.12      0.00
   12   -4   13      0.02      0.00
   -9   -1   13      1.15      0.00
   14   -1   13      0.73      0.00
   -9    0   13      0.62      0.00
   -9    1   13      0.09      0.00
   -9    2   13      0.01      0.00
   -9    3   13      0.10      0.00
   -9    4   13      0.17      0.00
   16    5   13     -0.53      0.00
   16    6   13      0.00      0.00
   -8    8   13     -0.34      0.00
   16    9   13     -1.39      0.00
   -7   10   13     -0.04      0.00
   16   10   13     -1.07      0.00
   16   11   13     -0.46      0.00
   -6   12   13     -0.51      0.00
   -5   13   13     -1.14      0.00
   15   13   13      0.18      0.00
   14   15   13     -0.42      0.00
   -2   16   13      0.42      0.00
   -1   17   13      1.49      0.00
   12   17   13     -0.53      0.00
    1   18   13      0.29      0.00
   11   18   13     -1.44      0.00
    4   19   13      0.95      0.00
    5   19   13     -0.01      0.00
    6   19   13     -0.28      0.00
    7   19   13      0.15      0.00
    8   19   13      0.03      0.00
    9   19   13      0.29      0.00
   -2   -8   14      0.09      0.00
    5   -8   14     -0.32      0.00
   -4   -7   14     -0.10      0.00
    7   -7   14      0.17      0.00
    9   -6   14     -0.47      0.00
   -6   -5   14      0.46      0.00
   10   -5   14     -1.03      0.00
   -7   -4   14     -0.68      0.00
   11   -4   14      1.64      0.00
   12   -3   14     -1.00      0.00
   -8   -1   14      0.19      0.00
   -8    0   14     -0.06      0.00
   14    0   14      0.34      0.00
   15    3   14     -0.11      0.00
   -8    5   14      0.27      0.00
   16    7   14      0.15      0.00
   16    8   14      0.01      0.00
   16    9   14     -0.46      0.00
   -5   12   14      0.24      0.00
   15   13   14      0.63      0.00
   14   15   14      1.17      0.00
   13   16   14      1.07      0.00
    0   17   14      0.83      0.00
   12   17   14      0.03      0.00
    2   18   14     -0.14      0.00
   10   18   14      0.30      0.00
    6   19   14     -0.61      0.00
    7   19   14     -0.38      0.00
   -2   -7   15      0.13      0.00
   -1   -7   15     -0.62      0.00
    5   -7   15     -0.60      0.00
   -3   -6   15      2.19      0.00
    7   -6   15      0.30      0.00
    9   -5   15     -0.10      0.00
   10   -4   15     -0.91      0.00
   -6   -3   15      1.39      0.00
   11   -3   15      0.89      0.00
   12   -2   15     -0.57      0.00
   -7   -1   15      0.29      0.00
   -7    0   15     -0.24      0.00
   13    0   15     -1.17      0.00
   14    2   15      1.90      0.00
   15    4   15     -1.24      0.00
   -7    5   15      0.90      0.00
   15    5   15     -0.33      0.00
   -7    6   15      0.61      0.00
   -6    9   15      0.10      0.00
   -5   11   15      0.85      0.00
   15   11   15      0.25      0.00
   15   12   15      0.75      0.00
   14   14   15      0.67      0.00
    1   17   15      0.23      0.00
   11   17   15     -1.05      0.00
    3   18   15      0.05      0.00
    4   18   15     -0.58      0.00
    9   18   15     -0.54      0.00
   -1   -6   16     -0.71      0.00
    0   -6   16     -1.55      0.00
    4   -6   16      0.33      0.00
    5   -6   16     -0.10      0.00
   -2   -5   16      2.37      0.00
    7   -5   16      0.50      0.00
   10   -3   16      0.09      0.00
   -5   -2   16      0.33      0.00
   11   -2   16     -0.28      0.00
   -6    0   16      0.77      0.00
   -6    1   16      0.32      0.00
   13    1   16     -0.54      0.00
   14    3   16      1.21      0.00
   -6    5   16     -0.15      0.00
   -6    6   16      0.27      0.00
   15    7   16      0.16      0.00
   15    8   16      0.48      0.00
   -5    9   16     -0.48      0.00
   15    9   16      0.32      0.00
   15   10   16     -0.51      0.00
   -4   11   16      0.66      0.00
   14   13   16      0.72      0.00
   -2   14   16      0.37      0.00
   -1   15   16      0.35      0.00
   13   15   16     -0.97      0.00
    1   16   16     -0.32      0.00
   12   16   16     -0.52      0.00
    2   17   16     -0.06      0.00
    3   17   16     -0.29      0.00
   10   17   16     -0.63      0.00
    5   18   16      0.80      0.00
    6   18   16      0.38      0.00
    7   18   16     -0.17      0.00
    8   18   16     -0.62      0.00
    1   -5   17     -0.57      0.00
    2   -5   17      0.43      0.00
    3   -5   17     -0.29      0.00
    4   -5   17     -0.54      0.00
   -1   -4   17      0.71      0.00
    6   -4   17     -0.55      0.00
    7   -4   17      0.25      0.00
    8   -3   17     -0.15      0.00
   -4   -1   17     -0.37      0.00
   -5    1   17      0.87      0.00
   12    1   17     -0.20      0.00
   -5    2   17     -0.01      0.00
   -5    3   17     -0.41      0.00
   13    3   17     -0.66      0.00
   -5    4   17     -0.09      0.00
   -5    5   17     -0.25      0.00
   14    5   17      0.59      0.00
   -5    6   17     -0.77      0.00
   14    6   17      0.00      0.00
   -4    9   17     -1.44      0.00
   14   10   17      0.79      0.00
   -3   11   17     -0.45      0.00
   14   11   17      0.39      0.00
   14   12   17     -0.72      0.00
   13   14   17     -0.98      0.00
   12   15   17      0.74      0.00
    2   16   17      0.30      0.00
   11   16   17      1.36      0.00
    4   17   17     -0.01      0.00
    5   17   17      1.10      0.00
    6   17   17      0.48      0.00
    7   17   17     -0.05      0.00
    8   17   17     -1.61      0.00
    9   17   17     -1.33      0.00
    1   -3   18     -0.81      0.00
    2   -3   18      1.13      0.00
    5   -3   18     -0.48      0.00
    6   -3   18     -0.50      0.00
   -1   -2   18      1.05      0.00
    8   -2   18      0.78      0.00
   -2   -1   18      0.09      0.00
    9   -1   18      0.06      0.00
   -3    0   18     -0.01      0.00
   10    0   18     -0.60      0.00
   -3    1   18     -0.96      0.00
   11    1   18      0.07      0.00
   12    3   18     -0.12      0.00
   -4    4   18      0.59      0.00
   -4    5   18      0.77      0.00
   13    5   18     -0.48      0.00
   13    6   18     -0.05      0.00
   -3    8   18      0.56      0.00
   -3    9   18     -0.38      0.00
   -2   11   18     -0.55      0.00
   13   11   18     -1.16      0.00
   -1   12   18     -0.01      0.00
   13   12   18      0.60      0.00
    0   13   18      0.03      0.00
    1   14   18     -1.01      0.00
   12   14   18      1.09      0.00
    2   15   18     -0.41      0.00
   11   15   18      0.49      0.00
    4   16   18     -0.19      0.00
    5   16   18     -0.25      0.00
    8   16   18     -0.43      0.00
    9   16   18      0.27      0.00
    1   -1   19     -0.20      0.00
    2   -1   19      0.93      0.00
    6   -1   19     -0.84      0.00
    0    0   19      0.11      0.00
    8    0   19      0.97      0.00
   -1    1   19     -0.44      0.00
    9    1   19      0.07      0.00
   -2    2   19     -0.42      0.00
   10    2   19      0.22      0.00
   -2    3   19      0.40      0.00
   11    3   19     -1.03      0.00
   -2    4   19      0.17      0.00
   -2    5   19      0.06      0.00
   12    5   19     -0.37      0.00
   -2    6   19      0.91      0.00
   12    6   19     -0.69      0.00
   -2    7   19      1.48      0.00
   -2    8   19      1.45      0.00
   -1   10   19      0.47      0.00
   12   11   19     -0.05      0.00
    0   12   19     -0.07      0.00
   12   12   19     -0.06      0.00
    1   13   19     -0.58      0.00
   11   13   19      0.42      0.00
    3   14   19      0.64      0.00
   10   14   19      0.98      0.00
    4   15   19      1.84      0.00
    5   15   19      0.05      0.00
    6   15   19     -1.35      0.00
    7   15   19     -1.00      0.00
    8   15   19     -0.76      0.00
    9   15   19      0.51      0.00
    2    1   20      0.23      0.00
    3    1   20      0.72      0.00
    4    1   20      0.18      0.00
    5    1   20      0.08      0.00
    6    1   20     -1.29      0.00
    1    2   20      0.14      0.00
    8    2   20      0.30      0.00
    0    3   20     -0.01      0.00
    9    3   20      0.58      0.00
    0    4   20      0.03      0.00
   10    4   20      0.17      0.00
    0    5   20      0.14      0.00
   10    5   20     -0.55      0.00
    0    6   20     -0.17      0.00
   11    6   20     -0.29      0.00
    0    7   20     -0.21      0.00
   11    7   20      0.84      0.00
    0    8   20     -0.21      0.00
   11    8   20      0.74      0.00
    0    9   20     -0.76      0.00
   11    9   20     -0.33      0.00
    1   10   20     -1.02      0.00
   11   10   20     -0.93      0.00
   11   11   20     -0.83      0.00
    2   12   20      0.30      0.00
    3   12   20      0.36      0.00
   10   12   20     -1.31      0.00
    4   13   20     -0.57      0.00
    9   13   20      0.46      0.00
    6   14   20     -0.28      0.00
    7   14   20     -0.61      0.00
    8   14   20     -0.35      0.00
    3    4   21      0.82      0.00
    4    4   21      0.21      0.00
    5    4   21      0.15      0.00
    6    4   21     -0.32      0.00
    7    4   21     -0.77      0.00
    3    5   21      0.91      0.00
    4    5   21     -0.05      0.00
    6    5   21     -0.22      0.00
    7    5   21     -0.76      0.00
    8    5   21      0.18      0.00
    2    6   21     -0.16      0.00
    3    6   21      0.40      0.00
    8    6   21     -0.49      0.00
    2    7   21     -0.24      0.00
    3    7   21      0.12      0.00
    8    7   21     -1.10      0.00
    9    7   21     -0.22      0.00
    3    8   21      0.37      0.00
    9    8   21     -0.71      0.00
    3    9   21      0.15      0.00
    4    9   21     -1.13      0.00
    8    9   21     -0.78      0.00
    9    9   21     -0.88      0.00
    3   10   21     -0.20      0.00
    4   10   21     -0.51      0.00
    8   10   21      0.22      0.00
    9   10   21     -0.50      0.00
    4   11   21     -0.26      0.00
    5   11   21      0.39      0.00
    6   11   21      0.49      0.00
    7   11   21      0.95      0.00
    8   11   21      0.73      0.00
    0    0    0      0.00      0.00
loop_
  _platon_squeeze_void_nr
  _platon_squeeze_void_average_x
  _platon_squeeze_void_average_y
  _platon_squeeze_void_average_z
  _platon_squeeze_void_volume
  _platon_squeeze_void_count_electrons
  _platon_squeeze_void_content
   1  0.000  0.000  0.000       626       135 '4 Molecules of Diethyl Ether'
_platon_squeeze_details
(replace by semicolon in column 1 when used as .sqf)
TITL jfig671_1_P -1q        R = 0.05
CELL   13.9500   16.2777   17.6213     66.89     70.02     71.46
SPGR P-1
C101 0.125 0.929 0.090 !       4.45 eA-3
C102 0.719 0.902 0.285 !       4.22 eA-3
Q103 0.206 0.343 0.425 !       3.81 eA-3
C104 0.249 0.030 0.949 !       3.76 eA-3
C105 0.719 0.966 0.135 !       3.42 eA-3
C106 0.656 0.850 0.301 !       3.36 eA-3
C107 0.752 0.058-0.006 !       3.26 eA-3
C108 0.173 0.123 0.762 !       2.89 eA-3
C109 0.812 0.049 0.002 !       2.79 eA-3
C110 0.890 0.950 0.213 !       2.21 eA-3
C111 0.781 0.099 0.929 !       2.19 eA-3
C112 0.560 0.896 0.315 !       2.11 eA-3
Q113 0.155 0.406 0.409 !       2.09 eA-3
C114 0.715 0.871 0.198 !       2.02 eA-3
Q115 0.862 0.608 0.604 !       1.96 eA-3
C116 1.002 0.061 0.897 !       1.71 eA-3
C117 0.639 0.917 0.312 !       1.69 eA-3
C118 0.298 0.224 0.737 !       1.62 eA-3
Q119 0.450 0.311 0.102 !       1.52 eA-3
Q120 0.953 0.279 0.759 !       1.49 eA-3
C121 0.996 0.871 0.219 !       1.46 eA-3
C122 0.393 0.193 0.721 !       1.46 eA-3
Q123 1.000 0.670 0.171 !       1.45 eA-3
C124 0.766 0.816 0.279 !       1.38 eA-3
C125 0.095 0.859 0.127 !       1.21 eA-3
Q126 0.864 0.597 0.327 !       1.18 eA-3
Q127 0.013 0.449 0.812 !       1.12 eA-3
Q128 0.015 0.436 0.569 !       1.12 eA-3
Q129 0.701 0.636 0.742 !       1.08 eA-3
Q130 0.337 0.313 0.263 !       0.99 eA-3
Q131 0.146 0.596 0.237 !       0.95 eA-3
Q132 0.015 0.659 0.969 !       0.83 eA-3
Q133 0.361 0.852 0.931 !       0.83 eA-3
Q134 0.677 0.404 0.199 !       0.80 eA-3
C135 0.106 0.893 0.053 !       0.77 eA-3
Q136 0.465 0.232 0.469 !       0.74 eA-3
Q137 0.740 0.515 0.199 !       0.74 eA-3
Q138 0.260 0.485 0.801 !       0.74 eA-3
Q139 0.330 0.780 0.751 !       0.72 eA-3
Q140 0.405 0.826 0.674 !       0.72 eA-3
Q141 0.279 0.466 0.747 !       0.71 eA-3
C142 0.778 0.827 0.219 !       0.71 eA-3
Q143 0.188 0.857 0.744 !       0.71 eA-3
Q144 0.011 0.357 0.639 !       0.71 eA-3
Q145 0.072 0.637 0.959 !       0.70 eA-3
Q146 0.373 0.750 0.660 !       0.70 eA-3
Q147 0.924 0.341 0.091 !       0.68 eA-3
C148 0.826 0.966 0.069 !       0.68 eA-3
Q149 0.891 0.516 0.631 !       0.67 eA-3
Q150 0.794 0.452 0.184 !       0.65 eA-3
Q151 0.190 0.485 0.730 !       0.65 eA-3
Q152 0.577 0.514 0.299 !       0.64 eA-3
Q153 0.013 0.422 0.070 !       0.64 eA-3
Q154 0.252 0.564 0.792 !       0.64 eA-3
Q155 0.467 0.709 0.458 !       0.63 eA-3
Q156 0.322 0.718 0.900 !       0.63 eA-3
Q157 0.884 0.295 0.157 !       0.62 eA-3
Q158 0.201 0.703 0.796 !       0.62 eA-3
Q159 0.829 0.807 0.301 !       0.62 eA-3
Q160 0.029 0.478 0.671 !       0.62 eA-3
Q161 0.449 0.563 0.750 !       0.62 eA-3
Q162 0.438 0.034 0.445 !       0.61 eA-3
C163 0.342 0.178 0.649 !       0.61 eA-3
Q164 0.049 0.534 0.897 !       0.61 eA-3
C165 0.799 0.955 0.249 !       0.61 eA-3
Q166 0.890 0.704 0.084 !       0.61 eA-3
Q167 0.174 0.505 0.900 !       0.60 eA-3
Q168 0.255 0.799 0.744 !       0.60 eA-3
Q169 0.050 0.507 0.641 !       0.60 eA-3
Q170 0.313 0.708 0.626 !       0.60 eA-3
Q171 0.844 0.469 0.029 !       0.60 eA-3
Q172 0.251 0.263 0.671 !       0.59 eA-3
Q173 0.171 0.577 0.855 !       0.59 eA-3
Q174 0.406 0.562 0.770 !       0.59 eA-3
Q175 0.926 0.248 0.378 !       0.58 eA-3
Q176 0.635 0.546 0.300 !       0.58 eA-3
Q177 0.405 0.798 0.741 !       0.58 eA-3
Q178 0.359 0.473 0.470 !       0.58 eA-3
Q179 0.452 0.548 0.677 !       0.58 eA-3
Q180 0.297 0.745 0.714 !       0.58 eA-3
Q181 0.015 0.139 0.828 !       0.57 eA-3
Q182 0.029 0.701-0.006 !       0.57 eA-3
Q183 0.889 0.457 0.111 !       0.57 eA-3
Q184 0.982 0.706 0.922 !       0.57 eA-3
Q185 0.299 0.506 0.671 !       0.57 eA-3
Q186 0.283 0.984 0.497 !       0.57 eA-3
Q187 0.502 0.689 0.538 !       0.57 eA-3
Q188 0.064 0.620 0.793 !       0.57 eA-3
Q189 0.160 0.312 0.937 !       0.57 eA-3
Q190 0.605 0.747 0.549 !       0.56 eA-3
Q191 0.876 0.200 0.095 !       0.56 eA-3
Q192 0.688 0.423 0.075 !       0.56 eA-3
Q193 0.111 0.628 0.882 !       0.56 eA-3
Q194 0.862 0.421 0.080 !       0.56 eA-3
Q195 0.846 0.168 0.310 !       0.56 eA-3
C196 0.839 0.907 0.049 !       0.55 eA-3
Q197 0.485 0.633 0.510 !       0.55 eA-3
Q198 0.206 0.672 0.888 !       0.55 eA-3
Q199 0.957 0.280 0.063 !       0.55 eA-3
(replace by semicolon in column 1 when used as .sqf)
;
_shelx_shelxl_version_number     2014/7
_olex2_submission_special_instructions 'No special instructions were received'
loop_
_space_group_symop_operation_xyz
'x, y, z'
'-x, -y, -z'
loop_
_atom_site_label
_atom_site_type_symbol
_atom_site_fract_x
_atom_site_fract_y
_atom_site_fract_z
_atom_site_U_iso_or_equiv
_atom_site_adp_type
_atom_site_occupancy
_atom_site_site_symmetry_order
_atom_site_calc_flag
_atom_site_refinement_flags_posn
_atom_site_refinement_flags_adp
Pt1 Pt 0.30612(2) 0.35144(2) 0.25835(2) 0.02800(6) Uani 1 1 d . .
Tl1 Tl 0.16786(2) 0.39667(2) 0.40583(2) 0.04336(7) Uani 1 1 d . .
S1 S -0.02697(12) 0.58321(12) 0.34143(9) 0.0513(4) Uani 1 1 d . U
O1 O -0.0212(4) 0.4890(3) 0.3602(3) 0.0681(12) Uani 1 1 d . U
O2 O -0.1269(4) 0.6415(4) 0.3581(4) 0.0980(17) Uani 1 1 d . U
O3 O 0.0476(5) 0.5983(4) 0.3695(4) 0.1036(18) Uani 1 1 d . U
N1 N 0.4882(3) 0.4304(3) 0.2402(2) 0.0296(9) Uani 1 1 d . .
F2 F 0.1151(4) 0.5730(4) 0.2040(3) 0.133(2) Uani 1 1 d . U
F3 F 0.0249(4) 0.7042(4) 0.1946(4) 0.148(2) Uani 1 1 d . U
C30 C 0.4899(4) 0.3511(4) 0.4577(3) 0.0344(12) Uani 1 1 d . .
H30 H 0.5535 0.3523 0.4091 0.041 Uiso 1 1 calc R .
N2 N 0.1947(3) 0.2192(3) 0.2539(2) 0.0244(8) Uani 1 1 d . .
C1 C 0.4141(4) 0.4069(3) 0.2487(3) 0.0305(11) Uani 1 1 d . .
C3 C 0.5710(4) 0.4584(3) 0.2437(3) 0.0281(10) Uani 1 1 d . .
C8 C 0.6686(4) 0.4404(3) 0.1891(3) 0.0272(10) Uani 1 1 d . .
C9 C 0.6840(3) 0.3922(3) 0.1274(3) 0.0260(10) Uani 1 1 d . .
C14 C 0.6893(3) 0.4442(3) 0.0411(3) 0.0280(10) Uani 1 1 d . .
C15 C 0.6787(4) 0.5470(4) 0.0100(3) 0.0337(11) Uani 1 1 d . .
H15 H 0.6710 0.5654 0.0600 0.040 Uiso 1 1 calc R .
C16 C 0.7760(4) 0.5751(4) -0.0564(3) 0.0402(13) Uani 1 1 d . .
H16A H 0.8370 0.5432 -0.0327 0.060 Uiso 1 1 calc GR .
H16B H 0.7685 0.6413 -0.0723 0.060 Uiso 1 1 calc GR .
H16C H 0.7852 0.5590 -0.1068 0.060 Uiso 1 1 calc GR .
C17 C 0.5800(4) 0.5964(4) -0.0224(3) 0.0423(13) Uani 1 1 d . .
H17A H 0.5863 0.5820 -0.0731 0.063 Uiso 1 1 calc GR .
H17B H 0.5713 0.6625 -0.0369 0.063 Uiso 1 1 calc GR .
H17C H 0.5193 0.5764 0.0221 0.063 Uiso 1 1 calc GR .
C13 C 0.7033(4) 0.3991(4) -0.0157(3) 0.0324(11) Uani 1 1 d . .
H13 H 0.7077 0.4330 -0.0742 0.039 Uiso 1 1 calc R .
C12 C 0.7108(4) 0.3066(4) 0.0110(3) 0.0333(11) Uani 1 1 d . .
H12 H 0.7208 0.2770 -0.0289 0.040 Uiso 1 1 calc R .
C11 C 0.7038(4) 0.2564(4) 0.0959(3) 0.0320(11) Uani 1 1 d . .
H11 H 0.7082 0.1924 0.1140 0.038 Uiso 1 1 calc R .
C10 C 0.6905(4) 0.2978(3) 0.1550(3) 0.0282(10) Uani 1 1 d . .
C18 C 0.6882(4) 0.2393(4) 0.2476(3) 0.0324(11) Uani 1 1 d . .
H18 H 0.6649 0.2813 0.2824 0.039 Uiso 1 1 calc R .
C20 C 0.7969(4) 0.1844(4) 0.2557(3) 0.0505(16) Uani 1 1 d . .
H20A H 0.8214 0.1426 0.2222 0.076 Uiso 1 1 calc GR .
H20B H 0.7950 0.1492 0.3157 0.076 Uiso 1 1 calc GR .
H20C H 0.8446 0.2261 0.2345 0.076 Uiso 1 1 calc GR .
C19 C 0.6110(4) 0.1762(4) 0.2830(3) 0.0407(13) Uani 1 1 d . .
H19A H 0.5421 0.2125 0.2747 0.061 Uiso 1 1 calc GR .
H19B H 0.6061 0.1447 0.3439 0.061 Uiso 1 1 calc GR .
H19C H 0.6354 0.1310 0.2529 0.061 Uiso 1 1 calc GR .
C7 C 0.7488(4) 0.4687(3) 0.1954(3) 0.0307(11) Uani 1 1 d . .
H7 H 0.8163 0.4588 0.1584 0.037 Uiso 1 1 calc R .
C6 C 0.7320(4) 0.5110(4) 0.2548(3) 0.0346(12) Uani 1 1 d . .
H6 H 0.7881 0.5291 0.2587 0.042 Uiso 1 1 calc R .
C5 C 0.6335(4) 0.5273(4) 0.3087(3) 0.0354(12) Uani 1 1 d . .
H5 H 0.6230 0.5563 0.3492 0.042 Uiso 1 1 calc R .
C4 C 0.5501(4) 0.5017(4) 0.3040(3) 0.0316(11) Uani 1 1 d . .
C21 C 0.4431(4) 0.5156(4) 0.3609(3) 0.0313(11) Uani 1 1 d . .
C22 C 0.4154(4) 0.4434(3) 0.4354(3) 0.0299(11) Uani 1 1 d . .
C31 C 0.4432(5) 0.2730(4) 0.4694(4) 0.0495(15) Uani 1 1 d . .
H31A H 0.3802 0.2704 0.5164 0.074 Uiso 1 1 calc GR .
H31B H 0.4942 0.2152 0.4823 0.074 Uiso 1 1 calc GR .
H31C H 0.4252 0.2831 0.4168 0.074 Uiso 1 1 calc GR .
C32 C 0.5248(4) 0.3336(4) 0.5372(3) 0.0473(14) Uani 1 1 d . .
H32A H 0.4641 0.3308 0.5863 0.071 Uiso 1 1 calc GR .
H32B H 0.5569 0.3833 0.5282 0.071 Uiso 1 1 calc GR .
H32C H 0.5757 0.2754 0.5480 0.071 Uiso 1 1 calc GR .
C23 C 0.3160(4) 0.4564(4) 0.4885(3) 0.0340(12) Uani 1 1 d . .
H23 H 0.2971 0.4093 0.5402 0.041 Uiso 1 1 calc R .
C24 C 0.2445(4) 0.5371(4) 0.4668(3) 0.0374(12) Uani 1 1 d . .
H24 H 0.1767 0.5454 0.5038 0.045 Uiso 1 1 calc R .
C25 C 0.2707(4) 0.6062(4) 0.3914(3) 0.0379(12) Uani 1 1 d . .
H25 H 0.2197 0.6602 0.3757 0.046 Uiso 1 1 calc R .
C26 C 0.3711(4) 0.5972(4) 0.3383(3) 0.0347(12) Uani 1 1 d . .
C27 C 0.3977(5) 0.6742(4) 0.2558(3) 0.0469(14) Uani 1 1 d . .
H27 H 0.4755 0.6644 0.2362 0.056 Uiso 1 1 calc R .
C28 C 0.3568(8) 0.7680(5) 0.2672(4) 0.090(3) Uani 1 1 d . .
H28A H 0.2803 0.7820 0.2815 0.135 Uiso 1 1 calc GR .
H28B H 0.3830 0.8141 0.2141 0.135 Uiso 1 1 calc GR .
H28C H 0.3807 0.7685 0.3132 0.135 Uiso 1 1 calc GR .
C29 C 0.3587(7) 0.6727(5) 0.1866(4) 0.079(2) Uani 1 1 d . .
H29A H 0.3911 0.6145 0.1751 0.119 Uiso 1 1 calc GR .
H29B H 0.3770 0.7231 0.1347 0.119 Uiso 1 1 calc GR .
H29C H 0.2827 0.6795 0.2051 0.119 Uiso 1 1 calc GR .
C2 C 0.2280(4) 0.2734(3) 0.2586(3) 0.0268(10) Uani 1 1 d . .
C33 C 0.1549(3) 0.1440(3) 0.2698(3) 0.0241(10) Uani 1 1 d . .
C38 C 0.1063(3) 0.1011(3) 0.3552(3) 0.0249(10) Uani 1 1 d . .
C37 C 0.0713(4) 0.0239(3) 0.3711(3) 0.0305(11) Uani 1 1 d . .
H37 H 0.0386 -0.0073 0.4279 0.037 Uiso 1 1 calc R .
C36 C 0.0827(4) -0.0088(3) 0.3062(3) 0.0354(12) Uani 1 1 d . .
H36 H 0.0579 -0.0619 0.3188 0.042 Uiso 1 1 calc R .
C35 C 0.1301(4) 0.0357(3) 0.2229(3) 0.0320(11) Uani 1 1 d . .
H35 H 0.1370 0.0128 0.1788 0.038 Uiso 1 1 calc R .
C34 C 0.1674(3) 0.1128(3) 0.2028(3) 0.0256(10) Uani 1 1 d . .
C48 C 0.2200(3) 0.1614(3) 0.1129(3) 0.0261(10) Uani 1 1 d . .
C49 C 0.1610(4) 0.2183(3) 0.0541(3) 0.0288(10) Uani 1 1 d . .
C50 C 0.2120(4) 0.2595(4) -0.0295(3) 0.0361(12) Uani 1 1 d . .
H50 H 0.1725 0.2977 -0.0700 0.043 Uiso 1 1 calc R .
C51 C 0.3191(4) 0.2456(4) -0.0538(3) 0.0381(12) Uani 1 1 d . .
H51 H 0.3531 0.2744 -0.1109 0.046 Uiso 1 1 calc R .
C52 C 0.3766(4) 0.1906(4) 0.0037(3) 0.0362(12) Uani 1 1 d . .
H52 H 0.4506 0.1815 -0.0143 0.043 Uiso 1 1 calc R .
C53 C 0.3296(4) 0.1472(3) 0.0882(3) 0.0305(11) Uani 1 1 d . .
C54 C 0.3978(4) 0.0828(4) 0.1482(3) 0.0387(12) Uani 1 1 d . .
H54 H 0.3508 0.0638 0.2065 0.046 Uiso 1 1 calc R .
C56 C 0.4552(5) -0.0036(4) 0.1232(4) 0.0546(16) Uani 1 1 d . .
H56A H 0.4043 -0.0334 0.1231 0.082 Uiso 1 1 calc GR .
H56B H 0.4960 -0.0455 0.1642 0.082 Uiso 1 1 calc GR .
H56C H 0.5020 0.0129 0.0661 0.082 Uiso 1 1 calc GR .
C55 C 0.4745(4) 0.1291(4) 0.1526(4) 0.0485(15) Uani 1 1 d . .
H55A H 0.5161 0.0856 0.1926 0.073 Uiso 1 1 calc GR .
H55B H 0.4357 0.1819 0.1722 0.073 Uiso 1 1 calc GR .
H55C H 0.5209 0.1495 0.0960 0.073 Uiso 1 1 calc GR .
C57 C 0.0421(4) 0.2352(4) 0.0788(3) 0.0325(11) Uani 1 1 d . .
H57 H 0.0192 0.2081 0.1421 0.039 Uiso 1 1 calc R .
C58 C -0.0084(4) 0.3362(4) 0.0554(4) 0.0464(14) Uani 1 1 d . .
H58A H 0.0134 0.3654 0.0841 0.070 Uiso 1 1 calc GR .
H58B H -0.0845 0.3438 0.0733 0.070 Uiso 1 1 calc GR .
H58C H 0.0133 0.3647 -0.0064 0.070 Uiso 1 1 calc GR .
C59 C 0.0044(4) 0.1874(4) 0.0391(4) 0.0463(14) Uani 1 1 d . .
H59A H -0.0720 0.1982 0.0566 0.069 Uiso 1 1 calc GR .
H59B H 0.0336 0.1215 0.0581 0.069 Uiso 1 1 calc GR .
H59C H 0.0272 0.2115 -0.0231 0.069 Uiso 1 1 calc GR .
C39 C 0.0949(4) 0.1395(3) 0.4230(3) 0.0262(10) Uani 1 1 d . .
C40 C 0.1782(4) 0.1187(3) 0.4590(3) 0.0306(11) Uani 1 1 d . .
C41 C 0.1648(5) 0.1562(4) 0.5219(3) 0.0417(14) Uani 1 1 d . .
H41 H 0.2202 0.1415 0.5478 0.050 Uiso 1 1 calc R .
C42 C 0.0727(5) 0.2141(4) 0.5473(3) 0.0441(14) Uani 1 1 d . .
H42 H 0.0648 0.2389 0.5902 0.053 Uiso 1 1 calc R .
C43 C -0.0071(4) 0.2352(4) 0.5100(3) 0.0401(13) Uani 1 1 d . .
H43 H -0.0698 0.2761 0.5266 0.048 Uiso 1 1 calc R .
C44 C 0.0008(4) 0.1985(3) 0.4481(3) 0.0314(11) Uani 1 1 d . .
C45 C -0.0875(4) 0.2263(4) 0.4052(4) 0.0407(13) Uani 1 1 d . .
H45 H -0.0844 0.1742 0.3872 0.049 Uiso 1 1 calc R .
C47 C -0.0720(5) 0.3086(4) 0.3251(5) 0.0653(19) Uani 1 1 d . .
H47A H -0.1292 0.3257 0.2979 0.098 Uiso 1 1 calc GR .
H47B H -0.0054 0.2930 0.2855 0.098 Uiso 1 1 calc GR .
H47C H -0.0713 0.3601 0.3405 0.098 Uiso 1 1 calc GR .
C46 C -0.1961(4) 0.2461(5) 0.4643(5) 0.071(2) Uani 1 1 d . .
H46A H -0.2062 0.3036 0.4746 0.106 Uiso 1 1 calc GR .
H46B H -0.2017 0.1962 0.5186 0.106 Uiso 1 1 calc GR .
H46C H -0.2496 0.2512 0.4374 0.106 Uiso 1 1 calc GR .
C60 C 0.2801(4) 0.0543(4) 0.4334(3) 0.0376(12) Uani 1 1 d . .
H60 H 0.2824 0.0488 0.3782 0.045 Uiso 1 1 calc R .
C61 C 0.2827(5) -0.0401(5) 0.4995(5) 0.083(3) Uani 1 1 d . .
H61A H 0.2822 -0.0369 0.5541 0.124 Uiso 1 1 calc GR .
H61B H 0.3463 -0.0824 0.4806 0.124 Uiso 1 1 calc GR .
H61C H 0.2214 -0.0620 0.5065 0.124 Uiso 1 1 calc GR .
C62 C 0.3759(5) 0.0890(5) 0.4203(4) 0.0574(17) Uani 1 1 d . .
H62A H 0.3767 0.0929 0.4741 0.086 Uiso 1 1 calc GR .
H62B H 0.3734 0.1496 0.3772 0.086 Uiso 1 1 calc GR .
H62C H 0.4391 0.0467 0.4011 0.086 Uiso 1 1 calc GR .
C63 C 0.0218(7) 0.6176(7) 0.2270(5) 0.102(2) Uani 1 1 d . U
F1 F -0.0445(6) 0.6152(6) 0.1920(4) 0.174(3) Uani 1 1 d . U
loop_
_atom_site_aniso_label
_atom_site_aniso_U_11
_atom_site_aniso_U_22
_atom_site_aniso_U_33
_atom_site_aniso_U_23
_atom_site_aniso_U_13
_atom_site_aniso_U_12
Pt1 0.03077(10) 0.03626(12) 0.02509(10) -0.01187(8) -0.00519(7) -0.01690(8)
Tl1 0.05598(14) 0.05219(15) 0.02922(11) -0.01855(10) -0.00002(9) -0.02538(11)
S1 0.0502(9) 0.0590(10) 0.0374(7) -0.0088(7) -0.0002(6) -0.0221(7)
O1 0.078(3) 0.070(2) 0.057(3) -0.024(2) 0.006(2) -0.037(2)
O2 0.070(3) 0.091(3) 0.091(4) -0.020(3) 0.016(2) -0.015(2)
O3 0.123(4) 0.091(4) 0.129(4) -0.039(3) -0.055(3) -0.033(3)
N1 0.031(2) 0.046(3) 0.0203(19) -0.0174(18) 0.0009(16) -0.019(2)
F2 0.096(3) 0.135(4) 0.069(3) 0.004(3) 0.037(2) -0.004(3)
F3 0.095(4) 0.126(4) 0.109(4) 0.031(3) 0.016(3) -0.008(3)
C30 0.038(3) 0.048(3) 0.022(2) -0.019(2) 0.003(2) -0.016(2)
N2 0.031(2) 0.029(2) 0.0137(17) -0.0022(15) -0.0063(15) -0.0123(18)
C1 0.036(3) 0.040(3) 0.018(2) -0.011(2) -0.0030(19) -0.013(2)
C3 0.029(2) 0.040(3) 0.022(2) -0.008(2) -0.0057(19) -0.019(2)
C8 0.032(3) 0.035(3) 0.016(2) -0.0046(19) -0.0026(18) -0.018(2)
C9 0.023(2) 0.040(3) 0.019(2) -0.009(2) -0.0010(17) -0.017(2)
C14 0.026(2) 0.038(3) 0.022(2) -0.009(2) -0.0015(18) -0.014(2)
C15 0.042(3) 0.040(3) 0.024(2) -0.009(2) -0.004(2) -0.021(2)
C16 0.045(3) 0.044(3) 0.028(3) 0.001(2) -0.007(2) -0.023(3)
C17 0.047(3) 0.042(3) 0.039(3) -0.013(2) -0.007(2) -0.014(3)
C13 0.033(3) 0.050(3) 0.021(2) -0.012(2) -0.0037(19) -0.019(2)
C12 0.036(3) 0.047(3) 0.028(2) -0.020(2) -0.005(2) -0.016(2)
C11 0.035(3) 0.039(3) 0.030(2) -0.012(2) -0.011(2) -0.015(2)
C10 0.028(2) 0.039(3) 0.023(2) -0.008(2) -0.0057(19) -0.017(2)
C18 0.035(3) 0.041(3) 0.025(2) -0.009(2) -0.003(2) -0.019(2)
C20 0.038(3) 0.080(5) 0.029(3) 0.001(3) -0.013(2) -0.024(3)
C19 0.039(3) 0.052(4) 0.032(3) -0.002(2) -0.009(2) -0.025(3)
C7 0.029(3) 0.043(3) 0.025(2) -0.013(2) -0.0018(19) -0.017(2)
C6 0.035(3) 0.048(3) 0.033(3) -0.014(2) -0.008(2) -0.021(2)
C5 0.042(3) 0.048(3) 0.030(3) -0.020(2) -0.007(2) -0.020(3)
C4 0.034(3) 0.043(3) 0.023(2) -0.012(2) -0.004(2) -0.016(2)
C21 0.036(3) 0.043(3) 0.025(2) -0.019(2) -0.002(2) -0.019(2)
C22 0.034(3) 0.041(3) 0.025(2) -0.022(2) -0.002(2) -0.012(2)
C31 0.069(4) 0.043(4) 0.049(3) -0.020(3) -0.024(3) -0.010(3)
C32 0.044(3) 0.065(4) 0.044(3) -0.030(3) -0.012(3) -0.008(3)
C23 0.041(3) 0.041(3) 0.025(2) -0.019(2) 0.003(2) -0.015(2)
C24 0.034(3) 0.048(3) 0.034(3) -0.024(2) 0.003(2) -0.012(3)
C25 0.044(3) 0.042(3) 0.034(3) -0.021(2) -0.004(2) -0.012(3)
C26 0.042(3) 0.041(3) 0.028(2) -0.015(2) -0.007(2) -0.014(2)
C27 0.049(3) 0.057(4) 0.033(3) -0.002(3) -0.011(2) -0.025(3)
C28 0.181(9) 0.065(5) 0.046(4) 0.003(3) -0.045(5) -0.063(6)
C29 0.142(7) 0.072(5) 0.038(3) -0.009(3) -0.038(4) -0.035(5)
C2 0.032(3) 0.030(3) 0.022(2) -0.0081(19) -0.0085(19) -0.009(2)
C33 0.030(2) 0.022(2) 0.022(2) -0.0046(18) -0.0075(18) -0.011(2)
C38 0.028(2) 0.027(3) 0.020(2) -0.0053(19) -0.0075(18) -0.008(2)
C37 0.037(3) 0.030(3) 0.023(2) -0.007(2) 0.000(2) -0.015(2)
C36 0.049(3) 0.030(3) 0.030(3) -0.009(2) 0.000(2) -0.023(2)
C35 0.043(3) 0.034(3) 0.024(2) -0.013(2) -0.003(2) -0.018(2)
C34 0.030(2) 0.029(3) 0.021(2) -0.0081(19) -0.0061(18) -0.010(2)
C48 0.029(2) 0.036(3) 0.021(2) -0.014(2) -0.0005(18) -0.017(2)
C49 0.032(3) 0.038(3) 0.022(2) -0.012(2) -0.0016(19) -0.016(2)
C50 0.038(3) 0.051(3) 0.021(2) -0.009(2) -0.007(2) -0.015(3)
C51 0.039(3) 0.053(4) 0.021(2) -0.009(2) 0.004(2) -0.023(3)
C52 0.029(3) 0.048(3) 0.036(3) -0.021(2) 0.002(2) -0.016(2)
C53 0.034(3) 0.034(3) 0.031(2) -0.016(2) -0.006(2) -0.011(2)
C54 0.033(3) 0.048(3) 0.038(3) -0.015(2) -0.009(2) -0.010(2)
C56 0.056(4) 0.043(4) 0.077(4) -0.018(3) -0.032(3) -0.011(3)
C55 0.044(3) 0.048(4) 0.067(4) -0.027(3) -0.030(3) 0.001(3)
C57 0.027(3) 0.046(3) 0.023(2) -0.008(2) -0.0038(19) -0.013(2)
C58 0.034(3) 0.059(4) 0.047(3) -0.019(3) -0.005(2) -0.013(3)
C59 0.037(3) 0.064(4) 0.048(3) -0.022(3) -0.011(2) -0.018(3)
C39 0.033(3) 0.028(3) 0.018(2) -0.0051(19) -0.0003(18) -0.017(2)
C40 0.041(3) 0.034(3) 0.019(2) 0.000(2) -0.009(2) -0.019(2)
C41 0.062(4) 0.051(4) 0.024(2) -0.002(2) -0.017(2) -0.031(3)
C42 0.071(4) 0.051(4) 0.022(2) -0.017(2) 0.003(2) -0.037(3)
C43 0.044(3) 0.046(3) 0.036(3) -0.025(3) 0.006(2) -0.018(3)
C44 0.033(3) 0.034(3) 0.033(3) -0.015(2) 0.001(2) -0.018(2)
C45 0.029(3) 0.042(3) 0.063(4) -0.032(3) -0.015(2) -0.002(2)
C47 0.063(4) 0.051(4) 0.091(5) -0.008(4) -0.051(4) -0.007(3)
C46 0.030(3) 0.090(5) 0.122(6) -0.082(5) -0.009(3) -0.003(3)
C60 0.037(3) 0.039(3) 0.033(3) 0.001(2) -0.013(2) -0.014(2)
C61 0.048(4) 0.053(5) 0.102(6) 0.019(4) -0.018(4) -0.009(3)
C62 0.041(3) 0.065(4) 0.062(4) -0.013(3) -0.010(3) -0.019(3)
C63 0.080(4) 0.122(4) 0.049(3) 0.003(2) 0.001(2) -0.006(3)
F1 0.161(5) 0.263(7) 0.073(3) -0.019(4) -0.036(3) -0.047(4)
loop_
_atom_type_symbol
_atom_type_description
_atom_type_scat_dispersion_real
_atom_type_scat_dispersion_imag
_atom_type_scat_source
C C 0.0033 0.0016 'International Tables Vol C Tables 4.2.6.8 and 6.1.1.4'
H H 0.0000 0.0000 'International Tables Vol C Tables 4.2.6.8 and 6.1.1.4'
F F 0.0171 0.0103 'International Tables Vol C Tables 4.2.6.8 and 6.1.1.4'
N N 0.0061 0.0033 'International Tables Vol C Tables 4.2.6.8 and 6.1.1.4'
O O 0.0106 0.0060 'International Tables Vol C Tables 4.2.6.8 and 6.1.1.4'
Pt Pt -1.7033 8.3905 'International Tables Vol C Tables 4.2.6.8 and 6.1.1.4'
S S 0.1246 0.1234 'International Tables Vol C Tables 4.2.6.8 and 6.1.1.4'
Tl Tl -2.8358 9.6688 'International Tables Vol C Tables 4.2.6.8 and 6.1.1.4'
loop_
_geom_angle_atom_site_label_1
_geom_angle_atom_site_label_2
_geom_angle_atom_site_label_3
_geom_angle
C1 Pt1 Tl1 95.87(13)
C2 Pt1 Tl1 95.91(13)
C2 Pt1 C1 165.3(2)
O1 S1 O2 118.7(3)
O1 S1 C63 100.8(4)
O2 S1 C63 106.0(4)
O3 S1 O1 112.4(3)
O3 S1 O2 113.0(4)
O3 S1 C63 103.7(5)
C1 N1 C3 170.6(4)
C22 C30 H30 107.6
C22 C30 C32 111.4(4)
C31 C30 H30 107.6
C31 C30 C22 112.2(4)
C31 C30 C32 110.2(4)
C32 C30 H30 107.6
C2 N2 C33 165.6(4)
N1 C1 Pt1 171.0(4)
N1 C3 C4 117.0(4)
C8 C3 N1 118.9(4)
C8 C3 C4 124.1(4)
C3 C8 C9 120.3(4)
C7 C8 C3 116.9(4)
C7 C8 C9 122.7(4)
C14 C9 C8 118.6(4)
C10 C9 C8 120.8(4)
C10 C9 C14 120.6(4)
C9 C14 C15 121.6(4)
C13 C14 C9 118.3(5)
C13 C14 C15 120.0(4)
C14 C15 H15 107.3
C14 C15 C16 111.5(4)
C14 C15 C17 111.0(4)
C16 C15 H15 107.3
C16 C15 C17 112.1(4)
C17 C15 H15 107.3
C15 C16 H16A 109.5
C15 C16 H16B 109.5
C15 C16 H16C 109.5
H16A C16 H16B 109.5
H16A C16 H16C 109.5
H16B C16 H16C 109.5
C15 C17 H17A 109.5
C15 C17 H17B 109.5
C15 C17 H17C 109.5
H17A C17 H17B 109.5
H17A C17 H17C 109.5
H17B C17 H17C 109.5
C14 C13 H13 119.4
C12 C13 C14 121.3(4)
C12 C13 H13 119.4
C13 C12 H12 120.0
C13 C12 C11 120.0(4)
C11 C12 H12 120.0
C12 C11 H11 119.5
C12 C11 C10 121.0(5)
C10 C11 H11 119.5
C9 C10 C18 121.7(4)
C11 C10 C9 118.8(4)
C11 C10 C18 119.5(4)
C10 C18 H18 108.0
C10 C18 C19 111.8(4)
C20 C18 C10 110.3(4)
C20 C18 H18 108.0
C20 C18 C19 110.7(5)
C19 C18 H18 108.0
C18 C20 H20A 109.5
C18 C20 H20B 109.5
C18 C20 H20C 109.5
H20A C20 H20B 109.5
H20A C20 H20C 109.5
H20B C20 H20C 109.5
C18 C19 H19A 109.5
C18 C19 H19B 109.5
C18 C19 H19C 109.5
H19A C19 H19B 109.5
H19A C19 H19C 109.5
H19B C19 H19C 109.5
C8 C7 H7 119.5
C6 C7 C8 121.0(4)
C6 C7 H7 119.5
C7 C6 H6 119.8
C7 C6 C5 120.4(4)
C5 C6 H6 119.8
C6 C5 H5 119.6
C4 C5 C6 120.8(4)
C4 C5 H5 119.6
C3 C4 C21 119.7(4)
C5 C4 C3 116.7(4)
C5 C4 C21 123.5(4)
C22 C21 C4 118.7(5)
C26 C21 C4 120.2(4)
C26 C21 C22 121.1(4)
C21 C22 C30 122.0(4)
C23 C22 C30 119.2(4)
C23 C22 C21 118.8(5)
C30 C31 H31A 109.5
C30 C31 H31B 109.5
C30 C31 H31C 109.5
H31A C31 H31B 109.5
H31A C31 H31C 109.5
H31B C31 H31C 109.5
C30 C32 H32A 109.5
C30 C32 H32B 109.5
C30 C32 H32C 109.5
H32A C32 H32B 109.5
H32A C32 H32C 109.5
H32B C32 H32C 109.5
C22 C23 H23 119.8
C24 C23 C22 120.5(5)
C24 C23 H23 119.8
C23 C24 H24 119.8
C23 C24 C25 120.4(5)
C25 C24 H24 119.8
C24 C25 H25 119.6
C24 C25 C26 120.7(5)
C26 C25 H25 119.6
C21 C26 C27 121.9(5)
C25 C26 C21 118.5(5)
C25 C26 C27 119.6(5)
C26 C27 H27 107.5
C28 C27 C26 113.0(5)
C28 C27 H27 107.5
C29 C27 C26 111.6(5)
C29 C27 H27 107.5
C29 C27 C28 109.5(6)
C27 C28 H28A 109.5
C27 C28 H28B 109.5
C27 C28 H28C 109.5
H28A C28 H28B 109.5
H28A C28 H28C 109.5
H28B C28 H28C 109.5
C27 C29 H29A 109.5
C27 C29 H29B 109.5
C27 C29 H29C 109.5
H29A C29 H29B 109.5
H29A C29 H29C 109.5
H29B C29 H29C 109.5
N2 C2 Pt1 170.0(4)
N2 C33 C38 116.9(4)
N2 C33 C34 119.8(4)
C34 C33 C38 123.3(4)
C33 C38 C39 119.9(4)
C37 C38 C33 116.6(4)
C37 C38 C39 123.5(4)
C38 C37 H37 119.2
C38 C37 C36 121.5(4)
C36 C37 H37 119.2
C37 C36 H36 119.9
C37 C36 C35 120.2(4)
C35 C36 H36 119.9
C36 C35 H35 119.5
C34 C35 C36 121.1(4)
C34 C35 H35 119.5
C33 C34 C48 120.9(4)
C35 C34 C33 117.3(4)
C35 C34 C48 121.8(4)
C49 C48 C34 120.4(4)
C49 C48 C53 120.4(4)
C53 C48 C34 119.1(4)
C48 C49 C57 121.7(4)
C50 C49 C48 119.2(4)
C50 C49 C57 119.1(4)
C49 C50 H50 119.7
C51 C50 C49 120.5(5)
C51 C50 H50 119.7
C50 C51 H51 119.9
C52 C51 C50 120.3(4)
C52 C51 H51 119.9
C51 C52 H52 119.2
C51 C52 C53 121.7(5)
C53 C52 H52 119.2
C48 C53 C54 122.6(4)
C52 C53 C48 117.9(4)
C52 C53 C54 119.3(4)
C53 C54 H54 107.6
C53 C54 C56 110.8(4)
C53 C54 C55 112.1(4)
C56 C54 H54 107.6
C55 C54 H54 107.6
C55 C54 C56 111.0(4)
C54 C56 H56A 109.5
C54 C56 H56B 109.5
C54 C56 H56C 109.5
H56A C56 H56B 109.5
H56A C56 H56C 109.5
H56B C56 H56C 109.5
C54 C55 H55A 109.5
C54 C55 H55B 109.5
C54 C55 H55C 109.5
H55A C55 H55B 109.5
H55A C55 H55C 109.5
H55B C55 H55C 109.5
C49 C57 H57 107.7
C58 C57 C49 112.3(4)
C58 C57 H57 107.7
C58 C57 C59 110.4(4)
C59 C57 C49 110.9(4)
C59 C57 H57 107.7
C57 C58 H58A 109.5
C57 C58 H58B 109.5
C57 C58 H58C 109.5
H58A C58 H58B 109.5
H58A C58 H58C 109.5
H58B C58 H58C 109.5
C57 C59 H59A 109.5
C57 C59 H59B 109.5
C57 C59 H59C 109.5
H59A C59 H59B 109.5
H59A C59 H59C 109.5
H59B C59 H59C 109.5
C40 C39 C38 120.0(4)
C40 C39 C44 120.7(4)
C44 C39 C38 119.2(4)
C39 C40 C41 118.4(5)
C39 C40 C60 121.5(4)
C41 C40 C60 120.1(4)
C40 C41 H41 119.3
C42 C41 C40 121.5(5)
C42 C41 H41 119.3
C41 C42 H42 120.4
C43 C42 C41 119.2(5)
C43 C42 H42 120.4
C42 C43 H43 119.0
C42 C43 C44 122.0(5)
C44 C43 H43 119.0
C39 C44 C45 121.0(4)
C43 C44 C39 118.2(5)
C43 C44 C45 120.7(5)
C44 C45 H45 107.6
C44 C45 C47 110.3(4)
C44 C45 C46 113.3(5)
C47 C45 H45 107.6
C47 C45 C46 110.3(5)
C46 C45 H45 107.6
C45 C47 H47A 109.5
C45 C47 H47B 109.5
C45 C47 H47C 109.5
H47A C47 H47B 109.5
H47A C47 H47C 109.5
H47B C47 H47C 109.5
C45 C46 H46A 109.5
C45 C46 H46B 109.5
C45 C46 H46C 109.5
H46A C46 H46B 109.5
H46A C46 H46C 109.5
H46B C46 H46C 109.5
C40 C60 H60 107.8
C40 C60 C61 109.9(5)
C40 C60 C62 112.9(5)
C61 C60 H60 107.8
C61 C60 C62 110.4(5)
C62 C60 H60 107.8
C60 C61 H61A 109.5
C60 C61 H61B 109.5
C60 C61 H61C 109.5
H61A C61 H61B 109.5
H61A C61 H61C 109.5
H61B C61 H61C 109.5
C60 C62 H62A 109.5
C60 C62 H62B 109.5
C60 C62 H62C 109.5
H62A C62 H62B 109.5
H62A C62 H62C 109.5
H62B C62 H62C 109.5
F2 C63 S1 111.9(6)
F2 C63 F3 106.7(8)
F2 C63 F1 114.6(10)
F3 C63 S1 111.9(8)
F1 C63 S1 110.3(7)
F1 C63 F3 100.9(8)
loop_
_geom_bond_atom_site_label_1
_geom_bond_atom_site_label_2
_geom_bond_distance
Pt1 Tl1 2.8617(3)
Pt1 C1 1.919(5)
Pt1 C2 1.916(5)
S1 O1 1.417(5)
S1 O2 1.424(6)
S1 O3 1.413(6)
S1 C63 1.806(8)
N1 C1 1.155(6)
N1 C3 1.398(5)
F2 C63 1.287(10)
F3 C63 1.306(12)
C30 H30 1.0000
C30 C22 1.522(7)
C30 C31 1.521(7)
C30 C32 1.532(7)
N2 C2 1.159(6)
N2 C33 1.394(6)
C3 C8 1.391(6)
C3 C4 1.399(6)
C8 C9 1.501(6)
C8 C7 1.389(6)
C9 C14 1.408(6)
C9 C10 1.400(7)
C14 C15 1.517(7)
C14 C13 1.390(6)
C15 H15 1.0000
C15 C16 1.520(6)
C15 C17 1.530(7)
C16 H16A 0.9800
C16 H16B 0.9800
C16 H16C 0.9800
C17 H17A 0.9800
C17 H17B 0.9800
C17 H17C 0.9800
C13 H13 0.9500
C13 C12 1.370(7)
C12 H12 0.9500
C12 C11 1.381(7)
C11 H11 0.9500
C11 C10 1.384(6)
C10 C18 1.528(6)
C18 H18 1.0000
C18 C20 1.519(7)
C18 C19 1.531(6)
C20 H20A 0.9800
C20 H20B 0.9800
C20 H20C 0.9800
C19 H19A 0.9800
C19 H19B 0.9800
C19 H19C 0.9800
C7 H7 0.9500
C7 C6 1.387(6)
C6 H6 0.9500
C6 C5 1.391(7)
C5 H5 0.9500
C5 C4 1.390(6)
C4 C21 1.492(6)
C21 C22 1.408(7)
C21 C26 1.394(7)
C22 C23 1.388(6)
C31 H31A 0.9800
C31 H31B 0.9800
C31 H31C 0.9800
C32 H32A 0.9800
C32 H32B 0.9800
C32 H32C 0.9800
C23 H23 0.9500
C23 C24 1.379(7)
C24 H24 0.9500
C24 C25 1.386(7)
C25 H25 0.9500
C25 C26 1.392(7)
C26 C27 1.523(7)
C27 H27 1.0000
C27 C28 1.518(9)
C27 C29 1.507(8)
C28 H28A 0.9800
C28 H28B 0.9800
C28 H28C 0.9800
C29 H29A 0.9800
C29 H29B 0.9800
C29 H29C 0.9800
C33 C38 1.411(6)
C33 C34 1.398(6)
C38 C37 1.385(6)
C38 C39 1.495(6)
C37 H37 0.9500
C37 C36 1.385(6)
C36 H36 0.9500
C36 C35 1.387(6)
C35 H35 0.9500
C35 C34 1.383(6)
C34 C48 1.506(6)
C48 C49 1.398(7)
C48 C53 1.407(6)
C49 C50 1.392(6)
C49 C57 1.526(6)
C50 H50 0.9500
C50 C51 1.375(7)
C51 H51 0.9500
C51 C52 1.363(7)
C52 H52 0.9500
C52 C53 1.396(7)
C53 C54 1.517(7)
C54 H54 1.0000
C54 C56 1.529(8)
C54 C55 1.529(7)
C56 H56A 0.9800
C56 H56B 0.9800
C56 H56C 0.9800
C55 H55A 0.9800
C55 H55B 0.9800
C55 H55C 0.9800
C57 H57 1.0000
C57 C58 1.517(8)
C57 C59 1.520(7)
C58 H58A 0.9800
C58 H58B 0.9800
C58 H58C 0.9800
C59 H59A 0.9800
C59 H59B 0.9800
C59 H59C 0.9800
C39 C40 1.396(6)
C39 C44 1.406(7)
C40 C41 1.398(7)
C40 C60 1.518(7)
C41 H41 0.9500
C41 C42 1.381(8)
C42 H42 0.9500
C42 C43 1.367(8)
C43 H43 0.9500
C43 C44 1.394(6)
C44 C45 1.519(7)
C45 H45 1.0000
C45 C47 1.525(8)
C45 C46 1.536(8)
C47 H47A 0.9800
C47 H47B 0.9800
C47 H47C 0.9800
C46 H46A 0.9800
C46 H46B 0.9800
C46 H46C 0.9800
C60 H60 1.0000
C60 C61 1.520(8)
C60 C62 1.524(7)
C61 H61A 0.9800
C61 H61B 0.9800
C61 H61C 0.9800
C62 H62A 0.9800
C62 H62B 0.9800
C62 H62C 0.9800
C63 F1 1.291(12)
