#------------------------------------------------------------------------------
#$Date: 2016-02-04 09:46:42 +0200 (Thu, 04 Feb 2016) $
#$Revision: 175821 $
#$URL: svn://www.crystallography.net/cod/cif/1/54/19/1541913.cif $
#------------------------------------------------------------------------------
#
# This file is available in the Crystallography Open Database (COD),
# http://www.crystallography.net/
#
# All data on this site have been placed in the public domain by the
# contributors.
#
data_1541913
loop_
_publ_author_name
'Gerstner, Nels C.'
'Adams, Christopher S.'
'Grigg, R. David'
'Tretbar, Maik'
'Rigoli, Jared W.'
'Schomaker, Jennifer M.'
_publ_section_title
;
 Diastereoselective Synthesis of the Aminocyclitol Core of Jogyamycin via
 an Allene Aziridination Strategy.
;
_journal_issue                   2
_journal_name_full               'Organic letters'
_journal_page_first              284
_journal_page_last               287
_journal_paper_doi               10.1021/acs.orglett.5b03453
_journal_volume                  18
_journal_year                    2016
_chemical_compound_source        'Schomaker Lab No. NCG2072'
_chemical_formula_moiety         'C14 H25 N O5 S Si'
_chemical_formula_sum            'C14 H25 N O5 S Si'
_chemical_formula_weight         347.50
_chemical_melting_point          ?
_chemical_name_systematic
;
1-((4S,5R)-5-((tert-butyldimethylsilyl)oxy)-4-ethynyl-2,2-dioxido-
1,2,3-oxathiazepan-4-yl)ethanone
;
_space_group_crystal_system      orthorhombic
_space_group_IT_number           29
_space_group_name_Hall           'P 2c -2ac'
_space_group_name_H-M_alt        'P c a 21'
_symmetry_space_group_name_Hall  'P 2c -2ac'
_symmetry_space_group_name_H-M   'P c a 21'
_atom_sites_solution_hydrogens   mixed
_audit_creation_date             2014-06-10
_audit_creation_method
;
Olex2 1.2
(compiled 2013.09.17 svn.r2790 for OlexSys, GUI svn.r4601)
;
_cell_angle_alpha                90
_cell_angle_beta                 90
_cell_angle_gamma                90
_cell_formula_units_Z            4
_cell_length_a                   16.204(3)
_cell_length_b                   10.0147(17)
_cell_length_c                   11.186(2)
_cell_measurement_reflns_used    9514
_cell_measurement_temperature    193(2)
_cell_measurement_theta_max      72.7116
_cell_measurement_theta_min      4.4150
_cell_volume                     1815.2(6)
_computing_structure_refinement  'SHELXL-2013 (Sheldrick, 2013)'
_diffrn_ambient_temperature      193(2)
_diffrn_measured_fraction_theta_full 0.995
_diffrn_measured_fraction_theta_max 0.997
_diffrn_measurement_device       'three-circle diffractometer'
_diffrn_measurement_device_type  'Bruker P4'
_diffrn_measurement_method       '\w scans'
_diffrn_radiation_collimation    '0.5 mm double-pinhole'
_diffrn_radiation_monochromator  graphite
_diffrn_radiation_probe          x-ray
_diffrn_radiation_type           CuK\a
_diffrn_radiation_wavelength     1.54184
_diffrn_radiation_xray_symbol    K-L~3~
_diffrn_reflns_av_R_equivalents  0.0254
_diffrn_reflns_av_unetI/netI     0.0176
_diffrn_reflns_laue_measured_fraction_full 0.995
_diffrn_reflns_laue_measured_fraction_max 0.997
_diffrn_reflns_limit_h_max       20
_diffrn_reflns_limit_h_min       -20
_diffrn_reflns_limit_k_max       11
_diffrn_reflns_limit_k_min       -12
_diffrn_reflns_limit_l_max       13
_diffrn_reflns_limit_l_min       -13
_diffrn_reflns_number            29296
_diffrn_reflns_point_group_measured_fraction_full 0.997
_diffrn_reflns_point_group_measured_fraction_max 0.960
_diffrn_reflns_theta_full        26.000
_diffrn_reflns_theta_max         73.018
_diffrn_reflns_theta_min         4.415
_diffrn_source                   'sealed X-ray tube'
_diffrn_source_type              'Siemens, K FFCU 2K 90'
_diffrn_standards_decay_%        <1
_exptl_absorpt_coefficient_mu    2.404
_exptl_absorpt_correction_T_max  0.7536
_exptl_absorpt_correction_T_min  0.6591
_exptl_absorpt_correction_type   analytical
_exptl_absorpt_process_details   'SADABS 2012'
_exptl_crystal_colour            colorless
_exptl_crystal_density_diffrn    1.272
_exptl_crystal_density_method    'not measured'
_exptl_crystal_description       block
_exptl_crystal_F_000             744
_exptl_crystal_recrystallization_method
'crystallized from diethyl ether and pentane using vapor diffusion.'
_exptl_crystal_size_max          0.26
_exptl_crystal_size_mid          0.24
_exptl_crystal_size_min          0.20
_refine_diff_density_max         0.996
_refine_diff_density_min         -0.276
_refine_diff_density_rms         0.053
_refine_ls_abs_structure_details
;
 Flack x determined using 1531 quotients [(I+)-(I-)]/[(I+)+(I-)]
 (Parsons and Flack (2004), Acta Cryst. A60, s61).
;
_refine_ls_abs_structure_Flack   0.046(5)
_refine_ls_extinction_method     none
_refine_ls_goodness_of_fit_ref   1.125
_refine_ls_hydrogen_treatment    mixed
_refine_ls_matrix_type           full
_refine_ls_number_parameters     209
_refine_ls_number_reflns         3495
_refine_ls_number_restraints     2
_refine_ls_restrained_S_all      1.125
_refine_ls_R_factor_all          0.0333
_refine_ls_R_factor_gt           0.0330
_refine_ls_shift/su_max          0.000
_refine_ls_shift/su_mean         0.000
_refine_ls_structure_factor_coef Fsqd
_refine_ls_weighting_details
'w=1/[\s^2^(Fo^2^)+(0.0574P)^2^+0.6694P] where P=(Fo^2^+2Fc^2^)/3'
_refine_ls_weighting_scheme      calc
_refine_ls_wR_factor_gt          0.0919
_refine_ls_wR_factor_ref         0.0921
_reflns_Friedel_coverage         0.824
_reflns_friedel_fraction_full    1.000
_reflns_friedel_fraction_max     0.919
_reflns_number_gt                3456
_reflns_number_total             3495
_reflns_threshold_expression     'I > 2\s(I)'
_cod_data_source_file            ol5b03453_si_003.cif
_cod_data_source_block           schomaker42
_cod_depositor_comments
;
The following automatic conversions were performed:

'_chemical_melting_point' value 'not determined' was changed to '?' -
the value is undefined or not given.

Automatic conversion script
Id: cif_fix_values 4268 2015-11-12 08:31:59Z antanas 

 Adding full bibliography for 1541913--1541914.cif.
;
_cod_original_cell_volume        1815.1(6)
_cod_database_code               1541913
_shelx_space_group_comment
;
The symmetry employed for this shelxl refinement is uniquely defined
by the following loop, which should always be used as a source of
symmetry information in preference to the above space-group names.
They are only intended as comments.
;
_shelx_res_file
;
TITL Schomaker42 in Pca2(1)
CELL 1.54184 16.2037 10.0147 11.1855 90 90 90
ZERR 4 0.0031 0.0017 0.0023 0 0 0
LATT -1
SYMM -X,-Y,0.5+Z
SYMM 0.5+X,-Y,+Z
SYMM 0.5-X,+Y,0.5+Z

SFAC C H N O Si S
UNIT 56 100 4 20 4 4
DFIX 0.88 0.001 N2 H2

L.S. 12
PLAN  20
BOND
BOND $H
MORE -1
MORE -1
MORE -1
MORE -1
fmap 2
acta 52
CONF

WGHT    0.057400    0.669400
FVAR       0.19182
S1    6    0.137508    0.550343    0.099268    11.00000    0.01885    0.04051 =
         0.01628   -0.00866    0.00275   -0.01340
SI2   5    0.087477    0.104392   -0.177088    11.00000    0.01595    0.01903 =
         0.02021   -0.00078    0.00019    0.00173
O5    4    0.092418    0.247881   -0.099580    11.00000    0.01458    0.01936 =
         0.01944   -0.00120   -0.00091    0.00357
N2    3    0.073134    0.427654    0.083654    11.00000    0.01353    0.02519 =
         0.01460   -0.00095   -0.00106   -0.00188
O4    4   -0.026326    0.229017    0.112890    11.00000    0.02488    0.02827 =
         0.02849    0.00660    0.00386   -0.00279
O3    4    0.152621    0.605038   -0.029733    11.00000    0.02631    0.03014 =
         0.02047   -0.00795    0.00821   -0.01219
O2    4    0.100633    0.659596    0.159888    11.00000    0.04103    0.04361 =
         0.02824   -0.01831    0.01609   -0.02178
O1    4    0.210713    0.492403    0.146963    11.00000    0.02090    0.07266 =
         0.02841   -0.00492   -0.00617   -0.01437
C2    1    0.102669    0.464493   -0.192334    11.00000    0.02381    0.02098 =
         0.01657   -0.00318    0.00279   -0.00190
AFIX  23
H2A   2    0.121136    0.425489   -0.267067    11.00000   -1.20000
H2B   2    0.070063    0.542760   -0.211795    11.00000   -1.20000
AFIX   0
C10   1    0.174485    0.003919   -0.114281    11.00000    0.03096    0.02916 =
         0.03075   -0.00201   -0.01083    0.01189
C1    1    0.177519    0.508878   -0.122681    11.00000    0.02216    0.03139 =
         0.01961   -0.00697    0.01015   -0.00904
AFIX  23
H1A   2    0.203691    0.432119   -0.085806    11.00000   -1.20000
H1B   2    0.217045    0.550239   -0.176257    11.00000   -1.20000
AFIX   0
C6    1   -0.035169    0.541379   -0.031023    11.00000    0.01851    0.02438 =
         0.01999   -0.00327    0.00129    0.00078
C8    1   -0.014862    0.025033   -0.158080    11.00000    0.02408    0.02903 =
         0.05193   -0.01228    0.00526   -0.00402
AFIX 137
H8A   2   -0.023604    0.004906   -0.075129    11.00000   -1.50000
H8B   2   -0.016974   -0.055951   -0.203899    11.00000   -1.50000
H8C   2   -0.057081    0.084988   -0.185356    11.00000   -1.50000
AFIX   0
C4    1    0.009572    0.416995   -0.008195    11.00000    0.01137    0.01800 =
         0.01649   -0.00215   -0.00037   -0.00085
C7    1   -0.073262    0.636027   -0.060698    11.00000    0.03676    0.02605 =
         0.03371   -0.00206   -0.00290    0.00981
AFIX 163
H7    2   -0.103315    0.710696   -0.084109    11.00000   -1.20000
AFIX   0
C3    1    0.046890    0.363642   -0.128967    11.00000    0.01463    0.01628 =
         0.01614   -0.00219   -0.00170   -0.00019
AFIX  13
H3    2    0.001651    0.338830   -0.182705    11.00000   -1.20000
AFIX   0
C5    1   -0.134294    0.300303   -0.015186    11.00000    0.01516    0.03423 =
         0.03339   -0.00448    0.00139   -0.00639
AFIX 137
H5A   2   -0.156564    0.212151   -0.005385    11.00000   -1.50000
H5B   2   -0.131040    0.321301   -0.098794    11.00000   -1.50000
H5C   2   -0.169466    0.363758    0.024084    11.00000   -1.50000
AFIX   0
C9    1   -0.049819    0.306067    0.038653    11.00000    0.01519    0.02013 =
         0.01895   -0.00533    0.00500   -0.00061
C12   1    0.187203   -0.121688   -0.190411    11.00000    0.03816    0.02906 =
         0.03692   -0.00905   -0.01106    0.01846
AFIX 137
H12A  2    0.136568   -0.171288   -0.194064    11.00000   -1.50000
H12B  2    0.229460   -0.176106   -0.155126    11.00000   -1.50000
H12C  2    0.203547   -0.096329   -0.269721    11.00000   -1.50000
AFIX   0
C11   1    0.101630    0.137671   -0.339941    11.00000    0.05272    0.03184 =
         0.01866    0.00057   -0.00193    0.00681
AFIX 137
H11A  2    0.057581    0.193508   -0.368133    11.00000   -1.50000
H11B  2    0.101130    0.054706   -0.382928    11.00000   -1.50000
H11C  2    0.153461    0.181919   -0.352545    11.00000   -1.50000
AFIX   0
C13   1    0.153456   -0.035351    0.016214    11.00000    0.07328    0.04707 =
         0.02611    0.00880   -0.01065    0.02185
AFIX 137
H13A  2    0.141275    0.043641    0.061522    11.00000   -1.50000
H13B  2    0.199731   -0.080571    0.051327    11.00000   -1.50000
H13C  2    0.106333   -0.093451    0.016635    11.00000   -1.50000
AFIX   0
C14   1    0.254306    0.087642   -0.118169    11.00000    0.02143    0.04744 =
         0.08348   -0.02129   -0.01736    0.00721
AFIX 137
H14A  2    0.263166    0.119665   -0.198039    11.00000   -1.50000
H14B  2    0.300202    0.033242   -0.094227    11.00000   -1.50000
H14C  2    0.249244    0.162142   -0.064661    11.00000   -1.50000
AFIX   0
H2    2    0.097467    0.351324    0.100239    11.00000    0.03410
HKLF 4

REM  Schomaker42 in Pca2(1)
REM R1 =  0.0330 for    3456 Fo > 4sig(Fo)  and  0.0333 for all    3495 data
REM    209 parameters refined using      2 restraints

END

WGHT      0.0574      0.6696

REM Highest difference peak  0.996,  deepest hole -0.276,  1-sigma level  0.053
Q1    1   0.1009  0.0812 -0.0954  11.00000  0.05    1.00
Q2    1   0.0966  0.1096 -0.2605  11.00000  0.05    0.44
Q3    1   0.1379  0.5592  0.0222  11.00000  0.05    0.43
Q4    1   0.1011  0.4955  0.0853  11.00000  0.05    0.30
Q5    1   0.0958  0.2040 -0.1641  11.00000  0.05    0.26
Q6    1   0.1418  0.6037  0.1646  11.00000  0.05    0.25
Q7    1   0.1626  0.5261  0.1713  11.00000  0.05    0.25
Q8    1   0.0562  0.4183  0.0226  11.00000  0.05    0.24
Q9    1   0.1519  0.0839 -0.3330  11.00000  0.05    0.23
Q10   1   0.0949  0.6232  0.1086  11.00000  0.05    0.23
Q11   1   0.0171  0.3929 -0.0738  11.00000  0.05    0.23
Q12   1   0.0350  0.0679 -0.1728  11.00000  0.05    0.23
Q13   1   0.1042  0.2439 -0.0340  11.00000  0.05    0.22
Q14   1  -0.0291  0.5977 -0.0768  11.00000  0.05    0.22
Q15   1   0.1917  0.0514 -0.2052  11.00000  0.05    0.21
Q16   1  -0.0197  0.3590  0.0050  11.00000  0.05    0.19
Q17   1   0.1388  0.4917 -0.1620  11.00000  0.05    0.19
Q18   1   0.1725  0.5468 -0.0610  11.00000  0.05    0.19
Q19   1   0.1350  0.0366 -0.1662  11.00000  0.05    0.19
Q20   1  -0.0899  0.2809 -0.0014  11.00000  0.05    0.18
;
_shelx_res_checksum              1582
_shelx_hkl_file
;
   0  -1   0  407.63   11.29
   0  -1   0  396.57   11.03
   0  -1   0  415.22   13.01
   0  -1   0  400.74   10.99
   0  -1   0  393.61   12.29
   0  -1   0  384.13   13.17
   0   1   0  394.77   13.16
   0  -2   0  747.00   25.27
   0   2   0  761.79   25.23
   0  -2   0  746.70   21.08
   0  -2   0  767.26   23.59
   0  -2   0  771.78   21.69
   0  -2   0  769.44   21.67
   0  -2   0  793.77   21.18
   0  -2   0  762.18   24.94
   0  -3   0   10.01    0.50
   0  -3   0   10.45    0.56
   0  -3   0    9.44    0.59
   0  -3   0    9.64    0.55
   0   3   0    9.32    0.47
   0  -3   0    9.96    0.53
   0  -3   0    9.73    0.51
   0  -3   0    9.21    0.44
   0  -4   0    0.66    0.21
   0  -4   0    0.93    0.27
   0  -4   0    0.87    0.24
   0  -4   0    0.82    0.23
   0  -4   0    0.53    0.17
   0  -4   0    1.02    0.24
   0  -5   0   32.59    1.34
   0  -5   0   31.14    1.51
   0  -5   0   31.84    1.35
   0  -5   0   32.94    1.38
   0  -5   0   31.64    1.26
   0  -5   0   32.33    1.57
   0  -5   0   32.70    1.50
   0  -5   0   34.86    1.43
   0  -6   0   30.79    1.38
   0  -6   0   30.45    1.41
   0  -6   0   29.75    1.63
   0  -6   0   30.19    1.55
   0  -6   0   31.45    1.47
   0  -6   0   31.19    1.44
   0  -6   0   29.96    1.19
   0  -7   0    2.39    0.50
   0  -7   0    2.28    0.59
   0  -7   0    2.62    0.40
   0  -7   0    3.16    0.56
   0  -7   0    3.09    0.54
   0  -7   0    2.75    0.53
   0  -7   0    2.59    0.48
   0   8   0   10.43    0.57
   0  -8   0   11.05    0.67
   0  -8   0   11.03    0.98
   0  -8   0   12.25    0.75
   0  -8   0   11.52    0.87
   0  -9   0   85.39    2.47
   0  -9   0   85.92    3.17
   0  -9   0   86.72    2.88
   0  -9   0   81.61    3.48
   0 -10   0    0.17    0.22
   0 -10   0    0.17    0.19
   0 -11   0    6.39    0.55
   0 -11   0    7.53    0.58
   0 -12   0    2.43    0.27
   0   0   1    0.30    0.08
   0   0   1    0.30    0.05
   0   0   1    0.29    0.07
   0   0   1    0.40    0.06
   0   0   1    0.30    0.07
   0   0  -1    0.48    0.05
   0  -1   1    0.39    0.08
   0  -1   1    0.11    0.08
   0  -1   1    0.26    0.07
   0  -1  -1    0.13    0.08
   0  -1  -1    0.08    0.08
   0   1  -1    0.42    0.08
   0   1   1    0.14    0.07
   0   2   1    0.30    0.12
   0  -2   1    0.20    0.12
   0  -2   1    0.11    0.10
   0  -2  -1    0.02    0.11
   0  -2   1   -0.04    0.09
   0   2   1    0.31    0.12
   0  -2  -1    0.16    0.09
   0  -2  -1    0.13    0.14
   0  -2   1    0.46    0.11
   0  -2  -1    0.17    0.07
   0  -2   1    0.17    0.11
   0  -2   1    0.42    0.11
   0   2  -1    0.00    0.08
   0  -2  -1    0.06    0.12
   0  -2   1    0.14    0.11
   0  -3  -1    0.06    0.14
   0  -3   1    0.27    0.12
   0  -3   1   -0.03    0.11
   0  -3  -1    0.13    0.12
   0  -3  -1    0.10    0.13
   0   3  -1    0.09    0.10
   0  -3  -1    0.14    0.08
   0  -3   1    0.20    0.11
   0  -3   1    0.16    0.12
   0  -3  -1    0.12    0.13
   0  -3   1    0.49    0.17
   0  -3  -1    0.12    0.11
   0  -3   1    0.35    0.15
   0  -3   1    0.23    0.16
   0  -4   1    0.22    0.19
   0  -4   1    0.31    0.18
   0  -4   1    0.21    0.16
   0  -4   1   -0.01    0.12
   0   4  -1    0.15    0.13
   0  -4  -1    0.12    0.15
   0  -4  -1    0.13    0.10
   0  -4  -1    0.16    0.13
   0  -4  -1    0.17    0.13
   0  -4   1    0.13    0.16
   0  -4   1    0.13    0.14
   0  -4  -1    0.09    0.16
   0  -4  -1    0.14    0.14
   0   4  -1    0.23    0.15
   0  -4   1    0.10    0.12
   0  -4   1    0.05    0.15
   0  -4  -1    0.02    0.13
   0  -5   1   -0.01    0.19
   0  -5  -1    0.15    0.17
   0  -5  -1    0.18    0.16
   0  -5   1   -0.07    0.14
   0  -5  -1    0.23    0.21
   0  -5   1    0.21    0.17
   0  -5  -1    0.01    0.15
   0  -5  -1    0.24    0.20
   0  -5  -1    0.06    0.18
   0   5  -1    0.05    0.14
   0  -5   1    0.02    0.16
   0  -5   1   -0.04    0.15
   0  -5  -1    0.13    0.15
   0  -5   1   -0.08    0.18
   0  -5   1    0.13    0.16
   0  -5   1    0.05    0.16
   0  -5   1    0.03    0.17
   0  -6   1    0.01    0.14
   0  -6   1   -0.05    0.18
   0  -6  -1    0.23    0.24
   0  -6   1    0.55    0.32
   0  -6   1    0.10    0.19
   0  -6  -1    0.20    0.23
   0  -6   1   -0.27    0.19
   0  -6   1   -0.03    0.20
   0  -6  -1    0.04    0.16
   0  -6  -1   -0.20    0.20
   0  -6  -1    0.11    0.22
   0  -6  -1   -0.05    0.20
   0  -6   1    0.01    0.22
   0  -6  -1    0.09    0.26
   0  -7  -1    0.32    0.29
   0  -7   1   -0.04    0.25
   0  -7  -1    0.15    0.27
   0  -7   1   -0.14    0.33
   0  -7  -1    0.13    0.19
   0  -7  -1    0.41    0.36
   0  -7  -1    0.10    0.27
   0  -7  -1   -0.12    0.21
   0  -7  -1    0.28    0.24
   0  -7   1    0.57    0.29
   0   7   1    0.07    0.18
   0  -7   1    0.08    0.18
   0  -7   1    0.09    0.33
   0   8   1   -0.17    0.21
   0  -8   1    0.36    0.29
   0   8   1    0.00    0.22
   0   8  -1    0.16    0.20
   0  -8  -1    0.49    0.31
   0  -8  -1    0.00    0.18
   0  -8   1    0.24    0.33
   0  -8   1    0.40    0.20
   0  -8   1    0.39    0.23
   0  -8  -1    0.06    0.36
   0  -8  -1    0.36    0.41
   0   8   1    0.31    0.16
   0  -9  -1    0.10    0.29
   0  -9   1   -0.14    0.16
   0   9  -1    0.16    0.18
   0  -9   1    0.21    0.22
   0  -9  -1    0.10    0.21
   0   9   1    0.15    0.24
   0 -10   1    0.07    0.24
   0 -10   1    0.18    0.20
   0 -10  -1   -0.05    0.18
   0 -10   1   -0.03    0.15
   0  10  -1   -0.14    0.11
   0 -10  -1   -0.25    0.31
   0 -11  -1   -0.03    0.19
   0 -11   1    0.20    0.19
   0 -11   1    0.02    0.14
   0 -11   1    0.05    0.19
   0 -12   1    0.10    0.13
   0 -12  -1    0.08    0.15
   0   0   2  425.15   13.65
   0   0   2  421.49   11.51
   0   0   2  410.66   11.83
   0   0  -2  426.98   12.73
   0   0   2  394.74   11.84
   0   0   2  407.55   11.56
   0   1   2  809.62   22.90
   0   1   2  796.53   22.20
   0  -1   2  813.09   26.36
   0   1   2  821.90   22.38
   0  -1   2  810.64   22.32
   0   1  -2  808.39   26.60
   0   1   2  789.04   22.91
   0  -1  -2  838.17   26.41
   0  -1  -2  819.29   24.82
   0   1  -2  829.77   24.71
   0  -1   2  799.25   22.88
   0  -1   2  784.92   22.85
   0  -1   2  777.09   24.68
   0  -1   2  803.10   22.33
   0  -2   2   17.69    0.73
   0   2   2   17.91    0.80
   0  -2   2   18.84    0.86
   0  -2   2   17.37    0.73
   0  -2   2   18.26    0.73
   0  -2  -2   18.13    0.83
   0  -2   2   19.19    0.72
   0  -2  -2   18.99    0.57
   0  -2   2   19.05    0.77
   0   2  -2   19.10    0.80
   0   2   2   18.43    0.77
   0  -2   2   18.69    0.78
   0  -2  -2   19.22    0.91
   0   2   2   17.91    0.78
   0  -3   2  249.82    7.24
   0   3   2  253.05    7.27
   0  -3   2  239.63    8.27
   0   3  -2  237.51    8.30
   0  -3   2  252.25    8.28
   0  -3   2  240.90    7.06
   0  -3  -2  236.52    7.26
   0  -3   2  250.21    7.02
   0   3   2  246.49    7.09
   0  -3   2  254.05    7.19
   0  -3  -2  237.02    8.22
   0  -3  -2  237.93    8.29
   0  -3   2  241.37    7.77
   0  -4  -2   58.24    2.32
   0   4   2   59.15    2.12
   0   4  -2   57.27    2.02
   0  -4   2   58.99    2.33
   0   4  -2   60.19    2.27
   0  -4   2   57.73    1.99
   0  -4   2   60.05    2.05
   0  -4  -2   62.43    2.14
   0  -4  -2   60.71    2.36
   0  -4  -2   61.59    2.25
   0  -4   2   56.46    2.02
   0  -4   2   55.68    2.26
   0  -4   2   54.37    2.00
   0  -4  -2   60.88    2.06
   0  -4   2   55.09    2.08
   0  -4   2   57.46    2.12
   0  -4   2   57.99    2.22
   0  -5   2  106.45    3.32
   0  -5   2  108.16    3.40
   0  -5  -2  111.32    4.09
   0  -5  -2  112.25    3.71
   0  -5   2  112.12    3.64
   0  -5   2  105.49    3.61
   0  -5  -2  114.76    3.64
   0  -5  -2  105.13    3.66
   0   5  -2  111.92    3.62
   0  -5   2  108.08    3.69
   0  -5  -2  113.70    3.38
   0  -5   2  111.44    3.55
   0  -5   2  109.48    3.97
   0  -5   2  112.05    4.14
   0  -5   2  109.17    3.55
   0  -5  -2  114.84    3.71
   0  -5  -2  108.49    4.07
   0  -5  -2  113.54    4.15
   0  -6   2   16.64    0.76
   0   6  -2   16.29    0.83
   0  -6  -2   16.37    1.04
   0  -6   2   16.10    0.80
   0  -6  -2   15.10    0.97
   0  -6   2   16.72    1.00
   0  -6   2   17.44    1.04
   0  -6  -2   15.95    0.94
   0  -6  -2   15.77    1.01
   0  -6  -2   16.20    1.15
   0  -6  -2   15.94    1.03
   0  -6   2   16.96    1.22
   0  -6  -2   15.83    0.77
   0  -6   2   17.38    1.00
   0  -6   2   17.44    0.97
   0  -6   2   15.74    0.85
   0  -6   2   15.88    1.11
   0  -7  -2   28.01    1.51
   0  -7   2   25.52    1.15
   0  -7  -2   27.67    1.54
   0  -7  -2   26.89    1.70
   0  -7  -2   28.56    1.39
   0  -7   2   25.74    1.24
   0  -7  -2   27.05    1.51
   0  -7   2   24.74    1.41
   0  -7  -2   23.81    1.42
   0  -7  -2   27.80    1.15
   0   7   2   25.13    1.14
   0  -8  -2  102.00    3.94
   0  -8   2   97.58    3.88
   0   8   2  102.53    3.06
   0  -8   2  105.13    2.96
   0   8   2  104.25    3.19
   0  -8  -2  107.32    3.36
   0   8  -2  104.16    3.20
   0  -8  -2  107.60    3.81
   0  -8  -2  102.72    3.93
   0   8   2  107.79    3.42
   0  -8   2  106.36    3.39
   0   9   2    8.72    0.61
   0  -9   2    8.62    0.57
   0  -9  -2    7.64    0.62
   0   9   2    9.48    0.69
   0  -9   2    9.13    0.67
   0   9  -2    7.22    0.54
   0   9   2    7.90    0.57
   0  -9   2    8.33    0.66
   0  -9  -2    7.66    0.82
   0 -10  -2   21.62    1.29
   0 -10   2   27.72    1.12
   0  10  -2   24.34    0.92
   0 -10   2   25.24    1.18
   0 -10   2   26.43    1.03
   0  10   2   26.16    1.09
   0  10   2   26.14    1.08
   0 -10  -2   23.31    1.11
   0 -11   2   13.34    0.62
   0 -11   2   13.28    0.66
   0 -12   2    1.17    0.15
   0   0   3    0.19    0.12
   0   0   3    0.06    0.12
   0   0   3    0.23    0.14
   0   0   3    0.10    0.12
   0   0   3    0.18    0.13
   0   0  -3    0.10    0.07
   0   1   3    0.03    0.09
   0   1   3    0.02    0.13
   0  -1  -3   -0.05    0.08
   0  -1   3    0.24    0.15
   0  -1   3    0.05    0.11
   0  -1   3   -0.04    0.11
   0  -1   3    0.08    0.16
   0   1   3    0.02    0.13
   0   1   3    0.12    0.12
   0  -1   3    0.04    0.13
   0   1  -3    0.47    0.11
   0  -1  -3    0.08    0.14
   0  -1   3    0.09    0.11
   0   2   3    0.18    0.16
   0   2   3    0.15    0.15
   0  -2   3    0.03    0.13
   0  -2   3    0.13    0.08
   0   2  -3    0.18    0.12
   0  -2   3    0.08    0.14
   0  -2   3    0.19    0.14
   0  -2   3    0.08    0.12
   0  -2  -3    0.13    0.17
   0  -2   3    0.27    0.17
   0  -2   3    0.08    0.15
   0  -2  -3    0.12    0.13
   0   2   3    0.22    0.16
   0   3  -3   -0.01    0.12
   0  -3   3    0.19    0.16
   0   3   3    0.84    0.23
   0  -3   3    0.02    0.15
   0  -3   3    0.27    0.17
   0   3   3    0.69    0.20
   0  -3  -3    0.00    0.09
   0  -3   3   -0.03    0.16
   0  -3   3    0.14    0.14
   0  -3   3    0.14    0.14
   0  -3  -3    0.33    0.19
   0  -3   3    0.16    0.11
   0  -3  -3    0.38    0.22
   0  -3  -3   -0.08    0.14
   0  -4  -3    0.03    0.18
   0   4  -3    0.08    0.15
   0  -4  -3    0.07    0.12
   0  -4   3   -0.10    0.09
   0  -4   3    0.11    0.19
   0  -4   3    0.15    0.15
   0  -4   3    0.01    0.17
   0  -4   3    0.11    0.18
   0  -4  -3    0.19    0.21
   0  -4   3    0.02    0.15
   0  -4  -3    0.26    0.16
   0  -4   3    0.18    0.18
   0   4  -3   -0.10    0.14
   0   4   3    0.31    0.21
   0  -4  -3    0.01    0.17
   0  -4   3   -0.04    0.14
   0  -5   3    0.41    0.22
   0  -5  -3    0.15    0.20
   0  -5  -3    0.20    0.22
   0  -5  -3    0.30    0.22
   0  -5  -3    0.08    0.24
   0  -5   3    0.09    0.13
   0  -5   3    0.28    0.23
   0  -5   3    0.19    0.21
   0  -5  -3    0.05    0.16
   0   5  -3    0.22    0.20
   0  -5  -3    0.13    0.16
   0  -5  -3    0.20    0.25
   0  -5   3    0.24    0.23
   0   5  -3    0.22    0.20
   0  -5   3    0.28    0.24
   0  -5   3    0.11    0.15
   0  -6  -3    0.14    0.16
   0  -6  -3    0.06    0.24
   0  -6   3    0.14    0.17
   0   6  -3    0.24    0.22
   0  -6   3    0.11    0.26
   0   6   3    0.04    0.18
   0  -6  -3    0.11    0.24
   0  -6  -3    0.11    0.30
   0  -6   3   -0.03    0.24
   0  -6   3    0.16    0.15
   0  -6  -3    0.13    0.25
   0  -6  -3    0.19    0.22
   0  -7  -3    0.27    0.20
   0  -7  -3   -0.15    0.22
   0  -7   3    0.36    0.20
   0  -7  -3    0.53    0.29
   0  -7  -3    0.21    0.31
   0  -7   3    0.02    0.28
   0   7   3    0.15    0.18
   0   7  -3    0.48    0.21
   0  -7  -3    0.06    0.29
   0  -8  -3    0.30    0.22
   0   8   3    0.06    0.19
   0   8  -3    0.31    0.22
   0  -8   3    0.25    0.26
   0  -8  -3    0.00    0.37
   0  -8   3    0.35    0.39
   0  -8  -3    0.06    0.29
   0  -8   3    0.00    0.19
   0   8  -3    0.27    0.24
   0  -8   3   -0.02    0.21
   0   8   3   -0.12    0.20
   0   8   3    0.21    0.22
   0   8   3   -0.02    0.15
   0   9   3    0.23    0.25
   0   9   3    0.19    0.20
   0   9  -3    0.07    0.22
   0  -9   3   -0.03    0.17
   0   9   3    0.14    0.17
   0  -9  -3    0.15    0.21
   0   9   3    0.29    0.20
   0  -9   3    0.03    0.23
   0  -9   3   -0.24    0.20
   0  -9  -3    0.68    0.38
   0  10  -3    0.07    0.17
   0 -10  -3    0.18    0.21
   0  10   3    0.37    0.19
   0 -10   3    0.02    0.19
   0 -10   3    0.25    0.22
   0 -10   3   -0.23    0.16
   0  10   3   -0.13    0.21
   0 -10  -3    0.12    0.32
   0  10   3    0.01    0.17
   0 -11   3    0.19    0.14
   0  11   3    0.00    0.15
   0  11   3   -0.06    0.15
   0 -11   3   -0.01    0.15
   0   0  -4  647.52   20.83
   0   0   4  685.85   18.91
   0   0   4  669.70   19.47
   0   0   4  680.59   19.46
   0   0   4  685.71   22.44
   0   0   4  683.98   20.97
   0   0   4  693.93   19.02
   0   1   4   76.11    2.31
   0   1   4   77.40    2.54
   0  -1  -4   67.38    2.52
   0  -1   4   75.95    2.69
   0   1   4   77.83    2.71
   0  -1   4   80.29    2.45
   0  -1   4   79.01    2.51
   0   1   4   74.86    2.46
   0  -1   4   76.71    2.88
   0  -1   4   71.06    2.49
   0  -1  -4   69.67    2.90
   0  -1   4   76.25    2.44
   0   1  -4   67.67    2.61
   0   1   4   75.93    2.55
   0  -2   4  120.88    4.02
   0  -2  -4  124.83    3.98
   0  -2  -4  125.62    4.40
   0   2   4  113.10    3.66
   0   2  -4  122.53    4.12
   0  -2   4  113.94    4.25
   0  -2   4  117.42    3.61
   0  -2   4  111.70    3.71
   0   2   4  113.66    3.74
   0   2   4  112.55    3.97
   0   2   4  115.49    3.77
   0  -2   4  111.28    3.54
   0  -2   4  114.80    3.65
   0   2   4  111.72    3.37
   0  -2   4  115.83    3.68
   0  -3  -4  130.43    4.43
   0  -3   4  124.93    3.96
   0  -3   4  130.36    4.12
   0  -3   4  130.06    4.17
   0  -3   4  132.26    4.47
   0  -3  -4  131.00    4.50
   0   3   4  127.16    4.10
   0  -3   4  130.37    4.76
   0  -3  -4  131.03    4.43
   0  -3  -4  129.42    4.83
   0  -3   4  130.28    4.11
   0   3   4  128.24    4.21
   0  -3   4  131.34    4.02
   0   3  -4  130.35    4.64
   0  -4   4   74.26    2.58
   0   4  -4   72.28    2.57
   0   4  -4   75.75    2.87
   0   4   4   74.31    2.63
   0  -4   4   72.40    2.64
   0  -4  -4   73.11    2.71
   0  -4   4   71.92    2.50
   0  -4  -4   73.87    3.03
   0  -4   4   68.72    2.76
   0  -4   4   73.25    2.62
   0  -4   4   75.28    2.99
   0   4   4   68.26    2.65
   0  -4   4   70.73    2.39
   0  -4  -4   74.67    2.70
   0  -4  -4   74.45    2.88
   0  -5   4   43.89    2.07
   0  -5   4   43.11    1.85
   0  -5   4   42.56    1.59
   0   5   4   41.63    1.57
   0  -5  -4   43.14    1.86
   0  -5  -4   43.53    1.87
   0  -5   4   44.08    1.87
   0   5   4   43.81    1.92
   0  -5   4   44.69    1.77
   0   5  -4   43.13    1.94
   0  -5  -4   43.62    1.90
   0  -5  -4   41.93    2.03
   0   5  -4   42.23    1.71
   0  -5   4   43.09    1.79
   0  -5  -4   42.64    2.09
   0  -5   4   42.30    1.50
   0   6   4   32.41    1.36
   0  -6  -4   35.21    1.90
   0  -6   4   30.70    1.29
   0  -6  -4   34.89    1.71
   0  -6  -4   35.49    1.72
   0   6  -4   36.14    1.50
   0  -6  -4   34.75    1.69
   0  -6   4   32.88    1.64
   0  -6  -4   34.97    1.69
   0  -6   4   32.52    1.65
   0  -6   4   31.86    1.36
   0  -6  -4   36.25    1.32
   0  -7  -4   34.54    1.70
   0   7   4   32.41    1.39
   0  -7   4   32.57    1.36
   0   7   4   31.02    1.30
   0  -7  -4   34.44    1.79
   0  -7   4   33.60    1.40
   0  -7   4   30.17    1.21
   0  -7  -4   34.72    1.34
   0  -7   4   30.87    1.35
   0  -7  -4   31.72    1.75
   0   7  -4   35.13    1.50
   0  -7  -4   35.08    1.84
   0  -7   4   32.84    1.74
   0   8  -4   34.14    1.35
   0  -8  -4   31.88    1.29
   0   8   4   28.16    1.19
   0  -8   4   29.14    1.17
   0  -8   4   28.55    1.21
   0   8   4   30.60    1.34
   0  -8   4   30.57    1.33
   0  -8   4   28.36    1.70
   0  -8  -4   29.34    1.75
   0   8   4   29.70    1.04
   0   8   4   30.53    1.26
   0   8  -4   31.78    1.14
   0  -8  -4   32.63    1.63
   0   9   4   71.67    2.44
   0  -9   4   67.08    2.10
   0  -9   4   67.12    2.37
   0  -9  -4   68.34    2.33
   0   9   4   67.02    2.24
   0  -9   4   69.29    2.22
   0   9  -4   68.44    2.01
   0   9   4   66.56    2.17
   0   9  -4   67.83    2.25
   0 -10   4   14.18    0.81
   0 -10   4   15.33    0.69
   0  10  -4   14.34    0.70
   0  10   4   14.11    0.74
   0 -10   4   15.73    0.74
   0  10   4   14.68    0.82
   0  10   4   14.10    0.72
   0  10   4   14.96    0.64
   0 -11   4   10.27    0.52
   0  11   4   10.42    0.54
   0  11   4    9.87    0.47
   0   0   5    0.01    0.16
   0   0   5    0.12    0.16
   0   0   5    0.33    0.18
   0   0   5   -0.01    0.18
   0   0   5   -0.05    0.17
   0   0   5    0.12    0.20
   0   1   5    0.03    0.16
   0  -1   5   -0.13    0.12
   0  -1   5    0.47    0.20
   0  -1   5    0.01    0.11
   0   1   5    0.16    0.16
   0  -1   5    0.24    0.20
   0  -1   5   -0.04    0.17
   0   1   5   -0.06    0.21
   0   1  -5    0.19    0.13
   0  -1   5    0.31    0.19
   0  -1   5    0.30    0.22
   0  -1  -5    0.05    0.11
   0  -1  -5    0.14    0.19
   0   1   5    0.02    0.15
   0   1   5    0.03    0.17
   0  -2   5   -0.08    0.15
   0  -2   5    0.12    0.19
   0  -2   5    0.07    0.13
   0   2   5    0.39    0.22
   0   2   5   -0.16    0.21
   0   2   5   -0.13    0.14
   0  -2   5    0.26    0.22
   0   2  -5    0.09    0.14
   0  -2   5    0.19    0.17
   0  -2   5   -0.12    0.18
   0  -2   5   -0.05    0.16
   0   2   5    0.09    0.19
   0  -2  -5   -0.05    0.14
   0  -2  -5   -0.02    0.22
   0  -3   5    0.11    0.22
   0  -3   5    0.30    0.16
   0  -3   5    0.21    0.24
   0  -3  -5    0.11    0.24
   0   3  -5    0.00    0.20
   0  -3  -5   -0.02    0.20
   0  -3  -5    0.14    0.12
   0   3   5    0.34    0.25
   0  -3  -5    0.06    0.23
   0   3   5   -0.06    0.20
   0  -3   5    0.51    0.21
   0  -3   5    0.21    0.22
   0   3   5    0.00    0.16
   0  -3   5    0.16    0.19
   0   3  -5   -0.03    0.16
   0  -3   5   -0.02    0.22
   0  -4  -5   -0.16    0.25
   0  -4  -5    0.12    0.23
   0   4  -5   -0.09    0.18
   0  -4   5    0.12    0.26
   0   4   5    0.06    0.22
   0   4  -5    0.27    0.23
   0  -4   5    0.08    0.22
   0  -4  -5    0.19    0.22
   0   4   5    0.17    0.22
   0  -4  -5    0.13    0.17
   0  -4   5    0.10    0.25
   0  -4   5    0.12    0.23
   0  -4   5    0.22    0.14
   0  -4   5    0.10    0.24
   0  -4   5    0.39    0.23
   0   5  -5    0.00    0.21
   0  -5  -5    0.14    0.21
   0   5   5    0.08    0.24
   0  -5   5    0.12    0.25
   0   5  -5   -0.12    0.21
   0  -5   5    0.58    0.36
   0  -5  -5    0.26    0.32
   0  -5   5   -0.08    0.29
   0  -5  -5    0.14    0.32
   0   5   5    0.00    0.16
   0  -5  -5    0.14    0.24
   0  -5   5    0.36    0.34
   0  -5  -5    0.55    0.27
   0  -5   5    0.55    0.23
   0  -6  -5    0.21    0.32
   0  -6   5    0.33    0.22
   0  -6   5   -0.02    0.29
   0  -6  -5    0.06    0.25
   0   6  -5    0.35    0.25
   0   6   5    0.13    0.19
   0  -6  -5    0.48    0.33
   0   7   5   -0.20    0.20
   0   7  -5    0.09    0.29
   0  -7   5    0.20    0.23
   0   7   5    0.11    0.14
   0  -7  -5    0.47    0.34
   0   7   5    0.16    0.21
   0  -7   5    0.03    0.20
   0  -7   5    0.43    0.34
   0   7   5   -0.10    0.16
   0   7   5    0.28    0.21
   0  -7   5    0.43    0.21
   0  -7   5    0.12    0.18
   0  -7   5    0.13    0.19
   0   8   5    0.39    0.21
   0  -8   5    0.11    0.25
   0  -8   5   -0.08    0.22
   0   8   5   -0.02    0.21
   0  -8   5    0.10    0.17
   0  -8  -5    0.19    0.40
   0  -8   5    0.14    0.21
   0   8   5    0.09    0.19
   0   8   5    0.09    0.18
   0   9  -5    0.06    0.20
   0  -9   5    0.02    0.16
   0   9   5   -0.02    0.19
   0   9   5    0.22    0.14
   0  -9   5    0.07    0.18
   0   9  -5   -0.18    0.21
   0  -9  -5   -0.21    0.36
   0   9   5   -0.25    0.19
   0   9   5    0.13    0.20
   0  10  -5    0.05    0.18
   0  10   5    0.17    0.20
   0  10   5    0.01    0.17
   0  10   5    0.12    0.13
   0 -10   5   -0.01    0.16
   0  10   5   -0.09    0.16
   0  11   5    0.05    0.11
   0  11   5   -0.05    0.12
   0  11   5    0.06    0.12
   0 -11   5   -0.01    0.11
   0   0  -6  205.26    7.35
   0   0   6  214.86    6.42
   0   0   6  220.39    6.80
   0   0   6  220.80    6.77
   0   0   6  217.90    6.61
   0   0   6  223.93    6.50
   0   0   6  216.17    7.28
   0  -1   6  164.17    4.99
   0  -1   6  158.08    4.83
   0   1   6  160.91    5.16
   0  -1   6  157.09    5.92
   0   1   6  158.32    5.18
   0  -1   6  155.85    4.98
   0   1   6  159.83    5.04
   0   1   6  160.78    5.55
   0  -1   6  160.39    5.55
   0  -1   6  156.79    5.14
   0  -1  -6  151.51    5.95
   0  -1   6  164.78    5.14
   0  -2   6   18.66    1.24
   0  -2   6   21.86    1.08
   0  -2   6   19.55    1.12
   0   2   6   20.47    1.14
   0  -2  -6   16.95    1.15
   0  -2   6   20.44    1.10
   0   2   6   20.95    1.13
   0  -2   6   21.03    1.21
   0  -2   6   21.90    1.12
   0  -2   6   20.28    0.89
   0  -2  -6   16.58    1.27
   0   2   6   20.34    1.14
   0   2  -6   16.19    0.98
   0   3   6   87.03    3.16
   0  -3   6   86.32    3.06
   0  -3   6   88.97    3.22
   0  -3  -6   87.93    3.42
   0  -3   6   92.06    3.18
   0  -3   6   88.26    2.90
   0   3   6   90.57    3.28
   0  -3  -6   85.87    3.17
   0  -3  -6   82.11    3.69
   0   3   6   89.57    3.25
   0   3  -6   85.69    3.40
   0  -3   6   92.48    3.47
   0  -3   6   87.36    3.66
   0  -3   6   86.61    3.14
   0   4  -6   87.58    3.40
   0  -4  -6   84.15    3.18
   0   4   6   85.14    3.23
   0   4  -6   84.46    3.05
   0  -4   6   81.03    3.12
   0  -4  -6   86.49    3.40
   0  -4   6   85.57    3.39
   0  -4   6   84.59    3.17
   0   4   6   82.41    2.73
   0   4   6   78.56    3.10
   0  -4  -6   85.51    3.22
   0  -4   6   79.63    3.57
   0  -4  -6   85.40    3.67
   0  -4   6   85.21    2.84
   0  -5  -6   54.45    2.37
   0   5  -6   56.82    2.26
   0  -5  -6   51.66    2.58
   0  -5   6   51.53    2.69
   0  -5   6   55.77    2.42
   0  -5   6   57.23    2.57
   0   5  -6   55.25    2.53
   0  -5  -6   55.51    2.45
   0  -5   6   57.94    2.48
   0   5   6   57.65    2.02
   0  -5   6   58.84    2.10
   0   5   6   56.19    2.48
   0  -6   6   21.71    0.88
   0   6   6   22.26    0.99
   0   6   6   21.77    0.76
   0  -6  -6   22.19    1.32
   0   6   6   21.30    1.06
   0  -6   6   22.20    1.46
   0   6   6   22.81    1.02
   0   6  -6   22.51    1.22
   0  -6   6   23.49    1.14
   0   6   6   22.06    0.90
   0  -6  -6   20.73    1.46
   0  -6   6   22.73    0.96
   0  -6   6   21.61    0.81
   0  -6  -6   20.57    1.39
   0  -7   6    1.43    0.30
   0  -7   6    2.37    0.43
   0   7   6    2.29    0.39
   0   7   6    1.80    0.35
   0  -7  -6    1.07    0.47
   0  -7   6    2.06    0.25
   0   7   6    1.94    0.37
   0  -7   6    2.21    0.33
   0   7   6    2.16    0.25
   0   7   6    2.27    0.34
   0  -7   6    1.88    0.61
   0   7  -6    1.62    0.42
   0   8   6   12.45    0.72
   0   8   6   14.15    0.77
   0   8   6   13.04    0.59
   0  -8   6   12.82    0.65
   0   8   6   14.33    0.84
   0  -8   6   13.54    0.85
   0  -8   6   13.17    0.71
   0  -8   6   12.83    0.51
   0   8   6   14.29    0.69
   0   9   6   11.27    0.66
   0   9   6   10.91    0.63
   0  -9   6   11.15    0.63
   0   9  -6   10.41    0.58
   0   9  -6   11.03    0.70
   0   9   6   10.18    0.70
   0   9   6   10.78    0.50
   0  10   6   24.22    1.04
   0  10   6   24.54    0.92
   0  10  -6   23.47    0.94
   0 -10   6   24.98    0.92
   0  10   6   24.53    0.77
   0  10   6   25.03    0.97
   0  11   6    2.85    0.25
   0 -11   6    3.12    0.25
   0  11   6    2.59    0.18
   0   0   7   -0.08    0.22
   0   0   7    0.23    0.17
   0   0   7    0.25    0.28
   0   0  -7   -0.01    0.28
   0   0  -7    0.08    0.16
   0   0   7    0.11    0.27
   0   0   7    0.26    0.28
   0   0   7    0.31    0.27
   0  -1   7   -0.06    0.24
   0   1   7    0.34    0.28
   0   1   7    0.15    0.28
   0   1  -7    0.04    0.20
   0  -1   7    0.27    0.24
   0  -1   7   -0.08    0.15
   0   1   7    0.27    0.24
   0  -1   7   -0.06    0.21
   0  -1   7    0.26    0.35
   0   1   7    0.37    0.26
   0  -1   7    0.06    0.24
   0  -1  -7    0.25    0.32
   0  -1   7    0.36    0.34
   0  -2   7    0.17    0.36
   0  -2   7    0.01    0.28
   0  -2  -7    0.01    0.27
   0  -2   7    0.36    0.29
   0  -2  -7    0.21    0.32
   0   2   7    0.22    0.25
   0  -2   7    0.03    0.16
   0   2   7    0.15    0.25
   0   2  -7   -0.23    0.17
   0  -2   7   -0.17    0.20
   0  -2   7   -0.09    0.24
   0   2   7    0.09    0.28
   0  -2   7    0.03    0.31
   0   3   7    0.15    0.27
   0  -3   7   -0.07    0.17
   0  -3   7    0.05    0.30
   0   3   7    0.29    0.29
   0   3  -7    0.08    0.25
   0  -3  -7    0.07    0.38
   0   3   7    0.08    0.20
   0   3   7    0.20    0.29
   0  -3   7   -0.19    0.26
   0  -3   7    0.15    0.31
   0  -3  -7   -0.26    0.30
   0  -3   7    0.09    0.34
   0   4   7   -0.18    0.17
   0  -4   7   -0.07    0.16
   0  -4  -7    0.07    0.20
   0   4  -7    0.17    0.30
   0  -4  -7   -0.16    0.26
   0  -4   7   -0.02    0.36
   0   4   7    0.34    0.32
   0  -4  -7    0.39    0.43
   0   4  -7    0.30    0.27
   0  -4   7   -0.19    0.27
   0   5   7    0.16    0.12
   0  -5   7    0.15    0.18
   0  -5  -7    0.04    0.24
   0   5   7    0.27    0.43
   0   5   7    0.07    0.19
   0   5   7    0.11    0.23
   0  -5   7    0.07    0.19
   0   5   7    0.09    0.20
   0   5  -7    0.57    0.36
   0  -5  -7    0.00    0.31
   0  -5   7    0.38    0.37
   0  -5   7    0.02    0.40
   0   5  -7    0.11    0.29
   0  -5   7    0.01    0.21
   0   5   7   -0.15    0.23
   0   6   7   -0.07    0.22
   0   6   7   -0.08    0.19
   0  -6   7    0.20    0.22
   0  -6  -7    0.05    0.36
   0   6  -7    0.33    0.31
   0   6   7   -0.09    0.19
   0  -6   7    0.10    0.19
   0   6   7    0.04    0.21
   0   6   7    0.28    0.12
   0  -6   7   -0.04    0.17
   0  -6   7    0.34    0.40
   0  -7   7    0.12    0.19
   0   7   7    0.08    0.20
   0  -7   7    0.04    0.23
   0   7   7   -0.05    0.19
   0  -7   7   -0.06    0.18
   0   7   7    0.06    0.20
   0   7  -7    0.04    0.34
   0   7   7    0.34    0.14
   0   7   7    0.14    0.22
   0   8   7    0.12    0.18
   0  -8   7   -0.18    0.16
   0  -8   7    0.11    0.24
   0   8   7    0.12    0.20
   0   8   7    0.05    0.17
   0   8   7   -0.24    0.16
   0   8   7    0.01    0.12
   0  -8   7    0.20    0.17
   0   9   7    0.13    0.11
   0  -9   7    0.15    0.15
   0   9  -7   -0.08    0.16
   0   9   7    0.38    0.19
   0   9   7    0.26    0.17
   0   9   7    0.06    0.18
   0   9  -7    0.16    0.23
   0  10  -7    0.09    0.16
   0  10   7    0.10    0.15
   0 -10   7    0.14    0.13
   0  10   7   -0.02    0.12
   0  10   7    0.04    0.09
   0   0   8   33.67    1.71
   0   0   8   34.50    1.89
   0   0   8   36.62    1.78
   0   0  -8   31.21    1.53
   0   0  -8   27.84    1.94
   0   0   8   33.43    1.75
   0  -1  -8   69.71    3.36
   0  -1   8   65.01    2.73
   0   1  -8   65.15    3.29
   0   1   8   66.92    2.77
   0  -1   8   64.48    2.77
   0  -1  -8   69.40    2.66
   0   1   8   68.22    2.82
   0  -1   8   64.02    2.95
   0  -1   8   68.22    2.33
   0   1   8   63.68    2.68
   0  -1   8   62.75    2.65
   0   1  -8   68.50    2.75
   0  -1   8   67.57    2.64
   0  -2   8   48.39    2.40
   0   2   8   47.90    2.24
   0   2  -8   47.53    2.19
   0  -2   8   49.96    1.84
   0   2   8   47.35    2.24
   0  -2   8   46.54    2.14
   0  -2  -8   48.01    2.41
   0  -2   8   46.83    2.23
   0   3   8   17.29    1.26
   0  -3  -8   18.67    1.40
   0  -3   8   17.00    1.37
   0   3   8   17.44    1.29
   0   3  -8   18.80    1.22
   0  -3   8   16.93    0.93
   0  -3   8   15.89    1.24
   0  -4   8   81.65    3.55
   0  -4   8   84.82    2.87
   0   4  -8   82.01    3.13
   0  -4   8   82.93    2.47
   0   4   8   82.88    2.73
   0  -4  -8   76.11    3.26
   0  -4   8   77.72    3.29
   0   4   8   79.12    2.01
   0  -4   8   80.94    2.28
   0  -4   8   80.82    2.17
   0   4   8   80.53    2.30
   0  -4  -8   79.42    3.34
   0   4   8   80.33    2.50
   0  -5   8   28.93    1.13
   0   5   8   28.12    1.27
   0   5  -8   32.38    1.60
   0  -5   8   28.39    1.06
   0  -5  -8   27.71    1.70
   0  -5   8   29.70    1.03
   0  -5   8   25.74    1.86
   0  -5   8   29.52    1.35
   0   5   8   28.06    1.17
   0   5   8   28.07    1.07
   0  -5   8   27.43    1.73
   0   5   8   27.61    0.86
   0  -6   8   41.81    1.48
   0   6  -8   39.29    1.89
   0   6   8   44.80    1.57
   0  -6   8   42.20    1.44
   0   6   8   42.45    1.19
   0   6   8   42.09    1.55
   0  -6   8   42.09    1.77
   0   6   8   43.81    1.42
   0  -6   8   43.32    1.41
   0   6   8   43.58    1.70
   0  -6   8   41.07    1.35
   0  -7   8   10.87    0.60
   0   7   8   10.09    0.64
   0   7   8   10.14    0.45
   0   7  -8   10.15    0.89
   0  -7   8   10.82    0.62
   0  -7   8   10.23    0.75
   0   7   8   10.00    0.63
   0   7   8   10.15    0.58
   0   7   8   10.64    0.72
   0   8   8   10.92    0.43
   0   8   8   11.54    0.63
   0   8   8   10.64    0.69
   0   8   8   11.27    0.55
   0  -8   8   10.84    0.55
   0  -8   8   11.98    0.61
   0   8   8   10.96    0.63
   0   9  -8   17.47    0.80
   0  -9   8   15.96    0.66
   0   9   8   16.36    0.70
   0   9   8   16.57    0.50
   0   9   8   16.23    0.71
   0  10  -8    0.72    0.17
   0  10   8    0.67    0.15
   0   0  -9    0.00    0.32
   0   0   9    0.14    0.19
   0   0   9    0.06    0.11
   0   0   9    0.32    0.22
   0   0   9    0.08    0.24
   0   0   9    0.00    0.33
   0   0   9    0.00    0.41
   0  -1  -9    0.12    0.40
   0  -1   9   -0.11    0.17
   0  -1   9    0.07    0.21
   0  -1   9   -0.28    0.34
   0   1   9   -0.16    0.21
   0   1  -9    0.02    0.30
   0  -1   9    0.16    0.36
   0   1   9    0.13    0.33
   0  -1   9    0.16    0.12
   0  -1  -9    0.39    0.30
   0   1   9   -0.02    0.10
   0   1   9   -0.04    0.18
   0   1   9   -0.32    0.38
   0   2   9    0.13    0.18
   0   2   9    0.16    0.34
   0  -2  -9    0.19    0.48
   0  -2   9   -0.35    0.36
   0  -2   9    0.09    0.16
   0  -2   9   -0.17    0.17
   0  -2   9    0.11    0.20
   0   2   9    0.01    0.20
   0  -2   9    0.21    0.13
   0  -2   9   -0.27    0.34
   0   2   9    0.11    0.10
   0   3   9    0.12    0.20
   0   3   9   -0.10    0.10
   0  -3  -9    0.19    0.41
   0  -3   9    0.20    0.42
   0  -3   9   -0.07    0.19
   0   3   9   -0.01    0.20
   0  -3   9    0.09    0.18
   0  -3   9   -0.16    0.21
   0  -3   9    0.22    0.48
   0  -3   9    0.02    0.13
   0  -4   9    0.24    0.19
   0  -4   9    0.03    0.21
   0  -4  -9    0.02    0.38
   0  -4   9   -0.60    0.46
   0  -4   9    0.27    0.18
   0   4  -9    0.42    0.41
   0  -4   9    0.44    0.42
   0  -4   9   -0.19    0.17
   0   4   9    0.06    0.10
   0   4   9   -0.04    0.19
   0   4   9    0.01    0.19
   0   5   9    0.05    0.18
   0  -5   9   -0.05    0.15
   0   5   9    0.18    0.11
   0  -5   9    0.18    0.20
   0   5  -9    0.08    0.33
   0   5   9    0.07    0.25
   0  -5   9   -0.07    0.14
   0  -5   9   -0.25    0.23
   0  -5   9    0.05    0.55
   0   5   9   -0.03    0.18
   0  -6   9   -0.22    0.20
   0   6   9    0.05    0.10
   0   6   9    0.24    0.18
   0   6  -9   -0.16    0.34
   0   6   9    0.00    0.24
   0  -6   9    0.04    0.25
   0  -6   9    0.03    0.17
   0   6   9    0.29    0.22
   0  -6   9    0.30    0.17
   0   7   9    0.04    0.17
   0  -7   9    0.26    0.19
   0  -7   9    0.07    0.14
   0   7   9    0.11    0.09
   0   7   9    0.24    0.22
   0   7   9    0.11    0.16
   0   7   9   -0.11    0.18
   0   8   9    0.05    0.06
   0   8   9    0.18    0.17
   0  -8   9    0.03    0.15
   0   8   9    0.01    0.14
   0  -8  -9    0.16    0.19
   0   9   9    0.18    0.12
   0   9  -9    0.08    0.18
   0   9   9    0.02    0.11
   0   0  10   42.39    1.18
   0   0  10   40.70    2.20
   0   0  10   43.05    1.52
   0   0  10   42.38    1.42
   0   0 -10   45.04    2.47
   0   0  10   43.17    1.50
   0  -1 -10   68.12    3.18
   0   1  10   57.88    2.84
   0   1  10   60.97    1.59
   0   1  10   62.70    2.02
   0  -1  10   62.68    1.65
   0  -1  10   63.22    2.01
   0  -1  10   57.10    2.99
   0  -1  10   59.78    1.86
   0   1  10   61.69    1.88
   0   1 -10   65.76    3.16
   0  -2 -10   15.37    1.40
   0   2  10   13.32    0.70
   0   2  10   12.44    0.73
   0   2  10   12.94    0.47
   0  -2  10   14.30    0.76
   0  -2  10   13.27    0.82
   0  -2  10   13.57    0.57
   0  -2  10   12.35    0.68
   0   3  10   20.96    0.63
   0  -3  10   20.78    0.95
   0  -3  10   20.38    0.76
   0  -3  10   21.27    1.10
   0   3  10   20.96    0.89
   0   3  10   21.28    0.95
   0  -3  10   22.07    0.89
   0   4  10   13.23    0.66
   0   4  10   13.67    0.73
   0  -4  10   13.24    0.86
   0   4  10   12.82    0.43
   0   4 -10   11.27    1.09
   0  -4  10   13.76    0.68
   0  -4  10   12.28    0.58
   0  -4  10   13.37    0.74
   0   5  10   24.28    0.66
   0   5  10   25.06    1.04
   0  -5  10   24.38    1.19
   0   5  10   24.90    0.93
   0   5 -10   22.42    1.38
   0  -5  10   25.40    0.96
   0  -5  10   26.19    1.04
   0  -5  10   25.66    0.88
   0  -6  10   33.64    1.19
   0  -6  10   34.49    1.08
   0   6  10   33.63    1.09
   0  -6  10   33.86    1.14
   0   6  10   33.08    1.23
   0  -7  10   10.65    0.51
   0   7  10   10.46    0.49
   0  -7  10   11.34    0.53
   0   7  10   11.52    0.57
   0  -7 -10   10.71    0.72
   0   8  10    5.05    0.33
   0   8 -10    4.69    0.29
   0  -8  10    5.36    0.34
   0   0  11    0.12    0.09
   0   0  11   -0.18    0.16
   0   0  11    0.12    0.20
   0  -1  11   -0.05    0.18
   0   1  11   -0.09    0.18
   0  -1  11    0.23    0.18
   0   1  11   -0.11    0.17
   0   1  11    0.11    0.08
   0  -1  11    0.14    0.11
   0   2  11    0.09    0.18
   0  -2  11   -0.16    0.11
   0  -2  11   -0.18    0.17
   0   2  11    0.12    0.07
   0  -2  11    0.07    0.18
   0   2  11   -0.11    0.20
   0  -3  11    0.15    0.17
   0  -3  11    0.09    0.11
   0   3  11    0.06    0.17
   0   3  11    0.12    0.16
   0  -3  11   -0.02    0.19
   0   4  11    0.15    0.17
   0   4  11   -0.33    0.14
   0  -4  11   -0.08    0.11
   0  -4  11    0.21    0.17
   0  -4  11    0.04    0.20
   0  -5  11    0.10    0.13
   0  -5  11    0.01    0.15
   0  -5  11   -0.11    0.15
   0   5  11    0.10    0.14
   0   5  11    0.23    0.17
   0  -6  11   -0.29    0.12
   0  -6  11    0.05    0.11
   0   6  11    0.04    0.14
   0   6  11   -0.11    0.13
   0  -6  11   -0.10    0.14
   0  -7  11    0.14    0.11
   0  -7  11    0.36    0.13
   0   7  11    0.23    0.13
   0   0  12   18.97    0.52
   0   0  12   19.55    0.79
   0   0  12   19.26    0.82
   0  -1  12    8.86    0.51
   0  -1  12    9.32    0.34
   0  -1  12    8.88    0.55
   0   1  12    9.13    0.52
   0   1  12    8.40    0.54
   0  -2  12    1.16    0.24
   0   2  12    1.90    0.29
   0  -2  12    1.71    0.29
   0  -2  12    1.68    0.17
   0   2  12    1.29    0.24
   0   3  12    2.58    0.30
   0   3  12    2.40    0.28
   0  -3  12    2.93    0.34
   0  -3  12    2.98    0.21
   0  -3  12    3.07    0.33
   0   4  12   15.19    0.61
   0  -4  12   14.46    0.61
   0  -4  12   14.48    0.65
   0  -4  12   14.64    0.51
   0   4  12   15.25    0.66
   0  -5  12   13.88    0.58
   0   5  12   13.38    0.58
   0   5  12   13.66    0.52
   0  -5  12   13.05    0.46
   0  -5  12   12.49    0.53
   0  -6  12   13.18    0.42
   0   6  12   12.69    0.51
   0   0  13    0.23    0.13
   0   1  13    0.06    0.14
   0  -1  13   -0.13    0.12
   0  -1  13    0.10    0.13
   0  -2  13    0.04    0.12
   0   2  13    0.00    0.12
   0  -2  13   -0.07    0.12
   0  -3  13   -0.10    0.11
   0   3  13   -0.07    0.10
   0   3  13    0.09    0.14
   0  -3  13   -0.15    0.12
   0  -4  13   -0.08    0.12
   0  -4  13    0.07    0.10
  -1   0   0    0.25    0.04
   1   0   0    0.26    0.04
  -1   0   0    0.31    0.04
   1   0   0    0.25    0.05
  -1   0   0    0.31    0.05
   1   0   0    0.27    0.04
  -1   0   0    0.28    0.04
  -1   1   0    6.04    0.29
  -1  -1   0    6.09    0.27
  -1  -1   0    6.35    0.25
  -1   1   0    6.39    0.25
   1  -1   0    6.19    0.30
   1  -1   0    6.10    0.24
   1  -1   0    6.33    0.33
  -1  -1   0    6.17    0.28
  -1   1   0    6.76    0.25
  -1  -1   0    6.19    0.28
   1  -1   0    6.36    0.33
   1   1   0    6.35    0.25
   1   1   0    6.20    0.31
  -1  -1   0    6.13    0.28
  -1  -2   0  203.39    5.80
   1  -2   0  203.63    6.50
  -1  -2   0  199.94    5.77
   1  -2   0  205.02    6.89
  -1  -2   0  204.92    5.92
   1  -2   0  209.58    6.84
  -1  -2   0  205.09    6.47
   1  -2   0  204.60    5.96
   1  -2   0  199.85    5.71
  -1  -2   0  212.24    6.75
  -1   2   0  201.96    6.85
  -1  -2   0  198.70    5.94
  -1  -2   0  203.99    6.86
  -1  -3   0    0.33    0.17
  -1   3   0    0.32    0.13
   1  -3   0    0.33    0.15
   1  -3   0    0.42    0.20
  -1  -3   0    0.41    0.16
  -1  -3   0    0.52    0.15
  -1  -3   0    0.39    0.13
   1  -3   0    0.33    0.13
   1  -3   0    0.39    0.16
   1  -3   0    0.43    0.14
   1  -3   0    0.37    0.11
  -1  -3   0    0.32    0.13
  -1  -3   0    0.40    0.15
  -1  -3   0    0.54    0.15
   1  -3   0    0.58    0.19
   1  -4   0    5.50    0.45
   1  -4   0    5.42    0.45
  -1  -4   0    5.85    0.44
   1  -4   0    5.11    0.39
   1  -4   0    4.87    0.45
   1  -4   0    5.47    0.42
   1  -4   0    5.16    0.34
   1  -4   0    5.69    0.50
  -1  -4   0    5.53    0.46
  -1  -4   0    5.91    0.43
   1  -4   0    5.57    0.51
  -1  -4   0    5.66    0.44
  -1  -4   0    5.16    0.37
  -1  -4   0    5.53    0.44
  -1  -4   0    5.32    0.49
  -1  -5   0    0.20    0.16
   1  -5   0    0.03    0.17
   1  -5   0    0.19    0.17
  -1  -5   0    0.22    0.18
  -1  -5   0    0.10    0.17
   1  -5   0    0.20    0.17
  -1  -5   0    0.14    0.18
  -1  -5   0    0.15    0.15
  -1  -5   0    0.43    0.21
   1  -5   0    0.27    0.20
   1  -5   0    0.18    0.25
  -1  -5   0    0.18    0.22
   1  -5   0    0.26    0.18
  -1  -5   0    0.34    0.20
   1  -5   0    0.16    0.16
   1  -6   0    1.05    0.39
   1  -6   0    0.18    0.26
  -1  -6   0    0.10    0.20
  -1  -6   0    0.12    0.22
   1  -6   0    0.38    0.24
   1  -6   0    0.23    0.18
   1  -6   0    0.42    0.21
  -1  -6   0    0.24    0.21
  -1  -6   0    0.21    0.22
  -1  -6   0    0.44    0.23
   1  -6   0    0.32    0.23
   1  -6   0    0.25    0.23
  -1  -6   0    0.41    0.17
  -1  -6   0    0.34    0.26
   1  -6   0    0.46    0.25
  -1  -7   0   35.62    1.71
  -1  -7   0   34.88    1.69
   1  -7   0   35.29    1.59
  -1  -7   0   35.82    1.87
  -1  -7   0   36.57    1.63
  -1  -7   0   33.80    1.71
  -1  -7   0   37.18    1.43
   1  -7   0   33.66    1.96
  -1  -7   0   33.88    1.97
   1  -7   0   34.43    1.74
   1  -7   0   37.34    1.42
   1  -7   0   37.07    1.78
   1   8   0    6.09    0.58
  -1  -8   0    3.63    0.72
  -1  -8   0    4.91    0.66
   1  -8   0    5.41    0.52
   1  -8   0    4.64    0.62
   1   8   0    5.54    0.40
   1  -8   0    3.84    0.67
  -1  -8   0    6.19    0.55
  -1  -8   0    4.08    0.49
  -1   8   0    5.57    0.51
  -1  -8   0    4.25    0.70
  -1   8   0    4.76    0.42
   1  -9   0    0.29    0.25
   1   9   0    0.29    0.21
   1  -9   0    0.69    0.46
   1  -9   0    0.32    0.33
  -1  -9   0    0.04    0.47
   1  -9   0    0.60    0.22
  -1  -9   0    0.73    0.33
  -1  -9   0    0.63    0.22
   1   9   0    0.17    0.13
  -1   9   0    0.16    0.21
  -1  -9   0    0.17    0.20
  -1   9   0    0.13    0.18
  -1 -10   0    1.15    0.32
   1 -10   0    0.92    0.29
  -1  10   0    0.99    0.26
  -1 -10   0    1.04    0.24
   1 -11   0    0.51    0.23
  -1 -11   0    0.61    0.26
   1 -11   0    0.41    0.23
  -1 -11   0    0.27    0.20
  -1 -12   0    2.45    0.28
   1 -12   0    2.66    0.28
  -1   0   1    0.24    0.07
  -1   0   1    0.07    0.06
   1   0  -1    0.10    0.05
   1   0   1    0.14    0.06
   1   0   1    0.06    0.05
  -1   0   1    0.13    0.07
   1   0   1    0.06    0.06
   1   0  -1    0.02    0.06
   1   0  -1    0.10    0.05
   1  -1   1  246.99    6.71
   1  -1   1  242.47    7.51
  -1  -1  -1  237.24    7.96
   1  -1   1  240.27    6.87
   1   1  -1  234.67    8.05
  -1   1   1  247.10    6.65
  -1   1   1  252.63    6.80
  -1   1   1  250.47    6.96
  -1   1   1  234.34    6.65
   1  -1   1  254.26    8.01
  -1  -1  -1  228.49    6.72
   1  -1   1  239.54    6.77
  -1  -1   1  237.48    6.94
   1  -1  -1  243.50    8.03
   1   1   1  254.96    6.79
   1  -1  -1  236.03    8.03
  -1  -1   1  243.72    8.06
   1   1   1  242.67    6.95
   1  -1  -1  237.48    7.55
  -1  -1   1  243.19    6.80
   1   1   1  238.09    7.55
  -1   1  -1  220.99    8.01
  -1  -1   1  245.78    7.95
  -1  -1   1  253.16    6.79
  -1  -2  -1   10.88    0.47
  -1   2   1    7.38    0.42
   1  -2   1    8.40    0.47
  -1  -2  -1   10.27    0.40
  -1  -2  -1    9.95    0.45
   1  -2   1    8.07    0.37
  -1  -2  -1    9.98    0.51
   1  -2   1    8.17    0.49
   1  -2   1    8.60    0.45
   1  -2   1    8.35    0.38
   1   2  -1    9.20    0.45
  -1   2   1    7.85    0.41
  -1  -2  -1    9.87    0.38
   1  -2   1    8.07    0.41
   1  -2   1    8.36    0.44
  -1  -2  -1    9.98    0.47
  -1  -2   1    8.02    0.42
  -1  -2   1    7.34    0.43
  -1  -2   1    7.71    0.42
  -1   2  -1   10.00    0.46
   1  -2  -1    9.56    0.52
   1   2   1    7.88    0.44
   1  -2  -1    9.60    0.46
  -1  -2   1    8.42    0.45
   1  -2  -1    9.68    0.54
   1  -2  -1   10.37    0.49
  -1  -2   1    7.62    0.42
  -1  -2   1    6.98    0.45
  -1  -2   1    7.66    0.43
  -1  -3  -1  218.75    7.01
  -1  -3  -1  217.67    6.39
  -1   3   1  213.96    6.38
  -1  -3  -1  221.61    6.12
   1   3  -1  207.31    7.31
   1  -3   1  219.52    6.42
  -1  -3  -1  221.60    7.26
  -1  -3  -1  219.15    6.26
   1  -3   1  211.33    6.96
  -1  -3  -1  222.33    7.32
  -1  -3  -1  217.28    6.40
   1  -3   1  216.65    6.19
   1  -3   1  209.60    7.37
   1  -3   1  213.24    7.34
   1  -3  -1  221.98    7.37
   1  -3  -1  213.04    6.23
  -1  -3   1  210.08    6.94
  -1  -3   1  212.45    6.23
   1  -3  -1  221.11    7.37
  -1  -3   1  214.95    6.39
  -1  -3   1  217.48    7.25
   1  -3  -1  214.04    7.01
  -1  -3   1  218.34    6.25
   1  -3  -1  219.57    6.43
  -1   3  -1  217.81    7.35
   1  -3  -1  217.47    6.00
  -1  -3   1  216.99    6.39
  -1  -3   1  206.88    7.37
   1  -4   1   42.07    1.53
   1  -4   1   43.65    1.82
   1  -4   1   43.98    1.86
   1  -4   1   44.27    1.67
   1  -4   1   41.86    1.81
   1  -4   1   42.53    1.58
   1   4  -1   43.90    1.72
  -1  -4  -1   47.61    1.80
  -1  -4  -1   47.70    1.78
  -1  -4  -1   45.90    1.87
   1  -4   1   42.56    1.52
  -1  -4  -1   46.67    1.64
  -1  -4  -1   48.60    1.69
  -1  -4  -1   46.45    1.66
   1  -4   1   41.06    1.60
   1   4  -1   45.10    1.55
  -1  -4  -1   46.60    1.46
  -1  -4   1   42.28    1.82
  -1   4  -1   45.55    1.60
  -1  -4   1   43.82    1.64
  -1  -4   1   41.81    1.59
  -1  -4   1   42.49    1.63
  -1   4  -1   46.30    1.78
   1  -4  -1   45.32    1.60
   1  -4  -1   46.50    1.83
  -1  -4   1   41.39    1.57
  -1  -4   1   40.95    1.62
   1  -4  -1   45.50    1.69
   1  -4  -1   45.48    1.63
  -1  -4   1   43.27    1.76
  -1  -4   1   42.12    1.79
   1  -4  -1   47.37    1.89
   1  -4  -1   44.57    1.87
   1  -5   1   13.57    0.90
   1  -5   1   14.20    0.86
   1  -5   1   14.94    0.80
  -1  -5  -1   14.31    0.82
   1  -5   1   15.71    0.96
   1  -5   1   14.40    0.72
   1   5  -1   13.53    0.62
   1  -5   1   13.77    0.76
  -1  -5  -1   13.20    0.79
  -1  -5  -1   14.31    0.83
  -1  -5  -1   13.19    0.82
  -1  -5  -1   13.02    0.71
  -1  -5  -1   12.77    0.80
  -1  -5  -1   13.55    0.80
   1  -5   1   13.87    0.68
  -1  -5  -1   13.62    0.94
   1  -5   1   14.88    0.86
   1  -5   1   14.41    0.77
   1  -5  -1   12.22    0.81
   1  -5  -1   13.99    0.78
   1  -5  -1   13.01    0.77
  -1  -5   1   15.51    0.84
  -1   5  -1   13.12    0.69
  -1  -5   1   15.09    0.85
   1  -5  -1   13.77    0.90
  -1  -5   1   14.67    0.94
   1  -5  -1   13.57    0.85
  -1  -5   1   14.76    0.89
  -1  -5   1   14.24    0.72
  -1  -5   1   14.31    0.78
  -1  -5   1   13.41    0.62
  -1  -5   1   14.79    0.84
  -1  -5   1   14.95    0.77
  -1  -5   1   15.26    0.82
   1  -5  -1   12.67    0.79
   1  -5  -1   13.62    0.94
  -1  -6  -1   16.25    0.97
   1  -6   1   16.02    0.98
  -1  -6  -1   15.68    0.92
  -1  -6  -1   15.38    0.75
  -1  -6  -1   15.72    0.98
   1  -6   1   17.38    0.94
   1  -6   1   15.64    0.78
   1  -6   1   15.93    1.07
   1  -6   1   15.65    0.94
   1  -6   1   15.96    1.14
  -1  -6  -1   16.37    1.02
  -1  -6  -1   15.75    0.96
  -1  -6  -1   15.69    1.11
   1  -6   1   16.68    0.88
   1  -6  -1   15.59    1.08
  -1  -6   1   17.01    1.00
   1  -6  -1   14.69    0.92
   1  -6  -1   15.00    1.00
  -1   6  -1   15.57    0.75
  -1  -6   1   15.61    0.98
  -1  -6   1   16.04    0.95
   1  -6  -1   15.56    1.11
  -1  -6   1   15.54    0.77
  -1  -6   1   16.33    1.05
   1  -6  -1   14.86    0.94
  -1  -6   1   16.96    1.12
   1  -6  -1   14.98    0.91
   1  -6  -1   14.13    0.73
   1  -6  -1   14.77    0.97
  -1  -6   1   16.89    0.94
  -1  -7  -1   30.01    1.56
  -1  -7  -1   29.12    1.63
   1  -7   1   29.10    1.74
  -1  -7  -1   29.22    1.46
  -1  -7  -1   30.97    1.55
  -1  -7  -1   27.98    1.74
   1  -7   1   30.95    1.40
   1  -7   1   30.03    1.25
   1  -7   1   30.92    1.59
  -1  -7  -1   28.06    1.22
  -1   7   1   30.19    1.24
  -1  -7  -1   28.95    1.54
   1  -7  -1   28.74    1.50
   1  -7  -1   27.88    1.55
   1  -7  -1   29.39    1.51
   1  -7  -1   29.60    1.78
  -1  -7   1   27.30    1.50
  -1  -7   1   30.84    1.26
   1   7   1   31.00    1.25
   1  -7  -1   28.97    1.21
  -1  -7   1   29.73    1.42
  -1  -7   1   30.74    1.56
  -1  -7   1   30.21    1.78
  -1  -7   1   29.31    1.52
   1  -7  -1   27.58    1.61
   1  -7  -1   28.19    1.40
  -1  -8  -1   14.16    1.13
   1  -8   1   13.83    1.11
  -1  -8  -1   14.19    1.22
  -1   8   1   14.27    0.78
  -1  -8  -1   15.04    0.84
  -1   8   1   14.00    0.64
  -1  -8  -1   13.31    1.14
   1   8  -1   14.61    0.72
   1  -8   1   14.15    0.89
   1  -8   1   15.23    0.74
  -1   8   1   14.19    0.73
   1  -8   1   14.56    0.84
  -1  -8  -1   16.00    1.06
  -1  -8   1   14.40    0.84
   1   8   1   14.20    0.74
   1  -8  -1   16.14    1.03
  -1  -8   1   12.15    1.06
  -1   8  -1   15.51    0.75
  -1  -8   1   13.90    0.74
   1  -8  -1   12.65    1.12
   1   8   1   12.73    0.78
  -1   8  -1   14.86    0.73
  -1  -8   1   15.42    0.97
   1  -8  -1   14.51    0.82
  -1  -9  -1   15.75    0.89
   1  -9   1   17.29    0.79
  -1   9   1   15.27    0.84
   1   9  -1   15.73    0.69
  -1  -9  -1   15.38    1.06
  -1   9   1   15.99    0.78
   1  -9   1   15.88    0.91
   1   9   1   16.79    0.87
  -1   9  -1   15.63    0.77
  -1  -9   1   16.47    0.80
   1  -9  -1   13.61    0.99
  -1  -9   1   16.02    1.00
   1   9   1   16.23    0.81
   1  -9  -1   15.90    0.89
  -1  -9   1   17.39    0.94
  -1   9  -1   16.08    0.74
   1 -10   1    9.27    0.58
  -1  10   1   10.32    0.59
   1 -10   1    8.14    0.66
  -1 -10  -1    8.74    0.64
   1 -10   1    8.69    0.68
  -1 -10  -1    8.18    0.79
  -1  10  -1    8.84    0.57
  -1 -10   1   11.87    0.87
   1 -10  -1    9.38    0.79
   1 -10  -1    9.64    0.67
   1  10   1    9.66    0.60
  -1 -10   1   10.46    0.59
  -1 -10   1    9.66    0.69
   1 -11   1    1.66    0.26
  -1 -11  -1    1.81    0.34
   1 -11   1    2.19    0.35
   1 -11   1    1.94    0.30
  -1 -11   1    1.45    0.32
  -1 -11   1    1.40    0.29
   1 -11  -1    1.98    0.34
  -1 -11   1    1.60    0.25
  -1 -12  -1    8.82    0.50
   1 -12   1    9.06    0.43
   1 -12  -1    8.85    0.49
  -1 -12   1    9.49    0.46
   1   0   2    0.09    0.10
  -1   0   2    0.11    0.10
  -1   0   2    0.06    0.12
  -1   0   2    0.27    0.12
   1   0  -2    0.11    0.07
   1   0   2    0.17    0.12
  -1   0   2    0.21    0.10
   1   0   2    0.09    0.08
   1   0   2    0.07    0.07
  -1   0   2    0.25    0.12
   1   0   2    0.11    0.08
   1   0   2    0.27    0.10
   1   0  -2    0.25    0.06
   1  -1   2  112.56    3.70
   1  -1   2  102.86    3.37
   1   1  -2  104.92    3.64
   1  -1   2  105.56    3.15
   1  -1   2  107.15    3.08
   1  -1   2  101.61    3.20
  -1   1   2  105.74    3.25
  -1   1   2  105.58    3.24
  -1   1   2  104.85    3.16
  -1   1   2  106.92    3.00
   1  -1   2  105.79    3.14
   1   1   2  104.80    3.13
  -1  -1   2  105.75    3.20
  -1  -1   2  103.81    3.21
   1   1   2  103.05    3.22
   1   1   2  102.76    3.05
   1   1   2  106.89    3.21
   1  -1  -2  107.94    3.56
  -1  -1   2  111.43    3.16
  -1  -1   2  108.63    3.67
  -1  -1   2  108.14    3.14
   1  -1  -2  108.15    3.76
   1   1   2  108.37    3.69
   1  -1  -2  105.33    3.44
   1   1   2  108.69    3.46
   1  -2   2   14.93    0.66
   1   2  -2   17.30    0.74
  -1  -2  -2   15.50    0.77
   1  -2   2   15.61    0.79
   1  -2   2   14.88    0.67
   1  -2   2   15.87    0.62
  -1  -2  -2   16.18    0.57
  -1   2   2   16.61    0.72
   1  -2   2   16.71    0.71
  -1  -2  -2   16.65    0.76
   1  -2   2   15.59    0.61
  -1   2   2   15.73    0.68
   1  -2  -2   16.21    0.76
   1   2   2   15.87    0.70
  -1  -2   2   14.31    0.69
   1  -2  -2   16.78    0.84
  -1   2  -2   15.13    0.69
  -1  -2   2   14.64    0.69
  -1  -2   2   14.77    0.63
   1  -2  -2   15.22    0.72
   1   2   2   15.55    0.68
  -1  -2   2   15.12    0.66
   1  -2  -2   16.17    0.66
  -1  -2   2   14.17    0.67
   1   2   2   15.64    0.70
  -1  -2   2   15.42    0.74
  -1  -2   2   14.91    0.67
   1  -3   2   45.40    1.64
  -1  -3  -2   46.62    1.80
  -1  -3  -2   47.05    1.65
   1  -3   2   43.54    1.57
  -1  -3  -2   46.26    1.40
   1  -3   2   44.22    1.83
   1  -3   2   43.32    1.53
  -1  -3  -2   49.24    1.66
   1   3  -2   46.89    1.77
  -1  -3  -2   46.61    1.80
  -1   3   2   44.99    1.60
   1  -3   2   43.41    1.69
   1  -3   2   46.18    1.51
   1  -3   2   43.52    1.68
   1  -3   2   42.08    1.68
  -1  -3  -2   44.96    1.60
  -1   3   2   42.48    1.61
   1  -3  -2   45.75    1.67
   1  -3  -2   47.81    1.74
  -1  -3   2   43.71    1.77
  -1  -3   2   44.95    1.61
   1  -3  -2   48.21    1.90
  -1  -3   2   45.91    1.61
   1   3   2   45.79    1.65
  -1   3  -2   47.59    1.78
  -1  -3   2   45.19    1.67
  -1  -3   2   45.17    1.57
  -1  -3   2   46.26    1.63
  -1  -3   2   43.77    1.77
  -1  -4  -2    7.31    0.55
  -1  -4  -2    7.97    0.52
   1   4  -2    7.36    0.52
  -1  -4  -2    8.15    0.57
   1  -4   2    6.96    0.49
  -1   4   2    7.73    0.56
   1  -4   2    7.85    0.58
   1  -4   2    6.56    0.45
   1  -4   2    7.17    0.51
  -1  -4  -2    7.92    0.63
   1  -4   2    7.18    0.56
  -1  -4  -2    8.54    0.59
   1  -4   2    7.70    0.60
   1   4  -2    7.61    0.49
   1  -4   2    7.70    0.48
   1  -4   2    7.52    0.55
  -1  -4  -2    8.19    0.57
  -1  -4   2    7.92    0.55
  -1  -4   2    7.67    0.50
  -1  -4   2    7.36    0.43
   1  -4  -2    8.54    0.65
   1  -4  -2    7.96    0.55
  -1  -4   2    7.49    0.57
  -1  -4   2    7.55    0.54
  -1  -4   2    8.17    0.55
  -1   4  -2    7.14    0.49
  -1   4  -2    7.86    0.54
   1  -4  -2    7.51    0.63
  -1  -4   2    7.67    0.54
  -1  -4   2    7.70    0.57
   1  -4  -2    8.25    0.60
   1  -4  -2    7.70    0.54
  -1  -4   2    8.05    0.58
   1  -5   2   43.21    1.51
  -1  -5  -2   44.18    1.99
   1  -5   2   44.97    1.92
   1  -5   2   41.91    1.49
  -1  -5  -2   43.43    1.78
   1  -5   2   42.05    1.65
  -1  -5  -2   43.03    1.87
   1  -5   2   41.68    1.60
  -1  -5  -2   43.22    1.74
   1  -5   2   43.57    1.96
   1  -5   2   44.73    1.80
   1   5  -2   43.69    1.61
  -1  -5  -2   43.70    1.84
  -1  -5  -2   41.75    1.74
   1  -5  -2   45.51    1.90
  -1  -5   2   42.26    1.69
  -1   5  -2   41.61    1.84
  -1  -5   2   41.95    1.50
  -1  -5   2   45.04    1.76
   1  -5  -2   44.72    1.73
  -1  -5   2   44.28    1.71
  -1  -5   2   45.44    1.91
  -1  -5   2   44.12    1.90
  -1   5  -2   43.16    1.66
   1  -5  -2   43.20    1.79
  -1  -5   2   42.97    1.52
  -1  -5   2   44.80    1.76
   1  -5  -2   42.63    1.97
   1  -5  -2   43.47    1.99
   1  -5  -2   42.81    1.71
  -1  -5   2   42.69    1.66
   1  -5  -2   43.67    1.75
   1  -6   2    8.29    0.79
   1   6  -2    8.12    0.53
   1  -6   2    8.07    0.72
  -1  -6  -2    9.03    0.73
  -1  -6  -2    8.68    0.73
   1  -6   2    7.51    0.78
  -1   6   2    8.47    0.63
   1  -6   2    7.58    0.54
  -1  -6  -2    8.91    0.72
  -1  -6  -2    8.23    0.53
  -1  -6  -2    9.08    0.71
  -1  -6  -2    9.75    0.87
   1  -6   2    7.30    0.57
  -1  -6  -2    8.15    0.70
  -1  -6   2    7.76    0.67
   1  -6  -2    7.42    0.79
  -1  -6   2    8.00    0.70
  -1  -6   2    7.53    0.70
   1  -6  -2    7.74    0.67
   1  -6  -2    8.44    0.67
   1  -6  -2    9.24    0.75
  -1   6  -2    8.49    0.60
   1  -6  -2    8.71    0.53
  -1  -6   2    8.38    0.64
   1  -6  -2    9.44    0.78
   1   6   2    7.70    0.54
  -1  -6   2    8.52    0.70
   1  -6  -2    8.27    0.83
  -1  -6   2    7.41    0.49
   1  -6  -2    9.24    0.76
  -1  -6   2    7.87    0.54
   1  -7   2    0.00    0.25
  -1  -7  -2    0.34    0.19
  -1  -7  -2    0.19    0.32
  -1  -7  -2    0.38    0.31
   1  -7   2    0.26    0.17
  -1   7   2    0.36    0.22
  -1  -7  -2    0.55    0.34
  -1  -7  -2    0.15    0.29
  -1  -7  -2    0.16    0.30
  -1  -7  -2    0.39    0.40
   1  -7   2    0.18    0.21
   1  -7  -2    0.38    0.25
   1  -7  -2    0.14    0.35
   1  -7  -2    0.30    0.28
  -1  -7   2    0.37    0.23
  -1  -7   2    0.17    0.17
  -1  -7   2    0.31    0.37
   1   7   2    0.26    0.20
  -1  -7   2    0.39    0.29
   1  -7  -2    0.27    0.35
   1  -7  -2    0.30    0.36
   1  -7  -2    0.50    0.31
  -1  -7   2    0.17    0.30
   1  -7  -2    0.27    0.19
  -1  -8  -2   31.86    1.35
  -1   8   2   31.21    1.28
   1   8  -2   31.60    1.23
   1  -8   2   31.77    1.36
   1  -8   2   32.23    1.34
  -1   8   2   31.11    1.36
   1  -8   2   31.85    1.20
  -1  -8  -2   28.72    1.69
  -1  -8  -2   30.89    1.85
  -1   8   2   33.06    1.18
  -1  -8  -2   31.50    1.61
   1  -8   2   31.13    1.73
  -1  -8   2   32.46    1.46
   1   8   2   32.06    1.36
   1  -8  -2   28.74    1.70
  -1   8  -2   30.73    1.14
   1   8   2   33.30    1.31
  -1  -8   2   31.37    1.37
   1  -8  -2   30.98    1.56
  -1   8  -2   29.38    1.24
  -1  -8   2   34.85    1.24
   1  -8  -2   29.94    1.31
   1   8   2   30.82    1.12
  -1  -8   2   29.76    1.71
   1   8   2   34.18    1.26
  -1   9   2    2.51    0.41
  -1  -9  -2    1.85    0.36
   1  -9   2    2.34    0.41
  -1   9   2    1.98    0.37
   1   9  -2    2.36    0.32
  -1   9   2    2.15    0.34
  -1  -9  -2    2.79    0.56
   1  -9   2    2.32    0.37
   1  -9   2    2.41    0.43
  -1  -9   2    2.08    0.34
  -1   9  -2    2.04    0.33
   1   9   2    2.19    0.37
   1  -9  -2    2.53    0.51
   1   9   2    1.95    0.36
   1  -9  -2    2.41    0.40
   1   9   2    1.94    0.34
   1   9   2    1.96    0.38
  -1  -9   2    2.20    0.40
  -1  -9   2    1.58    0.35
  -1   9  -2    2.16    0.34
  -1  10   2    0.47    0.21
  -1  10   2    0.24    0.20
  -1 -10  -2    0.58    0.36
   1  10  -2    0.22    0.17
   1 -10   2    0.49    0.25
  -1 -10  -2    0.33    0.20
   1 -10   2    0.10    0.21
   1 -10   2    0.71    0.23
  -1  10  -2    0.48    0.19
  -1  10  -2    0.36    0.19
  -1 -10   2    0.38    0.25
   1  10   2    0.26    0.19
   1  10   2    0.15    0.19
   1  10   2    0.30    0.19
   1 -10  -2    0.68    0.25
   1 -10  -2    0.25    0.35
  -1 -10   2    0.37    0.25
  -1 -10   2    0.26    0.19
   1 -11   2    4.78    0.40
   1 -11   2    4.43    0.37
  -1 -11   2    5.30    0.40
  -1 -11   2    5.46    0.43
   1 -12   2    6.31    0.25
  -1 -12   2    6.81    0.33
   1 -12  -2    5.95    0.41
  -1   0   3    0.06    0.13
   1   0   3    0.17    0.14
   1   0  -3    0.27    0.09
  -1   0   3   -0.10    0.15
   1   0   3    0.09    0.09
  -1   0   3    0.05    0.11
   1   0   3    0.13    0.14
   1   0   3    0.02    0.10
   1   0   3    0.17    0.13
   1   0  -3    0.22    0.07
  -1   0   3    0.49    0.14
  -1   0   3    0.21    0.15
   1   0   3    0.15    0.12
  -1  -1  -3    7.32    0.42
  -1   1   3    6.92    0.45
   1  -1   3    7.12    0.43
  -1   1   3    6.74    0.34
   1  -1   3    6.51    0.47
   1  -1   3    7.02    0.34
  -1   1   3    6.78    0.46
  -1   1   3    6.71    0.46
   1  -1   3    7.34    0.45
   1  -1   3    7.32    0.50
  -1  -1   3    7.18    0.45
   1  -1  -3    9.15    0.61
  -1  -1   3    6.91    0.49
   1   1   3    7.19    0.52
  -1  -1   3    6.92    0.44
  -1  -1   3    7.23    0.50
  -1  -1   3    6.81    0.43
   1   1   3    7.03    0.44
   1   1   3    6.73    0.42
  -1  -1   3    6.76    0.44
   1   1   3    6.85    0.37
   1   1   3    6.65    0.46
   1  -1  -3    8.14    0.43
  -1   2   3   50.04    1.71
   1  -2   3   49.60    1.56
   1  -2   3   50.16    1.69
  -1   2   3   48.81    1.73
   1   2  -3   42.96    1.78
  -1  -2  -3   41.18    1.45
  -1   2   3   48.46    1.66
   1  -2   3   48.49    1.60
   1  -2   3   51.00    1.93
   1  -2   3   46.04    1.61
   1  -2   3   48.86    1.78
  -1  -2  -3   43.64    1.76
  -1  -2  -3   43.54    1.91
   1  -2   3   49.50    1.66
   1  -2  -3   44.16    1.79
   1   2   3   47.05    1.69
  -1  -2   3   50.72    1.80
  -1   2  -3   41.39    1.73
  -1  -2   3   49.95    1.67
   1   2   3   48.45    1.71
  -1  -2   3   50.17    1.63
  -1  -2   3   48.36    1.66
   1  -2  -3   43.96    1.75
   1  -2  -3   44.41    1.67
  -1  -2   3   50.23    1.89
   1  -2  -3   40.00    1.92
   1   2   3   48.14    1.65
  -1  -2   3   49.87    1.67
  -1   3   3   42.12    1.61
  -1  -3  -3   46.52    1.80
  -1   3   3   40.65    1.64
   1  -3   3   41.64    1.59
   1   3  -3   43.68    1.59
   1  -3   3   40.67    1.50
   1  -3   3   42.55    1.85
  -1  -3  -3   45.53    1.86
   1  -3   3   43.87    1.54
   1  -3   3   43.04    1.61
   1  -3   3   42.52    1.50
   1   3  -3   45.10    1.76
  -1  -3  -3   47.08    1.69
   1  -3   3   42.75    1.64
   1  -3   3   44.64    1.72
  -1  -3   3   42.68    1.62
   1  -3  -3   45.60    1.79
  -1  -3   3   43.56    1.58
   1  -3  -3   45.98    1.73
  -1  -3   3   41.15    1.61
   1  -3  -3   46.62    1.94
   1  -3  -3   44.83    1.67
  -1  -3   3   42.61    1.61
   1   3   3   44.70    1.67
  -1  -3   3   40.53    1.54
  -1  -3   3   42.69    1.80
   1   3   3   44.02    1.62
  -1  -3   3   42.67    1.69
  -1  -3   3   39.38    1.47
  -1   3  -3   45.89    1.74
   1  -3  -3   43.80    1.69
  -1  -4  -3    1.04    0.31
   1  -4   3    2.09    0.39
   1  -4   3    2.20    0.34
   1  -4   3    2.39    0.39
   1  -4   3    2.48    0.34
   1  -4   3    2.01    0.35
   1   4  -3    1.24    0.27
   1  -4   3    2.19    0.27
   1  -4   3    2.38    0.35
  -1  -4  -3    0.93    0.28
  -1   4   3    2.93    0.43
   1  -4   3    2.38    0.40
  -1   4   3    2.63    0.40
  -1  -4   3    2.75    0.39
   1  -4  -3    1.01    0.32
  -1  -4   3    1.98    0.35
  -1  -4   3    2.54    0.30
   1   4   3    2.22    0.38
  -1  -4   3    2.16    0.36
  -1  -4   3    2.24    0.28
   1  -4  -3    1.12    0.34
  -1  -4   3    2.17    0.39
  -1  -4   3    2.48    0.40
  -1  -4   3    2.59    0.41
   1  -4  -3    1.10    0.30
   1  -5   3   31.10    1.43
   1  -5   3   32.55    1.26
   1   5  -3   34.87    1.57
   1  -5   3   31.68    1.23
  -1  -5  -3   36.72    1.58
  -1  -5  -3   36.44    1.53
  -1  -5  -3   35.81    1.67
  -1  -5  -3   36.11    1.54
  -1  -5  -3   35.22    1.73
   1   5  -3   35.78    1.40
  -1   5   3   32.16    1.53
   1  -5   3   30.90    1.67
  -1  -5  -3   38.03    1.58
   1  -5   3   32.75    1.53
  -1   5  -3   35.89    1.42
   1  -5  -3   36.02    1.53
   1   5   3   31.20    1.22
  -1  -5   3   31.49    1.62
  -1  -5   3   33.37    1.50
  -1  -5   3   30.30    1.26
   1  -5  -3   37.60    1.61
  -1  -5   3   32.52    1.49
  -1  -5   3   31.05    1.23
   1  -5  -3   35.65    1.58
  -1   5  -3   36.92    1.62
  -1  -5   3   33.11    1.50
  -1  -5   3   31.32    1.43
  -1  -5   3   30.56    1.28
   1  -5  -3   35.71    1.73
   1  -5  -3   34.59    1.73
   1  -5  -3   36.58    1.24
  -1   6   3   13.29    0.71
   1  -6   3   13.32    0.67
  -1  -6  -3   10.37    0.85
   1  -6   3   12.48    0.87
   1  -6   3   13.02    0.93
  -1  -6  -3   11.52    0.86
   1  -6   3   13.03    0.70
  -1  -6  -3   10.44    0.81
  -1  -6  -3   10.58    0.88
  -1  -6  -3   10.89    0.63
   1   6  -3   11.03    0.73
  -1  -6  -3   10.15    0.96
   1  -6   3   12.30    1.00
  -1  -6   3   13.12    0.69
  -1  -6   3   13.25    0.91
   1  -6  -3    9.81    0.85
  -1   6  -3   11.22    0.75
   1  -6  -3   10.80    0.63
   1   6   3   12.36    0.68
   1  -6  -3   11.78    0.90
   1  -6  -3   11.42    0.85
  -1  -6   3   14.32    0.95
   1  -6  -3   10.85    0.98
   1  -6  -3   11.32    0.82
  -1  -6   3   12.85    0.92
  -1  -6   3   12.23    0.67
  -1  -6   3   12.27    0.90
  -1  -6   3   12.83    0.68
   1  -6  -3   10.61    0.95
   1  -6  -3   10.34    0.84
  -1  -7  -3   22.11    1.41
   1  -7   3   25.57    1.13
  -1  -7  -3   24.43    1.08
  -1  -7  -3   25.24    1.38
   1  -7   3   25.41    1.47
  -1  -7  -3   23.80    1.41
  -1  -7  -3   23.55    1.42
  -1   7   3   25.83    1.14
   1   7   3   24.51    1.12
   1  -7  -3   22.07    1.40
  -1  -7   3   24.68    1.11
   1  -7  -3   24.76    1.07
   1  -7  -3   24.66    1.31
   1  -7  -3   23.39    1.43
  -1  -7   3   25.36    1.12
   1  -7  -3   23.11    1.42
  -1  -7   3   25.08    1.43
  -1   7  -3   25.95    1.17
  -1  -8  -3   16.57    1.31
  -1   8   3   19.31    0.85
  -1   8   3   18.38    0.89
   1  -8   3   17.81    1.32
  -1  -8  -3   19.80    0.98
  -1   8   3   17.69    0.92
  -1   8   3   18.58    0.80
   1   8  -3   19.55    0.93
  -1  -8  -3   20.32    1.24
   1  -8   3   18.56    0.86
   1  -8   3   18.27    0.99
  -1   8   3   17.90    0.99
   1  -8   3   19.30    0.95
   1  -8  -3   20.35    1.21
   1   8   3   16.88    0.86
  -1  -8   3   18.03    1.31
   1  -8  -3   22.08    0.99
  -1   8  -3   20.11    0.97
  -1  -8   3   18.89    0.97
  -1  -8   3   17.95    0.87
   1   8   3   18.36    0.98
   1  -8  -3   19.19    1.38
  -1   8  -3   20.19    0.85
   1   8   3   17.22    0.91
  -1  -8   3   19.55    0.99
   1   8   3   18.20    0.78
   1  -9   3   13.06    0.74
  -1   9   3   13.29    0.73
  -1   9   3   14.22    0.71
  -1  -9  -3   14.07    0.82
   1  -9   3   11.84    0.80
   1  -9   3   12.50    0.71
  -1   9   3   12.54    0.68
   1   9  -3   14.27    0.73
  -1  -9  -3   14.68    1.05
  -1   9   3   12.88    0.82
  -1   9   3   12.80    0.76
  -1  -9   3   13.54    0.79
   1  -9  -3   13.30    0.78
  -1   9  -3   14.52    0.77
   1   9   3   12.77    0.65
  -1   9  -3   13.06    0.70
   1   9   3   14.21    0.83
   1   9   3   12.78    0.72
   1  -9  -3   13.67    1.03
  -1  -9   3   13.44    0.74
   1   9   3   12.98    0.76
  -1  -9   3   13.55    0.84
  -1 -10  -3    1.62    0.46
  -1  10   3    2.10    0.32
   1  10  -3    1.59    0.25
  -1  10   3    1.90    0.34
  -1  10   3    2.36    0.34
   1 -10   3    1.29    0.26
  -1 -10  -3    1.71    0.32
   1 -10   3    1.45    0.32
   1 -10   3    1.62    0.30
  -1 -10   3    1.24    0.31
   1  10   3    1.40    0.25
  -1 -10   3    1.36    0.28
   1 -10  -3    1.43    0.33
   1 -10  -3    0.67    0.40
  -1  10  -3    1.73    0.27
   1  10   3    1.11    0.25
  -1 -10   3    1.97    0.34
   1  10   3    1.32    0.29
  -1  10  -3    1.69    0.29
   1  10   3    1.71    0.35
   1 -11   3   12.04    0.54
   1 -11   3   12.54    0.59
  -1  11   3   12.21    0.60
  -1  11   3   12.72    0.57
   1  11   3   11.41    0.58
  -1 -11   3   12.22    0.58
   1  11   3   11.87    0.60
  -1 -11   3   11.70    0.57
   1  11   3   12.33    0.54
   1   0   4    0.20    0.19
   1   0  -4    0.20    0.07
   1   0   4    0.29    0.15
   1   0   4    0.42    0.20
   1   0  -4    0.19    0.11
   1   0   4    0.27    0.17
  -1   0   4    0.19    0.15
  -1   0   4    0.16    0.15
  -1   0   4    0.15    0.14
  -1   0   4    0.36    0.16
   1   0   4    0.48    0.16
  -1   0   4    0.19    0.21
  -1   0   4    0.18    0.19
  -1   0  -4    0.06    0.09
   1   0   4    0.34    0.17
  -1   1   4   55.75    2.03
   1  -1   4   54.57    1.98
  -1   1   4   57.50    2.04
   1  -1   4   56.49    2.14
  -1   1   4   56.55    1.80
   1  -1   4   54.60    1.85
   1  -1   4   56.44    1.95
   1   1  -4   57.07    2.10
  -1   1   4   54.99    2.16
  -1   1   4   54.23    1.97
   1  -1   4   59.04    1.91
  -1  -1  -4   54.85    2.01
   1  -1   4   58.26    2.30
   1  -1   4   56.84    1.94
   1  -1  -4   57.94    2.36
  -1  -1   4   58.90    1.97
  -1  -1   4   58.26    2.01
   1  -1  -4   56.25    1.98
  -1  -1   4   57.45    2.29
   1   1   4   53.91    2.01
   1   1   4   56.55    1.94
   1   1   4   56.93    1.84
   1   1   4   58.40    2.00
   1  -1  -4   56.46    1.97
  -1  -1   4   58.18    2.02
  -1  -1   4   58.99    1.95
   1   1   4   54.79    2.11
  -1  -1   4   55.90    2.16
   1  -2   4   30.68    1.11
  -1  -2  -4   28.83    1.47
  -1  -2  -4   27.69    1.28
   1   2  -4   26.88    1.27
  -1   2   4   33.36    1.35
   1  -2   4   33.78    1.40
   1  -2   4   33.11    1.30
   1  -2   4   33.41    1.28
  -1   2   4   31.40    1.31
   1  -2   4   34.27    1.49
  -1   2   4   30.34    1.27
   1   2   4   33.25    1.28
   1   2   4   32.16    1.35
  -1  -2   4   32.63    1.39
  -1  -2   4   32.94    1.29
  -1  -2   4   33.54    1.47
   1   2   4   33.52    1.31
  -1  -2   4   30.70    1.12
  -1  -2   4   31.06    1.27
   1   2   4   29.62    1.29
   1   2   4   32.47    1.08
   1  -2  -4   25.89    1.25
   1  -2  -4   26.49    1.33
   1  -2  -4   26.53    1.14
   1  -2  -4   25.68    1.45
  -1   2  -4   27.00    1.22
  -1  -2   4   33.01    1.29
  -1  -2   4   32.16    1.25
  -1   3   4    4.88    0.48
   1  -3   4    4.88    0.48
   1  -3   4    4.69    0.36
   1  -3   4    5.51    0.55
   1  -3   4    5.28    0.45
   1   3  -4    5.02    0.45
   1  -3   4    5.01    0.42
   1  -3   4    4.74    0.48
  -1   3   4    5.06    0.50
  -1  -3  -4    4.32    0.59
   1  -3   4    5.07    0.52
  -1  -3  -4    4.74    0.49
   1  -3  -4    4.00    0.46
   1  -3  -4    4.69    0.37
  -1   3  -4    4.82    0.43
   1   3   4    5.23    0.47
   1   3   4    5.56    0.51
   1  -3  -4    4.26    0.54
  -1  -3   4    4.79    0.36
  -1  -3   4    4.85    0.48
  -1  -3   4    4.64    0.50
   1  -3  -4    4.12    0.58
  -1  -3   4    5.39    0.52
  -1  -3   4    5.30    0.58
  -1  -3   4    5.96    0.47
  -1  -3   4    5.36    0.48
   1  -3  -4    5.16    0.61
   1  -4   4   56.03    2.21
  -1  -4  -4   51.88    2.33
  -1  -4  -4   55.08    2.03
   1   4  -4   52.99    2.22
   1  -4   4   55.51    2.11
   1  -4   4   55.13    2.08
  -1  -4  -4   53.80    2.12
   1  -4   4   54.48    1.94
   1  -4   4   53.41    2.36
  -1  -4  -4   52.55    2.06
  -1   4   4   54.83    2.09
  -1  -4  -4   52.22    2.27
  -1   4   4   52.79    2.12
   1  -4   4   53.50    1.98
   1  -4   4   51.83    1.85
   1   4  -4   50.09    1.97
  -1  -4   4   54.34    1.87
  -1  -4   4   54.13    2.00
  -1  -4   4   55.65    2.07
  -1   4  -4   51.82    1.98
   1  -4  -4   53.83    2.15
  -1  -4   4   55.89    2.19
   1  -4  -4   53.42    2.26
  -1  -4   4   52.65    2.31
  -1   4  -4   53.41    2.21
   1  -4  -4   52.50    2.40
   1   4   4   55.77    2.15
   1  -4  -4   52.95    2.13
  -1  -4   4   53.77    2.07
  -1  -4   4   54.82    2.10
  -1  -5  -4   12.99    0.77
   1   5  -4   12.44    0.84
  -1   5   4   12.18    0.90
   1  -5   4   11.14    0.94
  -1  -5  -4   12.16    0.88
   1  -5   4   12.00    0.85
  -1   5   4   10.69    0.64
   1  -5   4   10.59    0.62
  -1  -5  -4   13.27    0.90
   1  -5   4   10.59    0.63
  -1  -5  -4   13.74    1.01
   1   5  -4   13.26    0.77
   1  -5   4    9.91    0.82
  -1  -5  -4   11.97    0.86
   1  -5   4   11.66    0.86
   1  -5  -4   13.72    1.00
  -1  -5   4   11.50    0.83
  -1   5  -4   11.88    0.83
  -1   5  -4   13.06    0.78
   1   5   4   10.55    0.64
  -1  -5   4   11.26    0.82
   1  -5  -4   13.57    0.90
  -1  -5   4   11.05    0.61
  -1  -5   4   11.65    0.84
   1  -5  -4   13.07    0.82
   1  -5  -4   13.29    0.94
   1  -5  -4   12.50    1.00
  -1  -5   4   11.36    0.92
  -1  -5   4   10.26    0.63
  -1  -5   4   11.94    0.86
   1  -6   4   12.07    0.70
  -1  -6  -4   11.95    0.96
  -1  -6  -4   13.40    1.13
  -1  -6  -4   13.00    0.68
  -1  -6  -4   12.38    0.95
  -1  -6  -4   12.16    0.97
  -1   6   4   12.65    0.74
   1   6  -4   12.51    0.79
   1  -6   4   12.20    1.08
  -1  -6  -4   13.20    0.90
   1  -6   4   12.48    0.71
   1  -6   4   12.30    0.97
   1  -6   4   11.49    0.94
   1  -6  -4   13.16    1.02
   1  -6  -4   13.17    1.00
  -1  -6   4   12.57    0.72
  -1  -6   4   13.18    0.70
   1  -6  -4   12.62    0.91
   1  -6  -4   11.43    1.15
   1  -6  -4   12.13    0.97
  -1  -6   4   12.69    0.97
   1  -6  -4   12.48    1.11
   1   6   4   11.61    0.70
  -1  -6   4   13.87    1.00
  -1   6  -4   12.22    0.81
  -1  -6   4   11.90    0.94
  -1  -7  -4   29.34    1.63
  -1   7   4   28.93    1.26
  -1  -7  -4   27.73    1.64
  -1  -7  -4   28.96    1.21
  -1  -7  -4   26.81    1.57
   1   7  -4   27.39    1.28
  -1   7   4   28.74    1.18
   1  -7   4   27.25    1.10
   1  -7   4   26.22    1.57
   1  -7   4   28.93    1.25
   1  -7   4   29.99    1.25
   1  -7   4   28.27    1.15
   1   7   4   29.90    1.28
   1   7   4   29.53    1.04
  -1   7  -4   28.15    1.36
   1   7   4   28.30    1.19
   1  -7  -4   25.68    1.59
  -1  -7   4   30.28    1.24
   1   7   4   27.10    1.18
  -1  -7   4   29.14    1.13
   1  -7  -4   27.22    1.60
   1  -7  -4   28.04    1.48
  -1  -7   4   31.37    1.30
  -1  -7   4   28.65    1.60
   1  -7  -4   27.39    1.59
  -1   8   4    8.86    0.66
   1  -8   4    8.45    0.64
  -1   8   4    7.79    0.59
  -1   8   4    7.98    0.51
   1  -8   4    7.99    0.57
   1  -8   4    8.96    1.06
   1   8  -4    7.93    0.64
  -1  -8  -4    8.58    0.92
  -1   8   4    7.30    0.55
  -1   8   4    8.18    0.55
  -1  -8  -4    8.54    0.62
   1  -8   4    8.13    0.59
  -1  -8  -4    7.63    0.96
   1   8   4    8.16    0.64
  -1  -8   4    8.66    0.65
  -1  -8   4    8.62    0.60
  -1  -8   4    7.95    0.60
   1  -8  -4    8.69    1.12
   1   8   4    8.44    0.62
   1   8   4    8.08    0.59
  -1  -8   4    8.88    1.05
  -1   8  -4    8.27    0.56
  -1   8  -4    8.07    0.69
   1  -8  -4    9.60    0.89
   1   8   4    7.82    0.48
   1  -9   4    6.37    0.52
  -1  -9  -4    8.47    0.62
  -1   9   4    7.16    0.55
  -1   9   4    7.59    0.52
   1   9  -4    7.63    0.56
   1  -9   4    6.32    0.59
   1  -9   4    7.26    0.52
  -1   9   4    7.10    0.49
  -1   9   4    7.59    0.58
  -1  -9  -4    6.41    0.82
  -1   9   4    6.37    0.60
  -1  -9   4    7.07    0.56
   1   9   4    6.83    0.56
  -1  -9   4    6.26    0.51
  -1  -9   4    6.97    0.62
   1   9   4    6.51    0.61
   1   9   4    7.05    0.54
   1  -9  -4    7.12    0.83
   1   9   4    7.57    0.48
  -1   9  -4    7.61    0.53
  -1   9  -4    6.65    0.58
  -1  10   4    0.19    0.19
   1 -10   4    0.45    0.18
  -1  10   4    0.33    0.18
   1 -10   4    0.60    0.21
  -1  10   4    0.21    0.22
   1  10  -4    0.29    0.19
  -1  10   4    0.36    0.20
   1 -10   4    0.97    0.25
   1  10   4    0.12    0.18
   1  10   4    0.08    0.16
  -1  10  -4    0.18    0.17
  -1  10  -4    0.37    0.21
   1  10   4    0.54    0.21
  -1 -10   4    0.41    0.25
   1  10   4    0.27    0.23
  -1 -10   4    0.28    0.19
  -1 -10   4    0.20    0.18
  -1  11   4    3.50    0.32
   1 -11   4    2.84    0.30
  -1  11   4    3.82    0.30
   1  11   4    3.45    0.32
  -1 -11   4    3.06    0.32
   1  11   4    3.25    0.29
   1  11   4    3.40    0.32
  -1  11  -4    3.31    0.24
  -1 -11   4    2.97    0.22
   1   0   5    0.37    0.22
   1   0  -5    0.22    0.12
  -1   0   5    0.28    0.17
   1   0   5    0.25    0.17
  -1   0   5    0.36    0.21
   1   0   5    0.24    0.19
   1   0   5    0.80    0.25
   1   0   5    0.09    0.16
  -1   0   5    0.35    0.19
  -1   0   5    0.06    0.19
   1   0  -5    0.13    0.21
  -1   0   5    0.26    0.18
   1   0   5    0.09    0.16
  -1   1   5  130.09    4.20
  -1  -1  -5  128.44    4.83
   1  -1   5  131.81    4.01
  -1   1   5  131.22    3.87
   1  -1   5  134.55    4.20
  -1   1   5  128.25    4.09
   1  -1   5  129.16    4.03
  -1   1   5  130.74    4.21
   1  -1   5  135.56    4.12
   1  -1   5  125.35    3.90
  -1   1   5  126.07    4.47
   1  -1   5  126.77    4.76
  -1  -1  -5  124.03    4.26
   1  -1   5  128.59    4.46
   1   1   5  127.08    4.14
   1  -1  -5  126.16    4.83
  -1  -1   5  126.79    3.90
  -1  -1   5  128.39    4.05
  -1  -1   5  131.94    4.17
  -1  -1   5  130.00    4.03
   1   1   5  127.88    4.18
  -1  -1   5  132.18    4.79
   1   1   5  125.55    3.90
   1   1   5  127.20    4.44
  -1  -1   5  133.87    4.19
   1  -1  -5  123.46    4.40
  -1   1  -5  118.44    4.38
   1   1   5  128.18    4.04
  -1  -1   5  132.38    4.50
  -1  -2  -5   21.93    1.29
   1  -2   5   21.47    1.03
   1   2  -5   21.35    1.06
   1  -2   5   23.03    1.11
   1  -2   5   21.18    1.07
  -1   2   5   21.20    1.08
  -1   2   5   21.73    1.11
   1  -2   5   21.86    0.91
   1  -2   5   19.80    0.97
   1  -2   5   21.74    1.18
   1  -2   5   20.00    1.20
  -1   2   5   22.75    1.14
  -1  -2  -5   22.29    1.08
  -1  -2   5   22.28    0.90
   1  -2  -5   21.20    0.92
  -1  -2   5   23.47    1.21
  -1  -2   5   22.34    1.10
   1  -2  -5   21.59    1.31
  -1  -2   5   21.12    1.06
  -1  -2   5   21.52    1.05
   1   2   5   21.28    1.11
  -1  -2   5   22.15    1.09
  -1  -2   5   22.20    1.24
   1   2   5   21.82    1.07
   1  -2  -5   21.10    1.17
   1   2   5   21.43    1.14
   1  -2  -5   20.47    1.03
   1   2   5   21.48    1.09
  -1   2  -5   22.87    1.02
  -1  -3  -5  147.97    5.61
   1  -3   5  151.30    4.78
   1  -3   5  149.96    4.64
  -1   3   5  155.50    4.94
   1   3  -5  144.56    5.38
   1  -3   5  153.48    4.88
   1  -3   5  149.85    4.60
   1  -3   5  148.65    5.56
   1  -3   5  151.71    5.21
  -1   3   5  154.42    4.92
   1   3  -5  142.57    4.85
  -1   3   5  150.08    4.78
  -1  -3  -5  137.44    5.15
   1  -3   5  155.25    4.78
  -1  -3  -5  146.20    5.14
  -1  -3   5  151.26    4.80
   1   3   5  152.62    4.90
  -1  -3   5  152.81    5.55
   1  -3  -5  148.69    5.24
   1  -3  -5  144.50    5.63
  -1  -3   5  150.43    4.61
   1  -3  -5  149.05    5.21
  -1   3  -5  145.21    5.35
  -1  -3   5  155.42    4.87
  -1  -3   5  153.71    5.22
  -1  -3   5  157.37    4.75
   1   3   5  151.49    4.78
   1  -3  -5  146.49    5.16
   1   3   5  151.52    4.89
  -1  -3   5  155.86    4.86
   1  -4   5   12.97    0.89
   1   4  -5   13.41    0.88
   1  -4   5   11.41    0.68
  -1  -4  -5   13.86    0.98
  -1  -4  -5   13.89    1.04
   1  -4   5   11.62    0.87
  -1  -4  -5   14.64    0.70
   1  -4   5   10.89    0.95
  -1  -4  -5   15.51    0.98
  -1   4   5   12.77    0.92
  -1   4   5   11.83    0.87
   1   4  -5   12.94    0.80
   1  -4   5   12.46    0.92
  -1  -4   5   11.54    0.87
   1   4   5   13.16    0.94
   1  -4  -5   15.48    1.00
  -1  -4   5   13.60    0.96
   1  -4  -5   13.40    0.78
   1  -4  -5   13.48    0.93
  -1  -4   5   12.84    0.89
  -1  -4   5   11.40    0.81
  -1  -4   5   10.94    0.94
   1  -4  -5   12.82    1.04
  -1  -4   5   11.91    0.88
  -1  -4   5   11.27    0.67
  -1   4  -5   14.81    0.89
  -1   4  -5   13.48    0.81
  -1  -5  -5   15.62    1.05
   1  -5   5   15.30    1.06
   1   5  -5   17.61    1.08
   1  -5   5   14.31    1.14
   1  -5   5   14.53    0.77
   1  -5   5   14.06    1.00
   1   5  -5   16.24    0.93
   1  -5   5   14.30    0.79
  -1  -5  -5   16.37    1.17
  -1   5   5   13.94    1.04
   1  -5   5   14.99    1.08
  -1  -5  -5   15.79    0.91
  -1  -5  -5   16.28    1.09
  -1   5   5   14.08    0.78
  -1   5  -5   16.62    1.04
   1  -5  -5   16.08    1.09
  -1  -5   5   15.05    1.06
   1   5   5   13.37    0.76
   1  -5  -5   14.28    1.18
   1   5   5   13.24    1.02
  -1  -5   5   14.28    1.13
   1  -5  -5   18.35    1.23
  -1   5  -5   15.87    0.93
   1  -5  -5   15.08    1.04
   1  -5  -5   16.83    0.97
  -1  -5   5   13.87    0.79
  -1  -5   5   13.88    0.99
  -1  -5   5   13.28    0.98
  -1  -5   5   14.22    0.99
  -1  -6  -5   59.91    2.57
   1  -6   5   60.07    2.05
   1  -6   5   62.61    2.19
  -1  -6  -5   58.82    2.53
  -1  -6  -5   58.72    2.55
   1  -6   5   59.93    2.55
   1   6  -5   58.63    2.30
   1  -6   5   54.08    2.83
  -1   6   5   58.43    2.12
   1  -6  -5   59.49    2.60
   1  -6  -5   59.96    2.57
   1   6   5   58.95    2.12
  -1   6  -5   60.49    2.33
  -1  -6   5   59.29    2.51
  -1  -6   5   61.28    2.19
   1  -6  -5   57.38    2.55
   1   7  -5    7.00    0.71
  -1   7   5    7.26    0.57
  -1   7   5    7.80    0.58
   1  -7   5    8.18    0.62
  -1  -7  -5    5.79    0.84
   1  -7   5    8.34    0.53
  -1   7   5    7.99    0.54
   1  -7   5    8.41    1.01
  -1   7   5    6.84    0.58
   1  -7   5    7.44    0.48
   1  -7   5    8.65    0.65
   1  -7   5    7.67    0.57
  -1  -7   5    7.36    0.51
  -1  -7   5    7.97    0.64
   1   7   5    6.83    0.60
  -1  -7   5    8.02    0.54
  -1   7  -5    7.00    0.73
   1   7   5    8.06    0.59
  -1  -7   5    6.69    0.86
   1   7   5    8.14    0.43
  -1  -7   5    7.86    0.55
   1  -7  -5    5.94    0.83
   1   7   5    6.87    0.54
  -1   8   5    8.66    0.62
  -1   8   5    9.04    0.62
   1  -8   5    8.80    0.52
  -1   8   5    9.73    0.69
   1  -8   5    9.48    0.68
   1   8  -5    9.96    0.73
  -1   8   5    9.44    0.58
  -1   8   5    9.35    0.51
   1  -8   5    9.15    0.61
  -1  -8   5    8.84    0.69
  -1  -8   5    9.31    0.59
  -1  -8   5    8.55    0.60
   1   8   5    8.00    0.61
   1   8   5    9.29    0.69
   1   8   5    9.31    0.62
   1   8   5    9.93    0.51
   1  -8  -5    8.59    0.94
  -1  -9  -5   13.12    1.02
   1  -9   5   11.12    0.72
  -1   9   5   10.80    0.67
  -1   9   5   10.66    0.56
   1   9  -5   11.99    0.70
  -1   9   5    9.97    0.72
  -1   9   5   10.87    0.64
  -1   9   5   11.64    0.61
   1  -9   5   10.81    0.64
   1  -9   5   10.45    0.52
  -1  -9   5   11.23    0.66
   1   9   5   11.31    0.54
   1  -9  -5   11.68    0.97
  -1  -9   5   10.61    0.57
  -1   9  -5   10.53    0.61
   1   9   5   11.14    0.68
   1   9   5   11.20    0.67
  -1   9  -5   11.58    0.73
   1   9   5   10.42    0.71
  -1  10   5    0.24    0.18
  -1  10   5    0.36    0.21
   1  10  -5    0.34    0.19
  -1  10   5    0.34    0.18
   1 -10   5    0.31    0.17
  -1  10   5    0.12    0.15
  -1 -10   5    0.01    0.15
   1  10   5    0.48    0.18
  -1 -10   5    0.27    0.13
   1  10   5    0.06    0.21
  -1  10  -5    0.32    0.18
   1  10   5    0.42    0.20
  -1  10  -5    0.19    0.20
   1  10   5    0.30    0.16
  -1  11   5    9.35    0.40
   1 -11   5    9.00    0.46
  -1  11   5    9.71    0.48
   1  11   5    8.93    0.47
   1  11   5    9.91    0.39
   1  11   5    9.09    0.45
  -1 -11   5    9.14    0.46
  -1  11  -5   10.21    0.39
  -1   0   6   -0.05    0.20
   1   0   6    0.06    0.21
   1   0   6    0.27    0.23
   1   0  -6    0.09    0.14
   1   0   6   -0.03    0.22
   1   0   6    0.15    0.17
   1   0   6   -0.02    0.16
   1   0  -6   -0.02    0.20
  -1   0   6    0.03    0.17
   1   0   6    0.05    0.14
  -1   0   6    0.03    0.20
  -1   0   6    0.15    0.14
   1   0   6    0.33    0.23
  -1   0   6    0.06    0.20
  -1   0   6   -0.04    0.22
  -1   1   6   21.92    1.15
  -1  -1  -6   19.24    1.31
   1  -1   6   22.42    1.33
   1  -1   6   21.92    1.24
   1  -1   6   21.97    1.10
   1  -1   6   21.70    1.10
   1  -1   6   21.69    0.92
   1  -1   6   22.61    1.17
  -1   1   6   21.15    1.23
  -1   1   6   19.75    1.15
  -1   1   6   21.51    1.17
   1  -1   6   22.82    1.14
   1   1   6   22.65    1.16
  -1  -1   6   21.79    1.13
   1   1   6   21.37    1.11
  -1   1  -6   20.53    0.96
  -1  -1   6   22.21    1.28
   1  -1  -6   19.58    0.96
   1   1   6   21.79    1.01
  -1  -1   6   21.17    1.15
  -1  -1   6   22.95    1.11
   1   1   6   22.19    1.24
  -1  -1   6   21.47    1.15
   1  -1  -6   18.84    1.32
   1   1   6   22.31    1.18
  -1  -1   6   21.45    0.91
  -1  -1   6   21.64    1.32
   1  -2   6   20.49    1.15
  -1   2   6   21.76    1.20
   1  -2   6   22.13    1.35
   1  -2   6   20.79    0.93
   1   2  -6   19.54    1.10
   1  -2   6   21.81    1.16
  -1   2   6   20.42    1.14
  -1   2   6   21.93    1.20
   1  -2   6   20.83    1.11
   1  -2   6   21.38    1.10
  -1  -2  -6   19.30    1.34
   1  -2   6   21.76    1.24
  -1  -2   6   24.22    1.32
  -1  -2   6   21.75    1.19
   1  -2  -6   19.46    0.96
   1  -2  -6   18.10    1.33
   1   2   6   22.46    1.22
   1   2   6   22.89    1.20
  -1  -2   6   21.56    0.92
  -1  -2   6   23.11    1.16
   1  -2  -6   19.50    1.24
   1   2   6   22.05    1.16
   1   2   6   22.15    1.25
  -1  -2   6   20.38    1.32
  -1  -2   6   21.05    1.12
  -1  -2   6   22.39    1.17
  -1   2  -6   20.74    1.06
   1  -3   6   17.25    1.14
  -1   3   6   18.96    1.13
   1  -3   6   17.20    1.06
   1  -3   6   16.30    0.83
  -1   3   6   18.46    1.09
   1   3  -6   16.53    0.98
   1  -3   6   16.96    1.08
  -1  -3  -6   17.29    1.12
   1  -3   6   16.13    1.20
  -1   3   6   17.35    1.10
  -1  -3  -6   16.53    1.25
   1   3  -6   17.19    1.03
  -1  -3   6   18.66    1.10
   1   3   6   17.08    1.06
  -1  -3   6   17.27    0.84
   1   3   6   17.61    1.09
   1  -3  -6   16.26    1.24
  -1  -3   6   17.20    1.08
  -1   3  -6   16.37    0.98
  -1  -3   6   17.03    1.06
   1   3   6   17.87    1.10
  -1  -3   6   17.00    1.19
   1  -3  -6   17.26    0.90
   1  -3  -6   16.59    1.13
  -1  -3   6   17.77    1.04
  -1  -3   6   16.88    1.15
  -1   4   6   19.42    0.94
   1  -4   6   19.62    1.25
  -1  -4  -6   22.06    1.46
   1  -4   6   20.94    1.01
  -1  -4  -6   23.81    1.33
  -1   4   6   20.10    1.25
   1   4  -6   22.93    1.27
   1   4  -6   21.97    1.16
   1  -4   6   21.00    1.26
  -1  -4  -6   21.64    1.34
   1  -4   6   21.08    1.42
  -1   4   6   19.60    1.23
   1  -4   6   21.30    1.32
   1  -4  -6   21.55    1.12
  -1  -4   6   20.18    1.20
  -1  -4   6   19.90    1.39
  -1   4  -6   22.62    1.16
   1   4   6   20.28    0.96
   1  -4  -6   21.31    1.29
   1   4   6   21.01    1.28
  -1  -4   6   19.57    0.98
  -1  -4   6   21.21    1.35
  -1   4  -6   21.67    1.23
  -1  -4   6   21.84    1.26
  -1  -4   6   20.72    1.25
  -1  -4   6   19.91    1.24
   1   4   6   20.00    1.24
   1  -4  -6   20.49    1.46
  -1   5   6    6.24    0.87
   1  -5   6    6.17    0.86
  -1  -5  -6    4.84    0.73
   1  -5   6    6.51    0.87
   1  -5   6    4.90    0.83
   1   5  -6    5.71    0.67
   1  -5   6    6.48    0.55
  -1  -5  -6    5.82    0.59
  -1   5   6    5.99    0.52
   1   5  -6    6.02    0.70
   1  -5   6    5.83    0.90
  -1  -5  -6    5.26    0.83
  -1  -5   6    5.10    0.50
  -1  -5   6    4.53    0.68
   1  -5  -6    4.86    0.83
  -1   5  -6    6.04    0.71
  -1  -5   6    5.52    0.92
  -1   5  -6    6.05    0.69
   1  -5  -6    5.44    0.80
   1   5   6    5.66    0.83
   1   5   6    5.38    0.50
   1  -5  -6    6.04    0.62
  -1   6   6   27.84    1.17
  -1   6   6   27.63    1.06
  -1  -6  -6   28.95    1.71
  -1   6   6   27.65    0.95
   1  -6   6   30.45    1.71
  -1   6   6   27.75    1.26
  -1   6   6   28.33    1.20
   1  -6   6   27.72    1.11
   1   6  -6   31.70    1.47
   1  -6   6   28.90    0.94
   1  -6   6   29.34    1.33
  -1  -6  -6   30.60    1.58
  -1  -6  -6   28.44    1.65
   1  -6   6   29.23    1.07
   1   6   6   29.21    1.18
  -1  -6   6   28.16    1.04
   1   6   6   30.08    1.30
   1   6   6   28.94    1.20
   1  -6  -6   31.02    1.71
  -1  -6   6   30.76    1.68
  -1  -6   6   30.56    1.14
  -1  -6   6   29.24    1.07
  -1   6  -6   31.79    1.50
  -1  -6   6   29.54    1.33
   1  -6  -6   30.08    1.70
  -1   7   6    1.46    0.28
   1  -7   6    2.04    0.20
   1  -7   6    1.78    0.62
   1  -7   6    1.88    0.37
   1   7  -6    2.29    0.45
   1  -7   6    1.54    0.31
   1  -7   6    2.32    0.33
  -1   7   6    1.71    0.26
  -1   7   6    2.65    0.41
  -1   7   6    1.68    0.31
  -1  -7  -6    2.14    0.60
  -1   7   6    2.17    0.40
   1   7   6    1.63    0.23
   1   7   6    1.06    0.28
  -1  -7   6    1.36    0.24
  -1   7  -6    2.34    0.45
  -1  -7   6    2.39    0.36
   1  -7  -6    2.08    0.59
   1   7   6    1.39    0.31
   1   7   6    1.59    0.35
  -1  -7   6    1.29    0.48
  -1  -7   6    2.09    0.41
  -1  -7   6    1.87    0.34
  -1   8   6   10.49    0.66
   1  -8   6   10.86    0.60
  -1   8   6   12.25    0.56
   1  -8   6   11.17    0.66
  -1   8   6   11.00    0.70
  -1   8   6   11.07    0.61
   1  -8   6   11.56    0.80
  -1   8   6   10.86    0.74
   1   8   6   12.13    0.53
  -1  -8   6   10.44    0.65
  -1  -8   6   10.90    0.78
   1   8   6   10.20    0.67
  -1  -8   6   10.75    0.51
  -1   8  -6   11.50    0.81
   1   8   6   11.83    0.71
   1   8   6   12.07    0.77
   1  -8  -6   12.41    1.04
  -1  -8   6   11.86    0.62
   1  -9   6    0.24    0.19
  -1   9   6    0.04    0.16
  -1   9   6    0.16    0.17
  -1   9   6   -0.10    0.18
  -1   9   6    0.37    0.14
  -1   9   6    0.16    0.17
   1   9  -6    0.41    0.23
   1   9   6    0.07    0.22
  -1   9  -6   -0.02    0.17
  -1   9  -6    0.28    0.25
   1   9   6    0.11    0.18
  -1  -9   6   -0.13    0.15
   1   9   6    0.38    0.14
   1   9   6   -0.04    0.14
  -1  10   6    0.29    0.16
   1 -10   6    0.44    0.18
   1  10  -6    0.14    0.18
  -1  10   6    0.41    0.14
  -1  10   6    0.23    0.15
   1  10   6    0.30    0.16
   1  10   6    0.38    0.16
  -1  10  -6    0.38    0.16
  -1  10  -6    0.29    0.20
   1  10   6    0.61    0.14
  -1 -10   6    0.30    0.17
   1 -10  -6    0.23    0.18
   1  10   6    0.23    0.19
   1 -11   6    1.35    0.18
  -1  11   6    1.34    0.14
  -1 -11   6    1.21    0.18
   1  11   6    1.44    0.13
   1  11   6    1.40    0.19
  -1   0   7    0.21    0.24
   1   0   7   -0.02    0.25
  -1   0   7    0.42    0.33
   1   0   7    0.07    0.26
  -1   0   7    0.09    0.23
   1   0  -7    0.11    0.18
   1   0   7   -0.19    0.14
   1   0  -7    0.27    0.31
   1   0   7   -0.09    0.23
  -1   0   7    0.02    0.23
   1   0   7    0.14    0.27
   1   0   7    0.04    0.23
  -1   0  -7    0.11    0.27
   1  -1   7    1.83    0.43
   1  -1   7    1.14    0.44
  -1  -1  -7    1.84    0.51
   1  -1   7    2.11    0.45
   1  -1   7    2.25    0.51
   1   1  -7    1.83    0.38
  -1   1   7    1.87    0.44
  -1   1   7    1.69    0.45
   1  -1   7    2.55    0.51
   1  -1   7    2.33    0.34
   1   1  -7    2.25    0.59
  -1   1   7    1.98    0.44
   1  -1   7    2.53    0.51
  -1  -1   7    2.17    0.53
   1  -1  -7    2.20    0.54
  -1  -1   7    1.91    0.30
  -1   1  -7    2.10    0.36
  -1  -1   7    2.86    0.53
   1   1   7    2.05    0.44
  -1  -1   7    2.10    0.44
   1   1   7    1.61    0.40
   1   1   7    1.97    0.46
   1  -1  -7    1.37    0.46
  -1  -1   7    2.18    0.47
   1  -1  -7    1.90    0.34
   1   1   7    1.47    0.43
  -1  -1   7    1.69    0.41
  -1   2   7   75.16    3.02
   1  -2   7   77.27    3.02
   1   2  -7   78.19    3.14
   1  -2   7   76.72    3.45
  -1   2   7   77.63    2.98
   1  -2   7   79.33    2.95
  -1  -2  -7   84.18    3.62
  -1   2   7   80.43    3.06
   1  -2   7   81.76    2.67
   1  -2   7   78.63    3.24
  -1  -2   7   77.13    3.01
  -1   2  -7   79.64    3.09
   1   2   7   77.52    2.95
  -1  -2   7   79.20    2.93
   1   2   7   77.28    3.19
  -1  -2   7   79.39    2.65
  -1  -2   7   75.64    3.24
   1  -2  -7   77.73    3.54
  -1  -2   7   78.97    3.49
  -1  -2   7   76.69    2.93
   1   2   7   78.63    3.03
   1  -2  -7   81.37    3.29
   1  -2  -7   81.48    3.01
   1   2   7   78.97    3.04
  -1  -2   7   75.40    2.97
  -1   3   7    3.43    0.43
  -1   3   7    3.31    0.63
   1  -3   7    4.12    0.74
   1  -3   7    3.42    0.44
   1  -3   7    3.24    0.58
   1   3  -7    3.53    0.56
   1  -3   7    3.19    0.68
  -1   3   7    3.73    0.65
  -1   3   7    3.85    0.65
  -1  -3  -7    4.29    0.80
   1  -3   7    2.13    0.49
   1   3  -7    3.15    0.54
   1  -3  -7    3.51    0.67
  -1  -3   7    2.78    0.39
  -1  -3   7    2.87    0.54
  -1  -3   7    4.49    0.70
  -1  -3   7    3.35    0.58
  -1  -3   7    3.99    0.66
  -1  -3   7    3.46    0.68
   1   3   7    4.33    0.68
  -1   3  -7    4.41    0.61
   1   3   7    2.81    0.54
   1  -3  -7    4.32    0.48
  -1  -3   7    3.12    0.64
   1   3   7    4.22    0.66
   1  -3  -7    4.64    0.83
  -1  -4  -7   12.53    1.28
   1   4  -7   14.46    1.07
  -1   4   7   15.60    1.14
   1   4  -7   13.82    1.00
   1  -4   7   16.33    0.89
   1  -4   7   16.89    1.26
   1  -4   7   16.13    1.16
  -1   4   7   14.30    0.81
  -1  -4  -7   14.23    1.12
  -1  -4   7   15.49    1.24
   1  -4  -7   14.14    1.12
  -1  -4   7   14.60    1.11
  -1  -4   7   13.89    1.37
  -1   4  -7   15.33    1.01
  -1  -4   7   16.77    0.89
   1   4   7   15.08    0.82
   1  -4  -7   15.29    0.97
  -1   4  -7   13.98    1.05
   1   4   7   14.94    1.16
  -1  -5  -7    5.55    0.64
   1  -5   7    6.70    0.53
  -1   5   7    6.82    0.54
   1   5  -7    5.37    0.69
  -1   5   7    6.25    0.37
  -1   5   7    6.06    0.56
   1  -5   7    6.81    0.59
  -1   5   7    3.57    0.70
  -1   5   7    6.51    0.57
   1  -5   7    5.96    0.83
   1  -5   7    5.92    0.49
   1  -5   7    5.05    0.84
   1  -5   7    6.22    0.46
  -1   5   7    6.38    0.51
   1  -5   7    5.85    0.47
  -1  -5  -7    4.84    0.77
   1   5  -7    5.61    0.83
  -1   5  -7    5.74    0.72
  -1  -5   7    5.07    0.79
  -1  -5   7    5.41    0.93
   1   5   7    6.95    0.55
  -1  -5   7    5.71    0.45
   1   5   7    6.38    0.93
   1   5   7    6.52    0.57
   1  -5  -7    5.19    0.72
   1  -5  -7    5.84    0.87
  -1  -5   7    6.34    0.58
   1   5   7    6.38    0.56
   1   5   7    6.86    0.54
  -1  -5   7    5.99    0.53
   1   5   7    6.00    0.33
  -1   5  -7    5.62    0.82
  -1   6   7    3.66    0.49
  -1   6   7    3.97    0.42
   1  -6   7    4.30    0.54
  -1   6   7    3.63    0.45
  -1  -6  -7    2.72    0.61
   1  -6   7    4.09    0.46
   1   6  -7    2.94    0.53
   1  -6   7    4.61    0.80
  -1   6   7    2.96    0.40
  -1   6   7    3.50    0.31
   1  -6   7    3.39    0.38
   1   6   7    3.72    0.50
  -1  -6   7    4.14    0.43
  -1  -6   7    4.12    0.80
  -1  -6   7    3.83    0.52
   1   6   7    4.05    0.44
   1   6   7    3.96    0.49
  -1   6  -7    2.98    0.54
   1   6   7    3.53    0.28
  -1  -6   7    3.65    0.44
   1   6   7    4.08    0.48
   1  -6  -7    2.81    0.65
   1  -7   7   14.35    0.90
  -1   7   7   13.51    0.83
   1  -7   7   13.89    0.70
  -1   7   7   14.97    0.80
  -1   7   7   13.50    0.69
  -1   7   7   13.67    0.58
   1  -7   7   13.25    0.73
   1   7  -7   12.62    0.96
  -1   7   7   13.72    0.75
  -1   7  -7   12.90    0.98
  -1  -7   7   13.31    0.87
  -1  -7   7   13.80    0.72
   1   7   7   14.30    0.55
   1   7   7   13.74    0.77
   1   7   7   14.38    0.79
   1   7   7   13.72    0.84
  -1  -7   7   14.05    0.70
  -1   8   7    2.46    0.37
   1  -8   7    1.98    0.32
  -1   8   7    2.22    0.31
  -1   8   7    2.49    0.41
   1  -8   7    2.47    0.32
  -1   8   7    2.04    0.33
  -1   8   7    2.29    0.25
   1  -8   7    2.29    0.43
   1   8   7    2.69    0.41
   1   8   7    2.54    0.37
  -1  -8   7    2.17    0.30
   1   8   7    2.31    0.36
   1   8   7    2.35    0.24
  -1  -8   7    2.38    0.33
  -1  -8   7    2.29    0.42
  -1   8  -7    2.46    0.47
  -1   9   7    2.76    0.29
   1   9  -7    3.05    0.38
   1  -9   7    3.45    0.37
  -1   9   7    2.80    0.36
  -1   9   7    2.45    0.36
  -1   9   7    2.38    0.32
  -1   9   7    2.70    0.26
   1   9   7    2.63    0.23
   1   9   7    2.59    0.34
  -1  -9   7    2.46    0.32
   1   9   7    1.86    0.34
   1   9   7    2.47    0.33
  -1   9  -7    3.02    0.32
  -1   9  -7    2.93    0.43
   1 -10   7    7.29    0.41
  -1  10   7    7.47    0.32
  -1  10   7    7.04    0.42
  -1  10   7    6.57    0.39
   1  10  -7    7.43    0.42
  -1 -10   7    7.60    0.41
   1  10   7    7.26    0.43
  -1  10  -7    6.91    0.45
   1  10   7    7.62    0.29
   1  10   7    7.19    0.41
   1   0   8   -0.34    0.32
   1   0   8    0.03    0.34
  -1   0  -8    0.19    0.44
  -1   0   8   -0.39    0.32
  -1   0   8    0.33    0.34
   1   0  -8   -0.13    0.38
   1   0   8   -0.07    0.27
  -1   0   8    0.44    0.32
  -1   0   8    0.09    0.31
   1   0   8   -0.06    0.30
  -1   1   8    8.80    0.97
   1   1  -8    7.86    0.72
   1  -1   8    7.39    0.57
   1  -1   8    6.94    0.90
   1  -1   8    7.77    0.91
   1   1  -8    7.99    1.14
  -1   1   8    7.41    0.89
   1  -1   8    7.82    0.94
  -1   1   8    6.72    0.87
  -1  -1  -8    8.58    1.19
  -1   1  -8    7.94    0.69
   1  -1  -8    8.74    0.70
  -1  -1   8    8.90    1.01
  -1  -1   8    8.21    0.58
  -1   1  -8    6.61    1.09
   1  -1  -8    7.78    1.14
   1   1   8    6.35    0.83
  -1  -1   8    8.29    0.92
  -1  -1   8    6.47    0.83
   1   1   8    7.51    0.91
   1   1   8    8.67    0.92
   1  -1  -8    7.92    1.05
  -1  -1   8    6.80    0.87
   1   1   8    7.20    0.92
   1  -2   8    7.69    0.59
   1  -2   8    8.38    0.98
  -1   2   8    6.85    0.91
   1  -2   8    6.21    0.87
   1   2  -8    6.05    0.71
   1  -2   8    6.42    0.80
  -1  -2  -8    6.54    0.97
  -1   2   8    8.05    0.98
  -1  -2   8    7.30    1.02
   1  -2  -8    6.70    0.98
  -1  -2   8    7.23    0.89
   1  -2  -8    7.06    0.67
  -1  -2   8    6.55    0.83
   1   2   8    6.79    0.86
  -1  -2   8    8.25    0.59
  -1  -2   8    8.43    0.98
  -1  -2   8    8.64    0.88
  -1   2  -8    6.66    0.70
   1   2   8    8.95    0.92
   1  -3   8    8.69    0.64
  -1   3   8    6.39    0.87
   1  -3   8    7.44    0.96
   1  -3   8    9.53    1.08
  -1   3   8    8.67    1.02
   1   3  -8    8.86    0.86
   1  -3  -8    6.70    0.96
   1  -3  -8    8.48    0.77
   1   3   8    7.38    0.94
  -1  -3   8    8.64    0.65
   1   3   8    8.45    1.01
  -1  -3   8    8.07    1.01
  -1   3  -8    7.77    0.81
  -1  -3   8    8.98    1.10
  -1   4   8   27.17    1.14
   1  -4   8   28.45    0.97
  -1   4   8   27.92    1.06
   1   4  -8   26.95    1.49
   1  -4   8   28.13    1.80
   1  -4   8   27.43    1.29
  -1   4   8   28.07    1.23
   1  -4   8   28.90    1.14
  -1   4   8   27.79    0.86
  -1  -4  -8   26.24    1.64
   1  -4   8   27.82    1.71
   1  -4   8   28.06    1.04
  -1  -4   8   28.24    1.04
   1   4   8   28.13    1.15
  -1  -4   8   26.45    1.79
   1   4   8   28.73    1.24
  -1  -4   8   27.79    0.99
  -1  -4   8   28.17    1.13
   1   4   8   28.96    1.07
  -1   4  -8   26.33    1.49
   1   4   8   28.80    0.81
   1  -4  -8   26.95    1.64
  -1  -4   8   30.22    1.33
  -1  -4   8   26.94    1.66
   1   5  -8   19.90    1.27
   1  -5   8   20.08    1.55
  -1  -5  -8   21.32    1.49
  -1   5   8   20.29    0.96
   1  -5   8   22.09    0.96
  -1   5   8   22.03    1.08
   1  -5   8   22.19    0.85
   1  -5   8   21.55    0.89
  -1   5   8   22.86    0.93
  -1   5   8   21.50    0.73
   1  -5   8   21.69    1.12
   1  -5   8   20.81    1.53
  -1   5  -8   20.52    1.29
  -1  -5   8   19.30    1.47
   1   5   8   21.41    0.68
  -1  -5   8   22.13    0.89
  -1  -5   8   21.19    0.94
   1   5   8   23.02    1.09
  -1  -5   8   22.42    1.13
   1   5   8   23.16    0.91
   1  -5  -8   19.14    1.44
  -1  -5   8   22.90    1.63
   1   5   8   21.50    0.99
  -1  -5   8   22.11    0.89
   1  -6   8   10.30    0.59
  -1   6   8   10.30    0.74
   1  -6   8   10.39    0.65
  -1   6   8   10.88    0.66
   1   6  -8   10.67    0.90
  -1   6   8   10.26    0.67
   1  -6   8    9.91    0.57
  -1   6   8   10.00    0.59
   1  -6   8   11.07    0.64
   1  -6   8   10.56    0.77
  -1   6   8   10.44    0.47
   1   6   8   10.28    0.67
   1   6   8    9.98    0.66
  -1   6  -8    9.73    0.89
  -1  -6   8   10.72    0.61
   1   6   8   10.54    0.75
   1   6   8   10.29    0.43
  -1  -6   8    9.33    0.75
  -1  -6   8   10.61    0.65
   1   6   8   11.10    0.62
  -1   7   8    2.11    0.32
  -1   7   8    2.55    0.25
   1  -7   8    1.62    0.30
   1   7  -8    1.22    0.45
  -1   7   8    1.86    0.35
  -1   7   8    2.04    0.32
   1  -7   8    2.40    0.34
   1  -7   8    2.10    0.42
  -1   7   8    2.40    0.32
  -1  -7   8    2.49    0.35
  -1   7  -8    1.51    0.43
   1   7   8    2.39    0.22
  -1  -7   8    1.93    0.40
   1   7   8    1.93    0.38
   1   7   8    2.75    0.38
   1   7   8    2.49    0.38
  -1  -7   8    2.42    0.33
   1  -8   8    2.93    0.33
  -1   8   8    2.75    0.39
  -1   8   8    2.76    0.36
  -1   8   8    2.69    0.34
  -1   8   8    2.86    0.25
   1  -8   8    2.68    0.33
  -1   8   8    2.63    0.30
   1   8   8    2.77    0.41
   1   8   8    3.15    0.38
   1   8   8    2.81    0.22
  -1  -8   8    2.68    0.33
   1   8   8    2.49    0.34
   1   9  -8    1.93    0.32
  -1   9   8    1.83    0.25
  -1   9   8    1.73    0.25
  -1   9   8    1.91    0.18
   1  -9   8    1.79    0.25
  -1   9   8    1.25    0.22
   1   9   8    1.89    0.26
  -1  -9   8    2.19    0.27
  -1   9  -8    1.63    0.23
   1   9   8    1.70    0.13
   1  -9  -8    1.25    0.27
   1   9   8    1.82    0.25
   1   9   8    1.81    0.30
  -1   9  -8    1.94    0.33
   1  10  -8    0.85    0.16
   1 -10  -8    0.86    0.16
  -1  10  -8    1.20    0.20
   1  10   8    0.64    0.15
   1  10   8    0.88    0.15
   1   0  -9    0.30    0.29
  -1   0   9    0.17    0.12
  -1   0   9    0.01    0.22
   1   0   9    0.09    0.10
   1   0   9    0.04    0.20
  -1   0  -9   -0.24    0.30
  -1   0   9    0.42    0.39
  -1   0   9    0.08    0.20
   1   0   9    0.13    0.37
  -1   0   9   -0.30    0.34
   1   0  -9   -0.39    0.35
   1   0   9    0.21    0.35
  -1   0   9    0.21    0.20
   1   0   9    0.25    0.21
   1  -1   9   11.69    0.48
  -1   1   9   11.14    0.69
  -1   1   9   11.14    0.64
  -1  -1  -9   13.08    1.28
  -1   1   9   11.76    0.49
   1  -1   9   11.83    0.74
   1  -1   9   11.00    1.10
  -1   1   9   12.06    1.07
   1  -1   9   10.74    1.16
   1  -1   9   11.43    0.63
  -1   1   9   11.63    1.11
  -1   1   9   11.36    0.69
   1  -1   9   12.16    0.68
   1   1  -9   12.43    1.26
  -1  -1   9   10.79    0.67
   1   1   9   11.97    1.10
   1   1   9   10.88    0.63
   1   1   9   12.25    0.72
   1  -1  -9   13.17    0.99
  -1  -1   9   11.32    1.14
   1   1   9   11.41    0.44
  -1  -1   9   12.40    1.11
  -1   1  -9   13.64    1.00
  -1  -1   9   11.83    0.53
  -1  -1   9   10.79    0.62
  -1  -1   9   12.43    0.69
   1  -1  -9   15.70    1.31
   1   1   9   11.48    1.15
  -1   2   9   14.27    0.54
   1  -2   9   14.40    0.58
  -1   2   9   15.20    0.71
  -1   2   9   15.82    1.24
   1  -2   9   15.23    0.88
  -1   2   9   13.94    0.75
   1  -2   9   13.57    0.69
   1  -2   9   14.56    0.77
  -1  -2  -9   16.01    1.41
   1  -2   9   15.01    1.32
   1  -2   9   14.91    1.26
  -1  -2   9   15.13    0.78
  -1  -2   9   14.98    1.23
   1   2   9   14.56    0.77
   1   2   9   14.03    0.72
  -1  -2   9   13.27    0.68
  -1  -2   9   14.75    0.61
   1  -2  -9   13.92    1.31
  -1  -2   9   15.84    0.87
  -1  -2   9   15.59    1.35
   1   2   9   14.17    0.49
   1   2   9   13.26    1.18
  -1   3   9   25.67    1.01
  -1  -3  -9   23.75    1.64
  -1   3   9   25.74    0.80
   1  -3   9   27.18    0.89
   1  -3   9   27.00    1.26
   1  -3   9   25.81    1.78
   1  -3   9   26.55    1.69
   1  -3   9   25.65    1.01
   1  -3   9   26.02    1.09
  -1   3   9   25.27    1.09
  -1  -3   9   26.00    0.91
   1  -3  -9   23.82    1.64
   1  -3  -9   24.64    1.73
   1   3   9   24.47    0.73
  -1  -3   9   25.12    1.64
  -1  -3   9   26.74    1.02
  -1  -3   9   25.88    1.08
  -1  -3   9   23.82    1.74
  -1  -3   9   27.73    1.26
   1   3   9   28.10    1.12
   1   3   9   27.20    1.01
   1  -4   9    3.37    0.51
   1  -4   9    3.07    0.32
  -1   4   9    3.59    0.46
   1  -4   9    3.20    0.37
   1  -4   9    2.86    0.39
  -1   4   9    4.53    0.45
   1   4  -9    4.76    0.74
   1  -4   9    4.32    0.89
  -1   4   9    3.03    0.26
  -1  -4  -9    3.92    0.80
   1   4   9    3.64    0.22
  -1  -4   9    3.50    0.37
   1   4   9    3.28    0.39
  -1  -4   9    3.62    0.39
  -1  -4   9    3.51    0.86
   1   4   9    3.29    0.41
  -1  -4   9    3.69    0.49
  -1  -4   9    2.74    0.38
  -1   4  -9    4.12    0.73
  -1  -4   9    3.25    0.85
  -1   5   9   20.79    0.88
   1  -5   9   19.78    1.09
  -1   5   9   20.28    0.94
  -1   5   9   20.22    0.67
   1  -5   9   19.60    0.92
   1  -5   9   18.07    1.63
  -1   5   9   21.58    1.04
   1  -5   9   20.39    0.79
   1   5  -9   20.66    1.28
   1  -5   9   19.54    0.85
  -1  -5   9   20.22    1.09
  -1  -5   9   21.23    0.92
  -1  -5   9   20.75    0.83
  -1  -5   9   19.53    0.84
   1   5   9   20.90    1.04
   1   5   9   19.65    0.85
   1   5   9   20.42    0.95
  -1   5  -9   20.99    1.32
   1  -6   9   35.50    1.58
   1  -6   9   35.75    1.25
  -1   6   9   38.16    1.04
  -1   6   9   36.18    1.48
   1   6  -9   35.33    1.71
   1  -6   9   35.58    1.18
  -1   6   9   36.75    1.37
   1  -6   9   37.82    1.33
  -1   6   9   37.11    1.25
  -1  -6   9   38.03    1.26
  -1  -6   9   38.34    1.33
   1   6   9   36.27    1.49
  -1   6  -9   35.31    1.75
  -1  -6   9   35.68    1.57
   1   6   9   37.77    1.38
  -1  -6   9   37.11    1.21
   1   6   9   38.66    1.25
  -1   7   9    3.05    0.37
   1  -7   9    3.79    0.38
  -1   7   9    3.69    0.35
   1  -7   9    4.00    0.38
  -1   7   9    3.95    0.41
  -1   7   9    3.66    0.25
   1  -7   9    2.90    0.32
   1   7   9    3.16    0.38
   1   7   9    3.28    0.43
   1   7   9    3.79    0.42
  -1  -7   9    3.40    0.35
  -1   8   9   10.67    0.55
   1  -8   9   11.03    0.52
  -1   8   9   10.30    0.49
  -1   8   9   11.39    0.57
   1  -8   9   11.76    0.54
   1   8   9   10.48    0.56
   1   8   9   10.24    0.62
   1  -8  -9   11.69    0.67
   1   8   9   11.86    0.57
  -1   9   9    2.96    0.25
   1  -9   9    2.25    0.23
   1   9  -9    2.16    0.27
   1   9   9    2.92    0.28
   1  -9  -9    2.38    0.25
  -1   9  -9    2.56    0.31
   1   9   9    2.72    0.24
   1   0  10    0.19    0.20
   1   0  10    0.12    0.20
   1   0  10   -0.05    0.43
  -1   0  10    0.02    0.20
  -1   0  10   -0.01    0.12
  -1   0  10   -0.03    0.19
  -1   0  10    0.25    0.40
   1   0 -10    0.28    0.51
   1   0  10    0.13    0.10
  -1   0 -10    0.24    0.54
  -1   0  10    0.14    0.21
   1  -1  10    1.59    0.68
  -1   1  10    1.85    0.32
  -1   1  10    2.44    0.38
   1  -1  10    2.03    0.22
  -1   1  10    1.73    0.21
   1   1 -10    1.50    0.68
   1  -1  10    1.89    0.33
   1  -1  10    1.24    0.27
  -1  -1 -10    2.30    0.75
  -1   1  10    2.06    0.36
   1   1  10    2.29    0.34
  -1  -1  10    2.22    0.37
   1   1  10    2.00    0.35
  -1  -1  10    2.29    0.35
  -1  -1  10    2.67    0.40
  -1  -1  10    1.83    0.24
   1   1  10    2.01    0.19
  -1  -1  10    2.25    0.78
   1  -1 -10    2.29    0.71
   1   2 -10    1.90    0.75
  -1   2  10    1.40    0.29
   1  -2  10    0.74    0.32
  -1  -2 -10    2.24    0.74
  -1   2  10    1.26    0.29
   1  -2  10    1.20    0.30
  -1   2  10    1.02    0.17
   1  -2  10    1.08    0.55
   1  -2  10    1.05    0.19
   1  -2  10    1.25    0.28
  -1  -2  10    1.16    0.26
   1   2  10    0.79    0.28
   1  -2 -10    1.49    0.67
  -1  -2  10    1.05    0.28
   1   2  10    1.19    0.28
  -1  -2  10    0.98    0.19
   1   2  10    0.97    0.13
   1  -3  10    9.10    1.19
   1   3 -10    8.84    1.03
   1  -3  10    9.70    0.48
   1  -3  10   10.62    0.65
   1  -3  10    9.36    0.57
  -1   3  10    9.85    0.63
  -1   3  10   10.07    0.41
  -1   3  10    9.63    0.57
   1   3 -10    7.16    1.11
   1  -3  10    9.70    0.72
   1   3  10   10.57    0.63
   1   3  10   10.34    0.32
  -1  -3  10   10.45    0.64
  -1  -3  10   10.64    0.60
   1   3  10   10.35    0.59
  -1  -3  10    9.56    0.72
  -1  -3  10    9.50    0.49
  -1   4  10    7.93    0.55
   1  -4  10    7.82    0.58
   1  -4  10    8.19    0.53
   1  -4  10    7.16    0.64
  -1   4  10    7.83    0.34
   1  -4  10    8.30    0.44
   1   4 -10    7.84    0.93
  -1   4  10    7.33    0.50
  -1  -4  10    7.67    0.52
  -1  -4  10    7.56    0.67
  -1  -4  10    7.79    0.57
  -1  -4  10    8.07    0.48
  -1   4 -10    8.61    0.99
   1   4  10    8.41    0.58
   1   4  10    8.39    0.54
   1  -5  10    3.14    0.36
   1   5 -10    2.39    0.58
   1  -5  10    3.45    0.47
  -1   5  10    3.61    0.42
   1  -5  10    2.80    0.37
  -1   5  10    4.07    0.39
  -1   5  10    3.66    0.22
   1  -5  10    3.37    0.32
  -1  -5  10    3.49    0.35
  -1   5 -10    2.60    0.57
  -1  -5  10    2.91    0.45
  -1  -5  10    3.02    0.35
  -1  -5  10    4.08    0.43
   1   5  10    3.05    0.38
   1   5  10    3.47    0.38
  -1   6  10    6.19    0.46
  -1   6  10    6.25    0.26
  -1   6  10    6.27    0.42
   1  -6  10    5.77    0.46
   1  -6  10    6.41    0.45
   1  -6  10    7.07    0.42
  -1  -6  10    6.68    0.42
  -1  -6  10    5.71    0.43
  -1  -6  10    6.13    0.48
   1   6  10    6.42    0.48
   1   6  10    7.11    0.44
  -1   7  10    7.37    0.45
   1  -7  10    7.82    0.45
   1  -7  10    7.74    0.43
  -1   7  10    7.58    0.40
   1  -7 -10    6.35    0.57
   1   7  10    7.80    0.47
  -1  -7  10    7.25    0.44
  -1  -7  10    7.51    0.43
  -1   8  10    1.46    0.21
   1  -8  10    1.30    0.19
  -1   8  10    1.58    0.18
   1   8  10    1.72    0.22
  -1   8 -10    1.80    0.20
  -1  -8  10    1.24    0.19
   1   0  11   -0.11    0.19
   1   0  11    0.10    0.18
  -1   0  11    0.00    0.18
   1   0  11    0.18    0.09
  -1   0  11   -0.11    0.20
  -1   0  11    0.05    0.10
  -1   0  11    0.13    0.17
  -1   1  11    6.25    0.31
  -1   1  11    6.07    0.51
  -1   1  11    6.43    0.49
   1  -1  11    6.42    0.32
   1  -1  11    6.80    0.50
   1  -1  11    5.98    0.50
  -1  -1  11    6.02    0.50
  -1  -1  11    6.47    0.35
   1   1  11    6.27    0.25
  -1  -1  11    7.87    0.51
   1   1  11    6.50    0.49
   1  -2  11   13.98    0.70
  -1   2  11   14.04    0.48
   1  -2  11   13.79    0.53
  -1   2  11   13.86    0.69
  -1   2  11   13.69    0.73
   1  -2  11   14.48    0.76
   1   2  11   13.93    0.75
   1   2  11   14.35    0.69
  -1  -2  11   15.31    0.76
  -1  -2  11   14.61    0.57
  -1  -2  11   14.92    0.71
  -1   3  11    4.04    0.42
   1  -3  11    4.60    0.45
  -1   3  11    4.82    0.23
   1  -3  11    5.61    0.43
  -1   3  11    5.13    0.43
   1  -3  11    4.60    0.51
   1  -3  11    5.27    0.32
   1   3  11    4.06    0.38
   1   3  11    4.67    0.46
  -1  -3  11    4.60    0.43
  -1  -3  11    3.83    0.42
  -1  -3  11    4.53    0.34
   1  -4  11    2.84    0.27
   1  -4  11    2.88    0.34
  -1   4  11    2.80    0.33
  -1   4  11    3.09    0.37
   1  -4  11    3.01    0.38
   1   4  11    2.97    0.33
  -1  -4  11    2.84    0.34
  -1  -4  11    2.90    0.29
   1   4  11    2.83    0.36
  -1  -4  11    3.07    0.37
  -1   5  11    6.90    0.47
  -1   5  11    5.81    0.40
   1  -5  11    7.09    0.47
   1  -5  11    6.56    0.43
   1  -5  11    6.39    0.36
  -1  -5  11    6.36    0.42
   1   5  11    6.47    0.41
  -1  -5  11    5.78    0.45
   1   5  11    5.77    0.45
  -1  -5  11    6.64    0.38
  -1   6  11    1.39    0.21
   1  -6  11    1.18    0.24
  -1   6  11    1.27    0.23
   1  -6  11    1.50    0.23
   1  -6  11    1.47    0.20
   1   6  11    0.83    0.19
  -1  -6  11    1.43    0.20
  -1  -6  11    1.03    0.20
   1   6  11    1.64    0.22
  -1  -6  11    1.10    0.21
   1  -7  11   11.50    0.44
  -1   7  11   11.31    0.44
  -1   7  11   11.51    0.51
   1  -7  11   11.58    0.46
  -1  -7  11   11.77    0.45
   1   7  11   12.09    0.51
  -1   0  12    0.02    0.16
   1   0  12   -0.10    0.15
  -1   0  12    0.00    0.17
  -1   0  12    0.05    0.18
  -1   0  12    0.02    0.08
   1   0  12    0.10    0.18
  -1   1  12    2.20    0.15
   1  -1  12    2.26    0.29
   1  -1  12    2.26    0.14
  -1   1  12    1.93    0.28
  -1   1  12    2.27    0.31
   1  -1  12    2.23    0.31
  -1  -1  12    2.11    0.29
   1   1  12    2.17    0.27
  -1  -1  12    2.05    0.29
  -1  -1  12    2.23    0.20
  -1   2  12    3.64    0.37
  -1   2  12    3.08    0.32
   1  -2  12    3.35    0.34
   1  -2  12    3.74    0.21
   1  -2  12    3.43    0.37
  -1  -2  12    3.58    0.25
  -1  -2  12    3.41    0.36
   1   2  12    3.65    0.36
  -1  -2  12    3.52    0.36
  -1   3  12    7.23    0.44
   1  -3  12    7.52    0.32
   1  -3  12    7.96    0.46
   1  -3  12    7.28    0.48
  -1   3  12    8.11    0.49
  -1  -3  12    7.14    0.49
  -1  -3  12    7.27    0.44
   1   3  12    7.38    0.46
  -1  -3  12    6.99    0.34
   1   3  12    7.42    0.43
  -1   4  12    5.54    0.39
   1  -4  12    5.28    0.36
   1  -4  12    5.46    0.27
  -1   4  12    5.67    0.36
   1  -4  12    5.74    0.40
  -1  -4  12    4.88    0.39
  -1  -4  12    5.54    0.29
  -1  -4  12    5.26    0.36
   1   4  12    4.93    0.35
   1   4  12    5.47    0.39
   1  -5  12   19.33    0.68
  -1   5  12   18.29    0.72
   1  -5  12   19.29    0.73
  -1   5  12   18.45    0.65
   1  -5  12   19.23    0.57
  -1  -5  12   19.50    0.72
  -1  -5  12   18.73    0.60
   1   5  12   19.55    0.72
  -1  -5  12   18.32    0.66
   1   5  12   19.01    0.64
  -1   6  12    7.90    0.38
   1  -6  12    8.27    0.29
   1  -6  12    7.33    0.36
  -1  -6  12    7.99    0.30
  -1   0  13    0.08    0.12
   1   0  13   -0.04    0.12
  -1   0  13    0.12    0.14
  -1   1  13   12.97    0.55
   1  -1  13   13.05    0.57
   1  -1  13   13.32    0.55
  -1  -1  13   12.49    0.54
  -1  -1  13   12.72    0.56
   1   1  13   13.74    0.55
  -1   2  13    4.73    0.31
  -1   2  13    4.80    0.34
   1  -2  13    4.86    0.32
   1  -2  13    4.44    0.33
  -1  -2  13    4.45    0.31
   1   2  13    3.94    0.30
  -1  -2  13    4.84    0.33
   1  -3  13   12.74    0.52
  -1   3  13   13.44    0.51
  -1   3  13   13.67    0.54
   1  -3  13   13.11    0.56
   1   3  13   13.79    0.51
  -1  -3  13   13.65    0.52
  -1  -3  13   12.45    0.54
  -1   4  13    6.56    0.32
   1  -4  13    6.64    0.32
   1  -4  13    6.61    0.35
  -1  -4  13    6.19    0.33
   2   0   0  275.46    8.75
  -2   0   0  277.88    9.34
  -2   0   0  285.52    8.01
   2   0   0  285.19    9.23
  -2   0   0  275.52    7.85
  -2   0   0  294.10    7.83
  -2  -1   0   48.20    1.49
  -2  -1   0   48.30    1.46
   2   1   0   46.74    1.62
  -2   1   0   49.07    1.38
  -2   1   0   46.85    1.69
   2  -1   0   48.09    1.69
  -2   1   0   47.30    1.41
   2  -1   0   48.02    1.65
  -2  -1   0   48.39    1.48
   2  -1   0   48.55    1.43
   2  -1   0   47.40    1.73
  -2  -1   0   46.31    1.66
   2  -2   0  156.49    4.43
   2   2   0  156.72    5.03
  -2   2   0  158.57    4.54
  -2   2   0  159.63    5.32
   2  -2   0  154.61    5.33
  -2  -2   0  152.89    5.30
  -2  -2   0  160.52    5.13
  -2  -2   0  150.41    4.51
  -2  -2   0  155.65    4.53
   2  -2   0  158.36    5.34
   2  -2   0  152.70    4.42
   2  -2   0  152.12    5.07
  -2  -2   0  161.32    4.64
   2  -2   0  156.66    4.64
   2  -3   0  107.92    3.75
   2  -3   0  109.19    3.42
  -2  -3   0  107.97    3.71
  -2  -3   0  110.34    3.70
  -2  -3   0  107.92    3.85
  -2  -3   0  109.55    3.30
   2  -3   0  110.34    3.24
  -2  -3   0  113.23    3.42
   2  -3   0  107.99    3.91
   2  -3   0  109.69    3.88
  -2   3   0  108.55    3.83
  -2  -3   0  111.46    3.35
   2  -3   0  105.90    3.18
   2  -3   0  106.97    3.30
  -2  -3   0  111.39    3.34
  -2  -4   0    6.33    0.48
   2  -4   0    6.10    0.56
   2  -4   0    6.84    0.49
   2  -4   0    7.73    0.50
   2  -4   0    6.14    0.37
  -2  -4   0    6.35    0.51
  -2  -4   0    7.06    0.58
   2  -4   0    6.65    0.52
  -2  -4   0    6.87    0.48
  -2   4   0    6.09    0.44
  -2  -4   0    6.59    0.49
   2  -4   0    6.68    0.51
  -2   4   0    6.19    0.42
   2  -4   0    6.77    0.57
  -2  -4   0    6.77    0.47
  -2  -5   0   27.72    1.26
  -2  -5   0   31.99    1.31
   2  -5   0   28.28    1.24
   2  -5   0   29.59    1.35
   2  -5   0   28.83    1.48
  -2  -5   0   31.01    1.32
  -2   5   0   29.32    1.13
   2  -5   0   27.29    1.19
  -2  -5   0   29.96    1.49
   2  -5   0   29.24    1.41
  -2  -5   0   27.65    1.38
   2  -5   0   27.99    1.09
   2  -5   0   29.34    1.24
  -2  -5   0   29.70    1.20
   2  -5   0   29.77    1.50
  -2  -5   0   30.28    1.33
  -2  -6   0   25.99    1.28
  -2  -6   0   25.00    1.38
  -2  -6   0   25.77    1.24
   2  -6   0   25.31    1.04
   2  -6   0   24.85    1.32
   2  -6   0   26.31    1.24
  -2  -6   0   24.45    1.05
   2  -6   0   25.39    1.20
  -2  -6   0   26.09    1.49
  -2  -6   0   25.12    1.30
   2  -6   0   23.88    1.34
  -2  -6   0   24.80    1.26
   2  -6   0   24.81    1.43
   2  -6   0   26.66    1.53
   2  -7   0    0.25    0.25
  -2  -7   0    0.11    0.20
   2  -7   0    0.30    0.18
  -2  -7   0    0.05    0.29
   2  -7   0    0.33    0.28
  -2  -7   0    0.17    0.29
  -2  -7   0    0.37    0.24
  -2  -7   0    0.38    0.31
  -2  -7   0    0.38    0.30
   2  -7   0    0.53    0.42
  -2  -7   0   -0.08    0.31
  -2  -8   0    0.02    0.27
   2   8   0    0.25    0.22
   2  -8   0    0.25    0.20
   2   8   0    0.64    0.18
  -2  -8   0    0.34    0.34
  -2   8   0    0.07    0.19
   2  -8   0    0.30    0.34
   2  -8   0   -0.01    0.27
  -2  -8   0   -0.33    0.39
  -2  -8   0    0.55    0.22
  -2   8   0    0.47    0.22
  -2  -8   0    0.08    0.20
   2  -9   0   17.42    0.94
  -2  -9   0   17.13    0.94
  -2  -9   0   16.98    1.08
   2   9   0   16.95    0.82
  -2   9   0   16.37    0.78
   2  -9   0   15.92    0.99
  -2   9   0   17.89    0.76
  -2  -9   0   15.65    0.80
  -2 -10   0    2.73    0.35
  -2  10   0    1.74    0.29
   2  10   0    3.10    0.40
   2 -10   0    3.62    0.48
   2 -10   0    2.53    0.41
  -2 -10   0    1.99    0.47
  -2 -10   0    2.38    0.41
  -2  11   0    0.00    0.15
  -2 -11   0    0.32    0.17
  -2 -11   0    0.12    0.18
   2 -11   0    0.04    0.20
   2 -11   0   -0.11    0.19
  -2 -12   0    0.19    0.16
   2 -12   0    0.31    0.14
  -2   0  -1  992.08   26.57
   2   0  -1  985.71   31.76
  -2   0   1  951.76   26.54
  -2   0   1  920.19   31.75
   2   0   1  883.13   31.32
   2   0   1  978.36   27.15
   2   0   1  954.71   29.57
   2   0  -1  975.27   29.54
  -2   0   1  971.07   27.22
   2   0   1  966.46   26.54
  -2   0   1  987.76   26.60
   2   0  -1 1000.00   31.38
   2  -1   1  391.84   10.91
  -2   1   1  396.40   13.00
  -2  -1  -1  394.61   10.92
  -2   1   1  389.31   11.18
   2   1  -1  389.65   13.00
  -2   1   1  392.80   10.93
  -2  -1  -1  403.40   11.18
  -2   1   1  386.63   10.83
   2  -1   1  391.96   12.16
   2   1  -1  390.03   12.10
  -2  -1  -1  386.81   10.90
   2   1   1  388.69   12.80
   2  -1  -1  390.23   12.93
   2  -1  -1  384.12   12.17
   2   1   1  381.66   12.16
  -2  -1   1  400.17   12.82
  -2  -1   1  403.80   11.21
  -2  -1   1  391.45   10.95
   2  -1  -1  395.28   13.03
  -2  -1   1  381.48   13.02
  -2  -1   1  402.23   10.96
  -2   2   1  464.80   15.44
   2   2  -1  469.08   15.46
   2  -2   1  459.47   15.44
  -2  -2  -1  479.23   13.04
  -2  -2  -1  480.66   15.21
  -2   2   1  456.03   12.82
   2  -2   1  466.75   15.38
  -2  -2  -1  463.64   12.96
  -2  -2  -1  454.50   13.27
  -2  -2  -1  467.66   13.33
   2  -2   1  461.60   12.97
  -2   2   1  462.06   12.99
   2  -2   1  470.58   13.19
   2  -2   1  482.38   13.35
  -2   2   1  457.11   13.30
   2  -2   1  459.41   14.49
   2  -2   1  469.24   12.89
   2  -2  -1  469.38   15.51
   2  -2  -1  465.31   13.36
   2  -2  -1  465.73   14.53
  -2  -2   1  473.62   13.35
  -2  -2   1  477.12   13.04
   2  -2  -1  469.57   15.40
  -2  -2   1  466.17   15.51
   2   2   1  460.11   14.51
  -2  -2   1  458.76   13.04
  -2  -2   1  457.46   15.21
  -2  -2   1  456.88   14.43
  -2   2  -1  460.62   15.47
  -2  -2   1  465.44   13.27
   2  -3   1  101.77    3.16
   2  -3   1  104.05    3.19
  -2  -3  -1  105.59    3.26
  -2  -3  -1  110.53    3.34
   2  -3   1  103.59    3.82
   2  -3   1  103.50    3.33
  -2  -3  -1  108.18    3.69
  -2  -3  -1  112.57    3.29
   2   3  -1  103.28    3.68
   2  -3   1  107.92    3.13
  -2  -3  -1  113.60    3.64
  -2   3   1  103.44    3.28
   2  -3   1  104.18    3.63
  -2  -3  -1  108.17    3.65
  -2   3   1  100.66    3.65
   2  -3   1  102.00    3.74
  -2  -3  -1  109.83    3.18
   2  -3  -1  110.49    3.69
   2  -3  -1  111.56    3.00
  -2  -3   1  102.74    3.26
  -2  -3   1  101.03    3.57
  -2   3  -1  107.93    3.75
  -2  -3   1  102.20    3.27
  -2  -3   1  103.80    3.24
  -2  -3   1  104.30    3.64
  -2  -3   1  103.39    3.78
   2  -3  -1  106.99    3.35
   2  -3  -1  110.29    3.85
   2  -3  -1  108.40    3.79
  -2  -3   1  103.72    3.33
   2  -4   1   11.38    0.69
   2  -4   1   12.13    0.64
   2  -4   1   11.56    0.77
  -2  -4  -1   12.21    0.71
   2  -4   1   11.07    0.69
  -2  -4  -1   12.94    0.61
  -2  -4  -1   12.87    0.65
   2  -4   1   11.27    0.58
  -2  -4  -1   12.20    0.68
   2  -4   1   11.57    0.66
   2  -4   1   12.31    0.61
   2  -4   1   11.37    0.60
  -2  -4  -1   13.32    0.82
  -2  -4  -1   12.94    0.70
   2  -4   1   12.32    0.80
  -2  -4  -1   11.93    0.66
   2  -4  -1   12.25    0.79
  -2   4  -1   12.13    0.69
   2  -4  -1   12.88    0.65
   2  -4  -1   12.62    0.74
   2  -4  -1   12.99    0.68
  -2  -4   1   11.60    0.67
  -2  -4   1   11.09    0.63
  -2  -4   1   11.56    0.65
  -2  -4   1   10.69    0.65
   2  -4  -1   12.19    0.80
   2  -4  -1   12.12    0.68
  -2  -4   1   11.57    0.69
   2  -4  -1   12.72    0.68
   2  -4  -1   11.80    0.71
  -2  -4   1   11.88    0.75
  -2  -5  -1   36.23    1.44
  -2  -5  -1   35.88    1.68
   2  -5   1   33.31    1.64
   2  -5   1   30.11    1.20
   2  -5   1   32.22    1.27
  -2  -5  -1   36.07    1.49
   2  -5   1   32.84    1.34
   2  -5   1   33.10    1.48
   2  -5   1   32.31    1.30
  -2  -5  -1   35.62    1.53
  -2  -5  -1   35.26    1.45
  -2  -5  -1   34.96    1.42
   2  -5   1   31.37    1.33
   2  -5   1   33.61    1.63
   2  -5  -1   35.45    1.68
  -2   5  -1   34.07    1.32
   2  -5  -1   35.98    1.58
  -2  -5   1   32.37    1.40
  -2  -5   1   30.95    1.39
   2   5   1   29.51    1.19
  -2  -5   1   30.12    1.21
  -2  -5   1   33.02    1.41
   2  -5  -1   35.50    1.42
  -2  -5   1   30.19    1.55
   2  -5  -1   31.55    1.26
   2  -5  -1   34.98    1.66
  -2  -5   1   33.92    1.39
  -2  -5   1   32.81    1.45
  -2  -5   1   32.73    1.57
   2  -5  -1   37.22    1.53
   2  -5  -1   35.39    1.39
  -2  -5   1   31.46    1.21
   2  -6   1   49.89    2.30
   2  -6   1   48.52    1.91
   2  -6   1   47.86    2.05
  -2  -6  -1   49.26    2.05
  -2  -6  -1   49.80    2.00
   2  -6   1   47.71    2.29
   2  -6   1   48.50    1.74
  -2  -6  -1   50.31    2.02
  -2  -6  -1   48.21    2.01
  -2  -6  -1   48.75    1.73
  -2  -6  -1   49.84    2.31
   2  -6  -1   51.93    2.36
   2  -6  -1   49.83    1.95
   2  -6  -1   49.48    2.00
  -2  -6   1   49.23    2.00
  -2  -6   1   49.49    1.73
  -2  -6   1   48.83    2.00
  -2  -6   1   50.30    1.98
  -2  -6   1   49.43    2.25
  -2  -6   1   48.64    2.04
   2  -6  -1   51.46    2.24
   2  -6  -1   49.84    2.33
   2  -6  -1   50.62    2.11
   2  -6  -1   49.27    1.71
  -2   6  -1   49.41    1.80
  -2  -6   1   50.91    2.28
  -2  -7  -1    1.43    0.28
   2  -7   1    1.74    0.42
  -2  -7  -1    1.91    0.43
  -2  -7  -1    1.48    0.42
  -2  -7  -1    1.37    0.47
  -2  -7  -1    1.32    0.43
   2  -7   1    1.16    0.47
  -2  -7  -1    1.70    0.48
   2  -7   1    1.04    0.31
  -2  -7  -1    1.62    0.45
   2  -7   1    1.32    0.28
  -2   7   1    1.20    0.30
  -2  -7   1    1.67    0.42
  -2  -7   1    1.42    0.41
  -2  -7   1    1.07    0.31
   2  -7  -1    1.20    0.47
  -2  -7   1    0.82    0.46
  -2  -7   1    1.15    0.28
   2  -7  -1    2.26    0.53
   2   7   1    1.99    0.35
   2  -7  -1    1.61    0.30
  -2  -7   1    0.92    0.41
   2  -7  -1    1.39    0.42
   2  -7  -1    1.75    0.37
  -2   8   1   48.58    1.72
  -2   8   1   46.46    1.56
   2   8  -1   44.56    1.57
  -2  -8  -1   42.77    2.21
   2  -8   1   51.78    1.84
   2  -8   1   47.68    1.56
   2  -8   1   48.81    2.28
  -2  -8  -1   45.82    2.18
  -2   8   1   48.98    1.55
  -2  -8  -1   45.29    1.55
  -2  -8  -1   47.57    2.08
   2   8  -1   45.55    1.63
   2  -8   1   49.91    1.91
  -2  -8  -1   46.34    1.80
  -2  -8   1   48.34    1.59
  -2  -8   1   47.21    2.27
   2   8   1   50.31    1.83
  -2   8  -1   46.43    1.67
   2   8   1   49.70    1.72
  -2  -8   1   50.49    2.22
  -2  -8   1   51.35    1.86
   2  -8  -1   43.22    2.22
   2   8   1   49.78    1.66
  -2   8  -1   46.56    1.53
  -2  -8   1   50.83    2.06
   2  -8  -1   46.39    1.77
   2  -8  -1   45.75    2.01
   2  -9   1   12.71    0.82
   2   9  -1   13.76    0.59
  -2   9   1   13.09    0.71
  -2  -9  -1   14.27    0.73
  -2  -9  -1   13.74    1.03
   2  -9   1   12.42    0.70
  -2   9   1   13.46    0.77
   2  -9   1   12.18    0.79
  -2  -9  -1   14.71    0.85
  -2   9   1   12.86    0.54
   2   9  -1   14.40    0.75
  -2  -9   1   13.81    0.74
  -2  -9   1   13.11    0.95
   2   9   1   12.90    0.73
  -2  -9   1   13.08    0.82
   2  -9  -1   15.05    0.84
   2  -9  -1   13.14    0.97
  -2   9  -1   13.10    0.68
  -2   9  -1   14.37    0.72
   2   9   1   13.36    0.78
   2 -10   1   15.98    0.74
   2 -10   1   16.52    0.89
  -2 -10  -1   15.92    0.88
  -2 -10  -1   13.43    1.03
   2 -10   1   16.16    0.86
  -2  10   1   15.15    0.74
   2 -10  -1   15.77    0.87
  -2 -10   1   16.79    0.78
  -2  10  -1   15.80    0.67
  -2 -10   1   15.52    0.88
  -2  10  -1   16.12    0.75
   2  10   1   15.97    0.78
  -2  11   1    3.38    0.33
   2 -11   1    2.62    0.38
   2 -11   1    3.84    0.37
  -2 -11  -1    3.93    0.46
  -2 -11   1    2.92    0.40
  -2  11  -1    3.46    0.34
  -2 -11   1    3.17    0.39
   2 -11  -1    4.11    0.44
  -2 -11   1    3.35    0.35
   2  11   1    3.18    0.34
   2 -12   1    2.20    0.20
  -2 -12  -1    1.83    0.27
   2 -12  -1    1.93    0.24
  -2 -12   1    1.74    0.23
   2   0   2   41.54    1.31
   2   0  -2   34.80    1.33
   2   0   2   38.20    1.32
   2   0  -2   37.09    1.47
   2   0  -2   39.57    1.57
  -2   0   2   40.76    1.37
  -2   0   2   42.67    1.35
   2   0   2   39.95    1.41
   2   0   2   41.28    1.28
   2   0   2   41.74    1.25
   2   0   2   42.30    1.53
  -2   0   2   42.33    1.30
  -2   0   2   40.16    1.35
  -2   1   2  151.51    4.17
   2  -1   2  150.61    5.05
   2  -1   2  143.29    4.26
   2   1  -2  147.01    4.59
   2  -1   2  144.99    4.16
   2  -1   2  150.00    4.29
   2  -1   2  144.43    4.69
  -2   1   2  137.01    4.40
  -2   1   2  147.00    4.41
   2  -1   2  147.18    4.37
  -2   1   2  147.67    4.31
   2   1  -2  150.23    5.03
  -2  -1   2  148.69    4.31
  -2  -1   2  148.21    5.01
  -2  -1   2  153.93    4.42
   2   1   2  146.30    4.36
  -2  -1   2  147.34    4.36
   2   1   2  144.57    4.37
   2  -1  -2  155.28    5.14
   2  -1  -2  147.34    4.73
  -2  -1   2  147.34    5.00
  -2  -1   2  146.52    4.30
   2  -1  -2  148.47    5.01
   2   1   2  141.76    4.74
   2   1   2  147.82    4.26
   2   1   2  146.57    4.24
  -2  -2  -2   73.17    2.61
  -2   2   2   70.11    2.33
  -2  -2  -2   71.64    2.19
   2  -2   2   72.57    2.13
   2  -2   2   72.03    2.46
   2  -2   2   73.60    2.33
  -2   2   2   74.63    2.28
   2  -2   2   72.46    2.18
   2  -2   2   72.63    2.68
   2   2  -2   71.47    2.60
   2  -2   2   73.46    2.27
   2  -2   2   75.12    2.58
  -2  -2  -2   70.90    2.27
   2  -2  -2   70.39    2.37
  -2  -2   2   71.45    2.60
  -2  -2   2   73.24    2.29
   2   2   2   69.28    2.30
   2   2   2   72.65    2.34
  -2   2  -2   68.04    2.55
  -2  -2   2   74.16    2.59
  -2  -2   2   74.95    2.35
   2  -2  -2   72.98    2.59
  -2  -2   2   70.86    2.27
   2   2   2   70.28    2.52
  -2  -2   2   70.44    2.31
  -2  -2   2   73.02    2.39
   2  -2  -2   72.58    2.54
   2  -2  -2   71.19    2.73
  -2  -3  -2   12.96    0.78
   2  -3   2   15.60    0.76
  -2  -3  -2   13.61    0.72
  -2  -3  -2   14.30    0.72
  -2  -3  -2   13.56    0.70
   2  -3   2   15.07    0.62
   2  -3   2   14.84    0.60
  -2  -3  -2   14.01    0.62
   2  -3   2   15.22    0.77
   2  -3   2   14.64    0.76
  -2   3   2   15.97    0.73
   2  -3   2   15.67    0.85
  -2   3   2   14.80    0.74
   2  -3   2   14.98    0.71
   2   3  -2   13.94    0.73
  -2  -3  -2   13.64    0.59
  -2  -3  -2   14.25    0.73
  -2  -3   2   14.45    0.74
   2  -3  -2   15.38    0.88
   2  -3  -2   14.44    0.77
   2  -3  -2   13.12    0.74
  -2  -3   2   14.77    0.73
   2  -3  -2   14.26    0.82
  -2  -3   2   15.64    0.77
  -2  -3   2   15.12    0.74
   2  -3  -2   13.97    0.74
  -2  -3   2   14.82    0.72
  -2  -3   2   15.24    0.71
  -2   3  -2   13.32    0.72
  -2  -3   2   15.51    0.75
   2  -4   2    0.86    0.25
   2  -4   2    0.66    0.21
  -2  -4  -2    0.67    0.18
   2  -4   2    0.46    0.22
  -2  -4  -2    0.70    0.25
  -2  -4  -2    0.63    0.21
   2  -4   2    0.72    0.26
  -2  -4  -2    0.61    0.18
   2  -4   2    0.40    0.14
  -2   4   2    0.56    0.21
  -2  -4  -2    0.60    0.18
  -2  -4  -2    0.69    0.21
   2  -4   2    0.67    0.24
   2  -4   2    0.63    0.19
   2   4  -2    0.64    0.19
   2   4  -2    0.66    0.19
  -2  -4  -2    0.54    0.24
   2  -4   2    0.58    0.17
   2  -4  -2    0.47    0.25
  -2  -4   2    0.69    0.22
  -2  -4   2    0.49    0.19
   2  -4  -2    0.64    0.24
   2  -4  -2    0.76    0.23
  -2  -4   2    0.45    0.22
  -2  -4   2    0.49    0.23
  -2  -4   2    0.46    0.20
  -2  -4   2    0.73    0.22
   2  -4  -2    0.66    0.25
  -2  -4   2    0.52    0.19
  -2   4  -2    1.18    0.27
  -2   4  -2    1.15    0.24
   2  -4  -2    0.91    0.25
  -2  -4   2    0.60    0.18
   2  -4  -2    0.48    0.23
  -2  -4   2    0.48    0.21
   2  -4  -2    0.59    0.20
  -2  -5  -2    4.65    0.47
   2   5  -2    4.80    0.43
   2  -5   2    4.06    0.57
  -2  -5  -2    4.71    0.48
  -2  -5  -2    4.98    0.58
   2  -5   2    5.05    0.39
  -2  -5  -2    4.18    0.60
   2  -5   2    4.74    0.58
  -2  -5  -2    4.51    0.56
   2  -5   2    4.50    0.51
   2  -5   2    5.41    0.59
   2  -5   2    5.27    0.37
   2  -5   2    4.91    0.52
   2  -5   2    5.08    0.41
  -2  -5   2    4.92    0.55
  -2  -5   2    5.89    0.56
  -2  -5   2    5.08    0.38
  -2   5  -2    4.49    0.47
   2  -5  -2    4.08    0.62
  -2   5  -2    4.48    0.46
   2  -5  -2    4.53    0.49
   2  -5  -2    5.19    0.63
   2  -5  -2    5.56    0.53
   2  -5  -2    4.98    0.56
  -2  -5   2    5.49    0.54
   2  -5  -2    4.45    0.41
  -2  -5   2    5.41    0.51
   2  -5  -2    5.18    0.58
  -2  -5   2    4.75    0.37
  -2  -5   2    5.36    0.48
  -2  -5   2    5.64    0.53
  -2  -5   2    5.03    0.53
   2   5   2    4.51    0.37
  -2  -6  -2    3.85    0.38
  -2   6   2    3.42    0.42
  -2  -6  -2    3.57    0.53
   2  -6   2    2.98    0.39
  -2  -6  -2    3.85    0.56
  -2  -6  -2    3.76    0.67
   2  -6   2    2.92    0.56
   2  -6   2    2.89    0.48
   2  -6   2    2.68    0.35
  -2  -6  -2    3.59    0.52
   2  -6   2    4.09    0.64
  -2  -6  -2    4.34    0.63
  -2   6  -2    3.63    0.46
  -2  -6   2    2.74    0.37
   2   6   2    3.92    0.44
  -2  -6   2    3.41    0.53
  -2  -6   2    3.25    0.53
   2  -6  -2    3.66    0.50
   2  -6  -2    3.57    0.63
   2  -6  -2    2.97    0.52
  -2  -6   2    3.05    0.44
   2  -6  -2    3.63    0.36
   2  -6  -2    3.72    0.54
  -2  -6   2    3.56    0.53
   2  -6  -2    3.73    0.67
  -2  -6   2    3.49    0.36
  -2  -6   2    3.73    0.57
   2  -6  -2    4.21    0.61
   2  -6  -2    4.24    0.63
   2  -7   2    5.24    0.75
  -2  -7  -2    5.24    0.86
   2  -7   2    5.15    0.48
  -2  -7  -2    4.71    0.69
  -2  -7  -2    5.05    0.47
  -2   7   2    4.93    0.48
  -2  -7  -2    6.15    0.67
  -2  -7  -2    4.75    0.63
  -2  -7  -2    5.22    0.75
   2  -7  -2    4.69    0.86
   2  -7  -2    4.54    0.68
   2  -7  -2    4.68    0.71
   2  -7  -2    5.04    0.45
   2   7   2    5.23    0.49
   2  -7  -2    4.91    0.70
  -2   7  -2    5.83    0.53
  -2  -7   2    5.83    0.62
  -2  -7   2    4.89    0.48
  -2  -7   2    4.10    0.66
  -2  -7   2    6.70    0.86
   2  -7  -2    5.48    0.67
  -2  -7   2    4.82    0.74
  -2   8   2    5.71    0.57
   2   8  -2    5.48    0.47
  -2  -8  -2    5.48    0.84
   2  -8   2    5.40    0.77
  -2   8   2    5.77    0.49
  -2   8   2    5.12    0.31
   2   8  -2    5.60    0.49
   2  -8   2    6.32    0.59
  -2  -8  -2    5.80    0.54
  -2  -8  -2    6.68    0.78
   2  -8   2    7.18    0.52
  -2   8   2    5.65    0.56
   2  -8   2    6.51    0.58
  -2  -8   2    5.21    0.52
   2  -8  -2    5.91    0.52
   2   8   2    5.78    0.56
  -2  -8   2    6.68    0.89
   2   8   2    5.84    0.53
   2   8   2    6.00    0.47
   2  -8  -2    5.44    0.83
  -2  -8   2    5.94    0.56
  -2  -8   2    6.58    0.64
  -2   8  -2    5.93    0.52
   2   8   2    5.85    0.56
  -2   8  -2    6.57    0.58
   2  -8  -2    5.75    0.73
   2  -9   2    0.43    0.26
  -2   9   2    0.56    0.25
   2  -9   2    0.25    0.20
  -2  -9  -2    0.21    0.21
   2   9  -2    0.33    0.19
   2  -9   2    0.34    0.24
  -2   9   2    0.50    0.27
  -2   9   2    0.22    0.21
  -2  -9  -2    0.84    0.37
  -2  -9   2    0.53    0.23
   2   9   2    0.41    0.25
  -2  -9   2    0.44    0.23
   2   9   2    0.41    0.24
  -2   9  -2    0.26    0.22
   2  -9  -2    0.09    0.20
  -2   9  -2    0.55    0.21
   2  -9  -2    0.33    0.28
   2   9   2    0.20    0.18
   2   9   2    0.38    0.19
   2 -10   2    1.87    0.29
  -2 -10  -2    2.61    0.55
   2 -10   2    2.11    0.38
  -2 -10  -2    2.67    0.42
   2 -10   2    1.59    0.31
  -2  10   2    1.76    0.32
  -2  10   2    1.85    0.29
  -2  10  -2    2.18    0.30
  -2  10  -2    2.41    0.33
   2  10   2    2.16    0.32
  -2 -10   2    2.24    0.39
   2 -10  -2    2.27    0.48
   2  10   2    1.87    0.33
  -2 -10   2    2.00    0.38
   2 -10  -2    2.16    0.37
   2  10   2    2.53    0.35
  -2 -10   2    1.78    0.29
   2 -11   2   10.56    0.53
  -2  11   2    9.84    0.51
   2 -11   2    9.91    0.54
   2  11   2   10.11    0.54
  -2  11  -2   10.12    0.52
  -2 -11   2    9.57    0.53
  -2 -11   2   10.67    0.59
  -2 -12   2    1.51    0.20
   2 -12  -2    1.74    0.23
  -2 -12   2    1.87    0.20
  -2   0   3  601.54   16.76
   2   0   3  615.09   18.51
   2   0  -3  585.22   19.82
   2   0   3  594.03   18.47
   2   0   3  603.02   17.11
  -2   0   3  599.27   18.48
   2   0  -3  598.25   19.76
   2   0  -3  559.64   18.35
   2   0   3  601.48   16.66
  -2   0   3  616.01   16.64
   2   0   3  595.90   19.69
  -2   0   3  598.96   17.12
  -2   0   3  602.80   17.16
  -2   1   3  272.38    7.99
   2  -1   3  273.52    8.55
   2  -1   3  273.52    7.75
   2   1  -3  257.12    9.12
   2  -1   3  272.39    7.65
   2  -1   3  267.88    7.92
  -2   1   3  274.45    7.80
   2  -1   3  274.74    7.84
   2  -1   3  286.68    9.16
  -2   1   3  258.56    7.97
   2  -1   3  268.69    8.47
  -2   1   3  266.66    7.59
  -2  -1   3  275.61    7.93
   2   1   3  267.42    7.94
   2   1   3  270.84    9.11
  -2  -1   3  283.13    7.79
   2   1   3  271.08    8.56
  -2  -1   3  279.54    8.60
  -2  -1   3  276.49    7.76
   2   1   3  274.07    7.72
  -2  -1   3  279.09    9.14
   2  -1  -3  270.19    9.24
  -2  -1   3  278.95    7.98
   2   1   3  271.55    7.91
   2  -1  -3  255.48    9.07
   2   1   3  274.24    7.68
   2  -1  -3  255.85    8.61
   2  -1  -3  249.76    8.50
   2  -2   3  184.64    5.98
  -2  -2  -3  183.74    5.30
  -2   2   3  179.12    5.46
   2  -2   3  186.70    6.41
   2  -2   3  185.52    5.30
  -2  -2  -3  182.67    6.01
  -2   2   3  183.86    5.60
   2  -2   3  186.27    5.56
  -2  -2  -3  190.65    6.39
   2  -2   3  183.02    5.43
  -2   2   3  181.31    5.61
   2  -2   3  179.89    5.87
   2  -2   3  189.61    5.45
   2   2  -3  185.41    6.34
   2  -2  -3  186.45    6.50
  -2  -2   3  178.11    5.71
   2  -2  -3  186.91    6.04
  -2  -2   3  184.92    5.48
   2  -2  -3  185.30    6.00
  -2  -2   3  179.17    5.52
   2   2   3  181.08    5.56
   2   2   3  183.87    5.57
  -2  -2   3  187.23    5.58
  -2  -2   3  182.30    5.98
  -2  -2   3  185.80    5.45
  -2  -2   3  183.02    6.34
   2   2   3  183.07    5.44
  -2   2  -3  188.90    6.26
   2  -2  -3  187.96    6.29
  -2   3   3   36.43    1.46
  -2  -3  -3   37.23    1.44
   2  -3   3   37.81    1.28
  -2   3   3   37.42    1.43
  -2  -3  -3   38.49    1.60
   2   3  -3   36.45    1.40
  -2  -3  -3   38.58    1.46
   2  -3   3   36.99    1.31
   2  -3   3   35.44    1.41
  -2  -3  -3   37.06    1.60
   2  -3   3   36.16    1.45
   2   3  -3   36.83    1.54
   2  -3   3   33.94    1.27
   2  -3   3   36.76    1.45
   2  -3   3   37.72    1.54
  -2  -3  -3   37.20    1.25
   2  -3   3   36.62    1.66
  -2  -3   3   37.96    1.44
   2  -3  -3   35.80    1.57
   2  -3  -3   38.76    1.74
  -2  -3   3   37.54    1.47
   2  -3  -3   38.66    1.52
   2  -3  -3   36.92    1.51
   2   3   3   36.27    1.46
  -2  -3   3   36.46    1.38
   2  -3  -3   36.81    1.56
  -2  -3   3   36.26    1.57
  -2   3  -3   38.25    1.52
  -2  -3   3   34.42    1.29
  -2  -3   3   34.59    1.44
  -2  -3   3   37.24    1.42
  -2  -3   3   36.77    1.52
   2  -4   3   13.92    0.94
  -2  -4  -3   15.92    0.96
  -2  -4  -3   15.24    0.89
  -2   4   3   13.72    0.83
  -2  -4  -3   15.93    0.89
  -2   4   3   13.87    0.82
   2  -4   3   13.32    0.79
   2  -4   3   13.95    0.83
  -2  -4  -3   14.98    0.84
  -2  -4  -3   15.87    0.86
   2  -4   3   14.32    0.66
   2   4  -3   16.06    0.87
   2  -4   3   14.17    0.83
  -2  -4  -3   15.75    0.72
   2   4  -3   14.97    0.76
   2  -4   3   14.87    0.87
  -2  -4   3   14.32    0.87
   2  -4  -3   15.42    1.01
   2  -4  -3   15.10    0.89
  -2  -4   3   14.44    0.81
  -2  -4   3   13.33    0.82
   2  -4  -3   15.78    0.96
   2  -4  -3   15.19    0.83
  -2  -4   3   13.61    0.68
  -2  -4   3   13.38    0.80
  -2   4  -3   14.10    0.76
  -2  -4   3   13.68    0.83
  -2   4  -3   14.97    0.83
   2  -4  -3   15.35    0.86
  -2  -4   3   13.19    0.70
   2   5  -3  160.44    5.13
   2  -5   3  165.88    5.25
  -2  -5  -3  161.39    5.24
   2  -5   3  163.66    4.90
   2  -5   3  165.66    5.06
   2  -5   3  160.59    4.73
   2  -5   3  156.52    5.46
  -2  -5  -3  160.34    5.13
  -2  -5  -3  163.21    5.74
  -2  -5  -3  168.21    5.74
  -2   5   3  166.49    5.24
  -2  -5  -3  160.55    5.17
   2  -5   3  163.19    5.97
   2  -5  -3  164.07    5.11
  -2  -5   3  157.16    5.10
  -2  -5   3  162.85    5.12
   2   5   3  156.78    4.69
   2  -5  -3  156.57    5.23
   2  -5  -3  165.16    5.74
   2  -5  -3  158.02    4.66
  -2  -5   3  168.68    5.19
  -2  -5   3  157.47    5.07
   2  -5  -3  156.91    5.81
  -2  -5   3  157.02    4.70
  -2   5  -3  159.89    5.19
   2  -5  -3  161.15    5.26
  -2  -5   3  161.99    5.20
  -2   5  -3  161.12    5.81
  -2  -5   3  158.23    4.93
   2  -5  -3  157.99    5.98
  -2  -6  -3    7.54    0.65
  -2  -6  -3    7.48    0.51
  -2  -6  -3    7.14    0.80
  -2  -6  -3    6.95    0.70
   2  -6   3    5.83    0.48
   2   6  -3    6.75    0.55
  -2   6   3    5.58    0.49
   2  -6   3    6.96    0.77
   2  -6   3    5.09    0.77
   2  -6   3    6.03    0.76
  -2  -6  -3    5.63    0.71
  -2  -6  -3    6.90    0.68
   2  -6   3    5.61    0.44
  -2  -6   3    6.46    0.76
   2  -6  -3    7.95    0.74
  -2  -6   3    6.83    0.80
  -2  -6   3    5.71    0.47
  -2  -6   3    5.90    0.75
  -2  -6   3    5.63    0.46
   2  -6  -3    7.11    0.69
   2  -6  -3    7.34    0.66
   2  -6  -3    7.16    0.70
  -2  -6   3    4.97    0.65
   2   6   3    5.46    0.46
  -2  -6   3    5.77    0.52
   2  -6  -3    6.65    0.65
   2  -6  -3    6.74    0.88
  -2   6  -3    7.34    0.63
   2  -6  -3    6.84    0.47
   2  -6  -3    7.09    0.80
   2  -7   3   18.96    0.97
  -2   7   3   19.34    0.97
  -2  -7  -3   20.97    1.29
  -2  -7  -3   20.92    1.28
  -2  -7  -3   19.61    1.33
   2  -7   3   17.88    1.25
  -2  -7  -3   20.49    0.95
   2   7   3   19.68    0.97
  -2   7  -3   20.09    1.03
   2  -7  -3   19.27    1.26
   2  -7  -3   18.86    1.27
  -2  -7   3   19.54    1.25
   2  -7  -3   20.19    0.93
  -2  -7   3   19.43    0.95
   2  -7  -3   20.30    1.17
  -2  -7   3   19.61    0.96
  -2  -7   3   18.82    1.29
   2  -7  -3   20.15    1.30
   2  -8   3   36.88    1.97
   2  -8   3   39.76    1.57
  -2  -8  -3   37.59    2.04
   2  -8   3   37.30    1.35
  -2   8   3   35.70    1.29
   2   8  -3   36.83    1.40
  -2  -8  -3   39.32    1.53
   2  -8   3   36.88    1.41
  -2   8   3   37.64    1.55
  -2   8   3   38.45    1.46
  -2  -8  -3   39.02    1.84
   2   8   3   37.26    1.44
   2  -8  -3   38.28    1.48
   2  -8  -3   40.39    1.85
  -2  -8   3   36.11    1.51
  -2  -8   3   37.23    1.36
   2   8   3   37.89    1.55
  -2   8  -3   36.61    1.28
  -2  -8   3   37.32    1.49
   2  -8  -3   35.19    1.97
   2   8   3   36.52    1.39
   2   8   3   37.10    1.22
  -2  -8   3   35.46    1.90
  -2   8  -3   36.73    1.48
  -2   9   3   47.65    1.58
  -2  -9  -3   48.85    2.20
  -2  -9  -3   50.75    1.88
   2   9  -3   48.76    1.69
  -2   9   3   49.59    1.76
   2  -9   3   51.53    1.67
   2  -9   3   52.94    1.77
  -2   9   3   52.98    1.92
   2  -9   3   49.30    1.90
  -2  -9   3   48.99    1.80
  -2  -9   3   50.71    1.89
  -2   9  -3   46.51    1.74
   2   9   3   51.22    1.53
   2   9   3   48.96    1.77
   2   9   3   49.84    1.91
   2  -9  -3   49.99    1.84
  -2  -9   3   50.52    1.67
   2   9   3   50.07    1.73
  -2   9  -3   50.69    1.61
   2  -9  -3   46.70    2.12
  -2  10   3   10.42    0.62
  -2 -10  -3    9.59    0.66
   2 -10   3    9.88    0.58
  -2  10   3    9.30    0.56
   2 -10   3    9.32    0.67
   2  10  -3    9.62    0.48
   2 -10   3    9.43    0.57
   2 -10  -3   10.00    0.68
   2  10   3   10.16    0.61
  -2 -10   3    9.09    0.63
  -2  10  -3    9.24    0.56
  -2 -10   3    9.90    0.69
   2  10   3   10.82    0.55
   2 -10  -3   10.10    0.66
   2  10   3   10.72    0.63
  -2  10  -3   10.21    0.59
  -2 -10   3    9.30    0.58
   2  10   3    9.47    0.67
   2 -11   3   22.71    0.84
   2 -11   3   23.14    0.78
  -2 -11   3   23.53    0.86
   2  11   3   23.45    0.88
  -2 -11   3   22.27    0.87
  -2  11  -3   21.79    0.80
   2  11   3   22.57    0.89
   2  11   3   22.06    0.78
   2   0   4   31.09    1.19
  -2   0   4   29.09    1.24
   2   0   4   30.33    1.17
   2   0  -4   31.12    1.46
  -2   0   4   30.04    1.14
   2   0   4   29.46    1.22
  -2   0   4   30.73    1.23
   2   0   4   31.62    1.16
   2   0   4   30.38    1.17
   2   0   4   31.98    1.33
   2   0  -4   28.67    1.02
  -2   0   4   29.13    1.24
   2   0  -4   29.18    1.23
  -2   0   4   29.12    1.35
   2   0   4   31.02    1.41
   2  -1   4   66.59    2.18
   2  -1   4   67.89    2.30
   2  -1   4   69.50    2.69
  -2   1   4   68.98    2.12
  -2   1   4   69.15    2.39
   2  -1   4   67.02    2.33
   2   1  -4   65.59    2.53
  -2   1   4   69.24    2.33
  -2   1   4   69.47    2.39
   2  -1   4   69.83    2.52
   2  -1   4   68.23    2.25
   2  -1   4   70.20    2.29
   2   1   4   68.98    2.26
   2   1   4   66.14    2.19
   2   1   4   67.43    2.67
   2   1   4   68.96    2.31
  -2  -1   4   69.89    2.28
   2  -1  -4   66.73    2.57
  -2  -1   4   69.27    2.69
   2   1   4   68.47    2.47
  -2  -1   4   71.43    2.39
  -2  -1   4   66.60    2.34
   2  -1  -4   63.36    2.33
   2  -1  -4   69.91    2.80
  -2  -1   4   69.80    2.32
   2  -1  -4   64.51    2.46
  -2  -1   4   69.26    2.56
   2   1   4   68.09    2.36
   2  -2   4  152.19    4.98
  -2  -2  -4  154.74    5.57
   2  -2   4  155.74    4.72
   2  -2   4  156.76    5.57
   2  -2   4  161.18    4.61
   2  -2   4  149.73    4.65
   2   2  -4  156.41    5.46
   2  -2   4  154.92    4.75
  -2  -2  -4  154.30    5.19
   2  -2   4  157.28    5.21
  -2   2   4  160.10    4.91
  -2   2   4  157.30    4.92
   2  -2   4  157.00    4.85
  -2   2   4  154.69    4.78
  -2  -2   4  154.61    4.76
  -2  -2   4  154.23    4.83
  -2  -2   4  157.42    5.24
  -2  -2   4  152.65    4.67
   2   2   4  157.92    4.58
  -2  -2   4  154.54    4.75
   2   2   4  154.28    4.86
   2   2   4  151.64    4.72
   2   2   4  157.51    4.86
   2  -2  -4  151.43    5.15
  -2   2  -4  155.20    5.35
   2  -2  -4  155.02    5.27
   2  -2  -4  157.06    5.38
   2  -2  -4  154.28    5.68
  -2  -2   4  157.39    4.87
  -2  -2   4  159.80    5.55
   2  -3   4   40.98    1.75
  -2  -3  -4   42.69    1.80
   2   3  -4   43.51    1.77
   2  -3   4   41.36    1.49
   2  -3   4   39.54    1.45
   2  -3   4   41.57    1.66
  -2   3   4   40.90    1.65
  -2   3   4   42.98    1.71
   2  -3   4   42.42    1.65
  -2  -3  -4   42.36    1.89
   2  -3   4   40.41    1.89
   2  -3  -4   41.14    1.73
  -2  -3   4   39.09    1.46
   2  -3  -4   40.12    1.96
   2   3   4   41.89    1.68
   2  -3  -4   40.72    1.78
  -2  -3   4   41.54    1.84
  -2   3  -4   41.22    1.70
   2  -3  -4   41.45    1.68
  -2  -3   4   42.65    1.68
  -2  -3   4   41.23    1.63
   2  -3  -4   41.53    1.76
  -2  -3   4   41.54    1.66
  -2  -3   4   41.75    1.77
   2   3   4   40.04    1.62
  -2  -3   4   41.17    1.62
  -2  -4  -4    8.33    0.73
   2  -4   4    9.98    0.56
  -2  -4  -4    8.78    0.76
   2  -4   4    9.50    0.70
   2  -4   4    9.78    0.72
  -2  -4  -4    9.15    0.70
  -2   4   4    9.05    0.72
   2  -4   4    9.63    0.80
   2   4  -4    8.59    0.61
   2  -4   4    9.53    0.73
  -2  -4  -4    8.42    0.68
   2   4  -4    9.99    0.70
  -2  -4  -4    8.96    0.50
  -2   4   4   10.29    0.72
   2   4   4   10.02    0.75
   2  -4  -4   10.07    0.78
  -2   4  -4    8.06    0.62
  -2  -4   4   10.98    0.73
  -2  -4   4   10.27    0.58
  -2  -4   4   10.88    0.75
  -2  -4   4   10.81    0.71
  -2   4  -4    8.15    0.65
   2  -4  -4    9.14    0.70
  -2  -4   4   11.17    0.79
  -2  -4   4    9.87    0.74
  -2  -4   4   10.01    0.77
   2  -4  -4    8.33    0.81
   2  -4  -4    8.90    0.76
   2  -4  -4    9.09    0.64
  -2  -5  -4   30.57    1.34
   2   5  -4   31.13    1.29
   2  -5   4   27.55    1.38
   2  -5   4   28.71    1.45
  -2  -5  -4   29.19    1.43
  -2  -5  -4   27.76    1.41
  -2   5   4   27.01    1.16
   2  -5   4   28.67    1.17
  -2  -5  -4   28.95    1.60
   2  -5   4   26.75    1.10
   2  -5   4   28.78    1.46
   2  -5   4   25.63    1.56
  -2   5   4   29.16    1.48
  -2  -5  -4   27.07    1.43
   2  -5  -4   30.43    1.69
  -2  -5   4   28.18    1.39
  -2  -5   4   30.98    1.49
   2   5   4   26.39    1.08
  -2   5  -4   28.75    1.30
   2  -5  -4   28.12    1.42
  -2  -5   4   28.44    1.19
   2  -5  -4   28.96    1.48
   2  -5  -4   28.48    1.58
  -2  -5   4   30.53    1.46
   2   5   4   26.83    1.14
  -2   5  -4   28.25    1.44
   2  -5  -4   29.14    1.44
  -2  -5   4   29.71    1.42
   2  -6   4    6.18    0.79
   2  -6   4    6.90    0.52
   2  -6   4    6.38    0.51
  -2  -6  -4    6.96    0.85
  -2  -6  -4    6.87    0.85
  -2  -6  -4    7.03    0.65
   2   6  -4    7.09    0.58
  -2  -6  -4    6.61    0.50
   2  -6   4    6.89    0.84
  -2  -6  -4    7.80    1.00
   2  -6   4    7.45    1.00
  -2   6   4    6.54    0.53
  -2  -6  -4    8.14    0.91
  -2  -6   4    8.15    0.91
   2  -6  -4    5.27    0.75
   2  -6  -4    6.52    0.67
  -2  -6   4    7.73    0.75
   2  -6  -4    7.10    0.89
  -2  -6   4    5.78    0.77
  -2   6  -4    5.99    0.62
   2  -6  -4    5.66    0.88
   2   6   4    6.25    0.52
  -2  -6   4    6.53    0.50
   2  -6  -4    6.10    0.80
  -2  -6   4    7.14    0.54
  -2  -6   4    7.69    0.90
   2  -6  -4    7.06    0.95
   2  -6  -4    6.42    0.65
  -2   7   4    2.79    0.44
  -2  -7  -4    2.33    0.57
  -2  -7  -4    2.64    0.38
  -2   7   4    1.84    0.33
   2  -7   4    3.53    0.44
  -2  -7  -4    2.61    0.58
  -2  -7  -4    2.13    0.54
   2  -7   4    3.04    0.35
   2  -7   4    2.22    0.37
   2  -7   4    2.44    0.55
   2  -7   4    2.68    0.38
   2  -7   4    3.04    0.38
  -2   7   4    2.83    0.38
  -2  -7   4    3.10    0.42
  -2  -7   4    3.19    0.42
   2  -7  -4    1.38    0.47
   2   7   4    3.23    0.45
   2   7   4    2.88    0.44
  -2   7  -4    2.37    0.44
  -2  -7   4    3.22    0.46
   2   7   4    2.77    0.30
  -2  -7   4    3.35    0.66
   2  -7  -4    2.78    0.52
   2  -7  -4    2.97    0.64
  -2  -7   4    3.06    0.43
   2   7   4    3.22    0.42
   2  -7  -4    3.16    0.63
   2  -8   4    6.84    0.95
   2  -8   4    6.62    0.53
  -2  -8  -4    6.71    0.85
  -2   8   4    6.51    0.51
  -2   8   4    6.52    0.55
   2   8  -4    4.89    0.51
   2  -8   4    6.07    0.58
  -2   8   4    6.57    0.59
  -2   8   4    6.54    0.56
  -2  -8  -4    5.90    0.54
  -2   8   4    5.77    0.47
   2  -8   4    6.10    0.49
  -2  -8   4    5.07    0.50
   2   8   4    6.61    0.55
  -2  -8   4    5.94    0.85
   2   8   4    6.39    0.43
  -2  -8   4    6.60    0.58
  -2  -8   4    6.40    0.56
   2   8   4    6.44    0.58
  -2   8  -4    6.53    0.49
   2   8   4    6.32    0.52
   2  -8  -4    6.74    0.80
   2  -8  -4    5.19    0.90
   2  -9   4    1.85    0.37
  -2  -9  -4    1.39    0.32
  -2  -9  -4    1.62    0.47
  -2   9   4    2.08    0.38
  -2   9   4    1.97    0.30
   2  -9   4    1.74    0.28
   2   9  -4    1.73    0.31
  -2   9   4    2.30    0.32
  -2   9   4    2.07    0.35
  -2   9   4    1.76    0.32
   2  -9   4    1.80    0.31
   2   9   4    1.43    0.29
  -2  -9   4    1.94    0.37
  -2  -9   4    1.81    0.31
  -2   9  -4    1.76    0.36
  -2   9  -4    1.56    0.29
   2   9   4    1.83    0.37
   2   9   4    1.62    0.27
   2  -9  -4    1.80    0.47
  -2  -9   4    1.95    0.34
   2   9   4    2.06    0.36
   2  10  -4   13.92    0.63
  -2  10   4   13.46    0.71
  -2 -10  -4   13.21    0.74
   2 -10   4   11.51    0.75
  -2  10   4   12.58    0.62
   2 -10   4   13.01    0.56
  -2  10   4   13.80    0.62
   2 -10   4   13.32    0.68
   2 -10  -4   13.67    0.77
  -2 -10   4   14.38    0.68
  -2  10  -4   13.15    0.69
   2  10   4   12.88    0.70
   2  10   4   11.68    0.75
   2  10   4   13.88    0.70
  -2  10  -4   13.16    0.64
  -2 -10   4   13.74    0.69
  -2 -10   4   11.85    0.75
  -2  11   4    0.27    0.14
   2 -11   4    0.34    0.15
  -2  11  -4    0.37    0.15
   2  11   4    0.15    0.14
  -2  11  -4    0.31    0.16
  -2 -11   4    0.27    0.13
   2  11   4    0.09    0.13
  -2 -11   4    0.40    0.15
   2  11   4    0.32    0.16
   2   0   5   88.58    2.91
   2   0  -5   88.47    3.47
   2   0   5   83.48    2.96
   2   0   5   81.05    2.69
  -2   0   5   85.10    2.92
   2   0   5   87.04    3.17
  -2   0   5   87.80    2.80
   2   0  -5   89.95    3.17
   2   0   5   87.15    3.41
  -2   0   5   87.81    3.23
  -2   0   5   87.61    3.01
   2   0   5   85.85    2.83
  -2   0   5   87.97    3.00
   2   0   5   86.72    2.84
   2  -1   5  190.66    5.73
   2  -1   5  189.70    6.26
   2  -1   5  188.07    5.83
   2  -1   5  181.28    5.57
  -2   1   5  186.83    5.47
  -2  -1  -5  178.29    6.09
  -2   1   5  186.47    5.87
  -2   1   5  193.83    5.89
   2  -1   5  187.38    5.59
   2   1  -5  182.94    6.52
   2  -1   5  188.36    5.67
  -2   1   5  190.98    5.75
   2  -1   5  188.33    6.70
  -2  -1   5  188.69    5.82
  -2  -1   5  191.68    6.73
   2   1   5  188.71    6.71
  -2  -1   5  197.49    6.34
   2   1   5  192.21    5.66
  -2  -1   5  185.21    5.57
  -2  -1   5  186.38    5.64
   2   1   5  185.72    5.84
   2  -1  -5  180.67    6.44
   2  -1  -5  183.37    6.32
  -2  -1   5  184.78    5.70
   2   1   5  185.36    5.78
   2  -1  -5  178.61    6.78
   2   1   5  186.73    6.21
  -2  -1   5  190.56    5.86
   2   1   5  189.03    5.56
  -2  -2  -5   15.18    0.84
   2  -2   5   12.61    0.73
  -2   2   5   11.20    0.81
   2  -2   5   11.35    0.84
   2  -2   5   11.49    0.62
   2  -2   5   11.57    0.76
   2  -2   5   12.71    0.82
   2   2  -5   14.35    0.79
   2  -2   5   11.58    0.70
   2   2  -5   15.20    0.83
  -2  -2  -5   15.27    1.00
  -2   2   5   12.64    0.82
  -2   2   5   11.86    0.81
   2  -2   5   11.81    0.90
   2  -2  -5   15.50    0.97
  -2  -2   5   11.17    0.85
  -2  -2   5   11.73    0.80
  -2   2  -5   15.41    0.72
  -2  -2   5   15.23    0.98
   2   2   5   13.02    0.78
  -2  -2   5   12.29    0.63
   2   2   5   12.51    0.72
   2  -2  -5   15.31    1.05
  -2  -2   5   12.94    0.80
   2  -2  -5   15.43    0.74
   2   2   5   11.77    0.79
  -2  -2   5   11.89    0.78
  -2  -2   5   12.22    0.78
   2  -2  -5   15.11    0.79
   2   2   5   11.65    0.80
   2   2   5   12.25    0.81
  -2   3   5   22.65    1.24
  -2   3   5   24.73    1.24
   2  -3   5   24.10    1.23
   2  -3   5   23.73    1.02
   2  -3   5   25.77    1.25
   2   3  -5   26.98    1.29
  -2  -3  -5   26.90    1.32
   2  -3   5   24.03    1.31
   2  -3   5   22.67    1.37
  -2  -3  -5   27.13    1.46
   2   3  -5   25.84    1.16
   2   3   5   23.66    1.20
   2   3   5   23.41    1.23
  -2  -3   5   23.79    1.23
   2   3   5   22.74    1.22
  -2  -3   5   24.11    1.20
  -2  -3   5   23.49    1.31
   2  -3  -5   28.93    1.41
  -2   3  -5   26.34    1.21
   2  -3  -5   26.57    1.18
  -2  -3   5   23.25    1.02
  -2  -3   5   22.96    1.22
  -2  -3   5   23.79    1.22
  -2  -3   5   22.73    1.35
   2  -3  -5   25.66    1.48
   2  -3  -5   26.48    1.28
  -2  -4  -5   93.07    3.30
   2  -4   5   89.33    3.48
   2  -4   5   88.99    2.97
  -2   4   5   89.66    3.24
  -2  -4  -5   96.12    3.58
   2  -4   5   87.15    2.78
   2   4  -5   90.08    3.18
  -2  -4  -5   91.15    3.70
   2  -4   5   88.39    3.26
   2  -4   5   94.12    3.26
   2  -4   5   87.10    3.72
  -2  -4  -5   94.85    3.27
   2   4  -5   93.76    3.58
  -2   4   5   92.60    3.34
  -2  -4   5   89.36    3.19
  -2  -4   5   94.20    3.51
   2   4   5   89.85    3.31
   2  -4  -5   91.68    3.35
  -2  -4   5   90.44    3.26
  -2   4  -5   89.68    3.51
   2  -4  -5   87.98    3.78
  -2  -4   5   90.96    3.00
   2  -4  -5   94.20    3.49
  -2  -4   5   94.07    3.29
   2  -4  -5   92.19    3.51
  -2  -4   5   92.38    3.27
  -2   4  -5   90.78    3.19
  -2  -4   5   89.98    3.68
   2  -4  -5   92.31    3.47
   2  -5   5    9.31    0.85
   2  -5   5    8.24    0.54
   2  -5   5    8.63    0.91
   2  -5   5    9.15    0.81
   2  -5   5    7.75    0.77
  -2  -5  -5    8.36    0.91
   2   5  -5    7.71    0.64
   2  -5   5    7.85    0.56
   2   5  -5    7.37    0.76
  -2   5   5    8.51    0.81
  -2  -5  -5    6.59    0.80
  -2  -5  -5    8.31    0.61
  -2  -5  -5    7.63    0.76
  -2   5   5    8.22    0.58
  -2  -5  -5    7.60    0.87
   2  -5  -5    8.30    0.91
  -2  -5   5    8.96    0.84
  -2   5  -5    8.10    0.68
  -2  -5   5    9.33    0.79
   2   5   5    8.54    0.57
   2  -5  -5    7.68    0.68
  -2   5  -5    7.84    0.73
  -2  -5   5   10.37    0.83
  -2  -5   5    8.17    0.87
   2  -5  -5    7.57    0.82
  -2  -5   5    9.09    0.61
   2  -5  -5    8.01    0.79
   2   6  -5    4.89    0.59
  -2  -6  -5    4.63    0.72
   2  -6   5    4.68    0.73
   2  -6   5    5.13    0.54
  -2  -6  -5    5.08    0.73
  -2   6   5    3.97    0.49
   2  -6   5    4.51    0.47
  -2  -6  -5    4.59    0.61
   2  -6  -5    5.27    0.62
  -2   6  -5    4.42    0.69
  -2   6  -5    4.51    0.58
   2  -6  -5    4.81    0.72
  -2  -6   5    4.98    0.49
  -2  -6   5    4.26    0.67
   2   6   5    4.71    0.52
  -2  -6   5    5.50    0.80
  -2   7   5   19.78    0.92
   2  -7   5   19.12    0.83
  -2   7   5   18.68    0.75
   2  -7   5   18.85    0.88
   2  -7   5   18.19    0.78
  -2   7   5   19.27    0.99
  -2   7   5   20.29    0.94
   2  -7   5   19.69    0.98
   2  -7   5   19.67    1.37
  -2   7   5   19.70    0.86
  -2  -7  -5   18.63    1.34
   2  -7   5   18.91    1.00
   2   7  -5   19.79    1.07
   2   7   5   18.92    0.95
   2   7   5   19.57    0.72
   2  -7  -5   16.69    1.30
   2  -7  -5   22.17    1.31
  -2  -7   5   18.10    1.29
  -2  -7   5   18.62    0.88
  -2  -7   5   19.15    0.89
  -2  -7   5   20.99    1.06
   2   7   5   18.71    0.91
   2   7   5   19.22    1.00
  -2   7  -5   19.94    1.14
   2   8  -5   14.95    0.87
   2  -8   5   17.37    0.91
  -2   8   5   15.84    0.86
  -2   8   5   16.15    0.71
  -2   8   5   16.29    0.77
  -2   8   5   16.94    0.93
   2  -8   5   16.52    0.70
  -2   8   5   16.55    0.82
   2  -8   5   15.50    0.80
   2   8   5   15.62    0.83
  -2   8  -5   14.83    0.95
   2   8   5   15.83    0.65
  -2  -8   5   16.55    0.81
  -2  -8   5   16.34    0.79
   2  -8  -5   15.05    1.12
   2   8   5   15.85    0.92
   2   8   5   15.33    0.85
  -2  -8   5   16.51    0.94
  -2   9   5    6.69    0.44
  -2  -9  -5    7.02    0.84
  -2   9   5    7.03    0.49
   2  -9   5    6.56    0.34
  -2   9   5    6.90    0.53
  -2   9   5    6.65    0.52
   2  -9   5    6.90    0.51
   2   9  -5    8.01    0.55
   2  -9   5    6.84    0.60
  -2   9   5    6.96    0.58
   2   9   5    6.43    0.52
  -2  -9   5    6.57    0.48
  -2  -9   5    6.93    0.52
   2   9   5    7.74    0.56
   2   9   5    7.22    0.60
  -2   9  -5    7.30    0.51
  -2   9  -5    7.71    0.61
   2  -9  -5    6.73    0.83
   2 -10   5   12.91    0.64
  -2  10   5   12.66    0.56
  -2  10   5   12.83    0.58
  -2  10   5   12.47    0.67
   2  10  -5   13.84    0.61
   2 -10  -5   13.15    0.73
   2  10   5   12.46    0.52
  -2 -10   5   13.08    0.64
   2  10   5   12.20    0.65
  -2  10  -5   13.60    0.68
  -2 -10   5   12.54    0.53
   2  10   5   12.43    0.67
   2  10   5   11.91    0.72
  -2  10  -5   12.78    0.60
   2 -11   5    3.70    0.29
  -2  11   5    3.96    0.27
   2  11   5    3.95    0.24
   2  11   5    3.68    0.31
  -2  11  -5    4.21    0.27
  -2 -11   5    3.56    0.30
   2  11   5    4.10    0.31
  -2   0   6   13.59    0.99
   2   0   6   12.83    0.89
   2   0   6   13.05    0.80
  -2   0   6   14.32    0.89
   2   0   6   12.62    0.65
   2   0   6   11.88    0.89
   2   0   6   11.99    0.97
  -2   0   6   12.81    0.64
   2   0   6   13.19    0.84
  -2   0   6   13.97    0.91
   2   0  -6   15.31    0.81
  -2   0   6   14.21    0.92
   2   0   6   13.79    0.82
  -2   0   6   13.03    0.79
   2   0  -6   14.36    1.04
  -2   1   6   17.41    1.02
  -2  -1  -6   17.80    1.21
   2  -1   6   17.92    1.08
   2  -1   6   16.58    0.78
  -2   1   6   17.11    1.03
   2  -1   6   17.36    1.16
   2  -1   6   16.72    0.96
   2  -1   6   16.18    0.99
   2   1  -6   16.65    0.94
   2   1  -6   17.18    1.19
  -2   1   6   16.13    1.02
  -2  -1   6   17.29    1.03
  -2  -1   6   17.29    1.13
   2   1   6   17.02    1.00
   2  -1  -6   15.99    1.20
  -2  -1   6   15.69    0.75
  -2  -1   6   16.46    1.01
   2  -1  -6   16.71    1.13
  -2   1  -6   16.40    0.76
   2   1   6   17.21    1.07
   2   1   6   17.49    0.90
   2  -1  -6   16.21    0.88
  -2  -1   6   16.94    0.98
   2   1   6   16.57    0.96
   2   1   6   16.23    1.00
  -2  -1   6   17.91    0.97
  -2  -2  -6   16.79    1.19
   2  -2   6   15.57    1.06
  -2   2   6   15.52    0.98
   2  -2   6   15.39    1.13
   2   2  -6   15.58    0.94
   2  -2   6   14.78    0.97
  -2   2   6   14.65    0.99
  -2   2   6   15.09    0.99
   2  -2   6   15.34    0.95
   2  -2   6   13.36    0.73
   2  -2  -6   16.80    1.21
  -2  -2   6   15.86    1.11
  -2  -2   6   15.48    0.76
   2   2   6   15.94    1.05
   2   2   6   15.02    0.94
  -2   2  -6   16.72    0.86
  -2  -2   6   15.28    0.97
  -2  -2   6   13.45    0.94
   2  -2  -6   16.27    0.86
  -2  -2   6   15.16    0.95
   2  -2  -6   15.51    1.08
   2   2   6   15.37    0.98
  -2  -2   6   14.69    1.10
  -2  -2   6   15.83    0.97
   2   2   6   15.27    0.99
   2  -3   6    7.95    0.72
   2   3  -6    7.49    0.67
  -2  -3  -6    8.03    0.85
   2  -3   6    7.53    0.54
   2  -3   6    7.14    0.80
  -2   3   6    8.31    0.75
   2   3  -6    7.80    0.69
  -2   3   6    7.52    0.75
   2  -3   6    7.30    0.71
   2  -3   6    8.21    0.80
  -2  -3  -6    8.36    0.77
  -2   3   6    7.23    0.72
  -2  -3   6    7.27    0.68
  -2  -3   6    8.36    0.75
   2  -3  -6    8.18    0.62
   2  -3  -6    8.44    0.81
   2   3   6    9.16    0.77
   2  -3  -6    8.15    0.87
  -2  -3   6    8.03    0.77
  -2  -3   6    7.89    0.85
  -2  -3   6    8.13    0.75
   2   3   6    8.11    0.71
  -2  -3   6    7.23    0.52
  -2   3  -6    8.68    0.66
   2   3   6    7.34    0.72
  -2  -3   6    7.64    0.92
   2  -4   6   15.28    1.20
  -2  -4  -6   12.40    0.97
   2  -4   6   14.42    1.05
   2  -4   6   14.05    0.78
   2   4  -6   13.04    0.97
  -2   4   6   14.56    0.78
  -2   4   6   12.79    1.01
   2  -4   6   15.93    1.07
  -2   4   6   13.11    1.01
  -2  -4  -6   14.28    1.09
   2  -4   6   15.28    1.13
  -2  -4  -6   14.00    1.02
   2   4  -6   14.17    0.92
  -2  -4   6   14.26    1.03
   2  -4  -6   12.58    1.14
   2  -4  -6   13.16    1.03
   2   4   6   13.74    0.76
  -2   4  -6   13.26    0.92
   2  -4  -6   13.41    0.89
  -2  -4   6   15.10    1.18
  -2  -4   6   14.20    1.05
   2  -4  -6   13.67    1.03
  -2  -4   6   15.50    1.04
  -2  -4   6   15.18    0.81
   2   4   6   13.33    1.05
  -2   4  -6   14.18    0.91
  -2  -4   6   14.28    1.15
  -2  -4   6   14.67    1.03
   2   5  -6    2.93    0.49
  -2  -5  -6    3.01    0.62
  -2   5   6    3.17    0.41
   2   5  -6    3.31    0.60
  -2  -5  -6    2.42    0.62
  -2  -5  -6    3.01    0.44
  -2  -5  -6    2.99    0.60
   2  -5   6    4.20    0.70
  -2   5   6    2.96    0.63
   2  -5   6    4.10    0.75
   2  -5   6    3.02    0.40
   2  -5  -6    2.50    0.66
  -2  -5   6    3.23    0.43
  -2   5  -6    3.36    0.55
  -2   5  -6    3.75    0.61
   2   5   6    3.36    0.45
  -2  -5   6    3.90    0.69
  -2  -5   6    3.22    0.62
   2  -5  -6    3.47    0.55
   2  -5  -6    3.82    0.68
  -2  -6  -6    3.37    0.65
   2  -6   6    3.75    0.43
  -2  -6  -6    3.07    0.57
   2  -6   6    3.95    0.68
  -2   6   6    3.93    0.43
  -2   6   6    4.06    0.47
  -2  -6  -6    2.93    0.60
   2   6  -6    4.58    0.57
  -2   6   6    3.56    0.49
   2  -6   6    3.06    0.43
  -2   6   6    4.24    0.49
  -2   6   6    2.77    0.68
   2  -6   6    3.47    0.39
  -2   6   6    3.95    0.35
   2  -6  -6    4.16    0.71
  -2  -6   6    4.47    0.54
   2   6   6    3.40    0.28
   2   6   6    3.05    0.39
   2   6   6    2.73    0.41
  -2   6  -6    3.41    0.67
   2   6   6    3.11    0.44
  -2  -6   6    3.76    0.67
  -2  -6   6    3.89    0.42
  -2  -6   6    3.50    0.36
  -2   6  -6    3.53    0.56
   2  -7   6    3.57    0.40
  -2   7   6    3.46    0.39
   2   7  -6    2.84    0.47
  -2   7   6    2.69    0.30
  -2   7   6    2.38    0.40
   2  -7   6    4.16    0.80
   2  -7   6    3.47    0.49
  -2   7   6    2.88    0.40
   2  -7   6    2.79    0.39
  -2   7   6    1.86    0.34
  -2  -7   6    2.71    0.43
   2   7   6    2.60    0.43
  -2  -7   6    3.11    0.68
   2  -7  -6    2.62    0.56
  -2   7  -6    2.38    0.49
  -2  -7   6    3.31    0.42
  -2  -7   6    3.17    0.34
   2   7   6    3.51    0.42
   2   7   6    3.05    0.41
   2  -7  -6    2.44    0.61
   2  -8   6    0.45    0.27
   2   8  -6    1.20    0.33
  -2   8   6    0.27    0.20
  -2   8   6    0.90    0.19
   2  -8   6    0.58    0.23
   2  -8   6    0.85    0.22
  -2   8   6    0.60    0.23
  -2   8   6    0.64    0.27
  -2   8   6    0.56    0.21
  -2  -8   6    0.71    0.24
   2  -8  -6    0.50    0.42
   2   8   6    0.58    0.23
  -2   8  -6    1.05    0.34
   2   8   6    0.82    0.28
   2   8   6    0.58    0.23
  -2  -8   6    0.79    0.29
   2   8   6    0.53    0.16
  -2  -8   6    0.80    0.19
  -2   9   6    5.34    0.45
   2  -9   6    5.77    0.46
   2   9  -6    5.54    0.50
  -2   9   6    5.74    0.38
  -2   9   6    4.69    0.45
  -2   9   6    5.73    0.43
  -2   9   6    5.03    0.50
   2   9   6    5.39    0.47
   2   9   6    5.42    0.35
   2   9   6    5.53    0.52
  -2  -9   6    4.84    0.45
  -2   9  -6    5.45    0.43
   2   9   6    5.26    0.46
  -2   9  -6    6.92    0.59
  -2  10   6    1.42    0.25
  -2  10   6    1.52    0.20
  -2  10   6    1.29    0.23
   2 -10   6    1.35    0.24
   2  10  -6    1.27    0.23
  -2  10   6    1.60    0.22
  -2  10  -6    1.09    0.21
   2  10   6    0.96    0.22
   2  10   6    1.66    0.18
   2  10   6    1.17    0.22
  -2 -10   6    1.17    0.23
   2 -10  -6    0.91    0.24
   2  10   6    1.18    0.26
  -2  10  -6    1.32    0.27
  -2  11   6    1.77    0.17
   2 -11   6    1.41    0.18
   2  11   6    1.39    0.19
  -2 -11   6    1.32    0.18
   2 -11  -6    1.51    0.19
   2  11   6    1.63    0.12
  -2  11  -6    1.52    0.15
   2   0   7   51.38    2.13
   2   0   7   51.47    2.34
   2   0   7   50.85    2.04
   2   0  -7   52.74    2.19
  -2   0   7   50.56    2.15
  -2   0   7   52.36    2.22
  -2   0   7   51.40    2.21
   2   0  -7   51.53    2.59
   2   0   7   52.26    2.22
   2   0  -7   51.45    2.41
   2   0   7   50.67    2.08
   2   0   7   51.26    1.82
   2   0   7   52.51    2.57
  -2   1   7   15.66    1.08
  -2   1   7   15.75    1.07
  -2  -1  -7   13.18    1.18
   2   1  -7   13.15    0.91
   2  -1   7   15.15    1.09
   2  -1   7   15.81    1.06
   2   1  -7   13.25    1.16
  -2   1   7   14.56    1.02
   2  -1   7   17.37    1.05
   2  -1   7   16.26    1.25
   2  -1   7   16.02    0.79
  -2  -1   7   16.40    0.77
  -2  -1   7   15.42    1.03
   2   1   7   16.01    1.11
   2  -1  -7   14.07    1.13
   2   1   7   14.48    1.01
   2  -1  -7   14.58    0.90
  -2  -1   7   15.55    1.11
  -2  -1   7   14.75    1.04
   2  -1  -7   13.01    1.19
  -2  -1   7   16.32    0.99
  -2  -1   7   14.60    1.03
   2   1   7   16.10    1.07
  -2   1  -7   13.83    0.81
   2   1   7   15.59    1.00
   2  -2   7   46.27    2.08
  -2   2   7   43.91    2.05
   2   2  -7   44.64    2.42
   2  -2   7   47.59    1.75
  -2   2   7   46.89    2.05
   2  -2   7   46.03    2.03
  -2   2   7   48.92    2.14
  -2  -2  -7   45.51    2.44
   2  -2   7   48.96    2.24
   2   2  -7   45.31    2.08
   2  -2   7   44.03    2.36
  -2  -2   7   47.42    2.26
  -2  -2   7   47.81    1.73
  -2  -2   7   45.06    1.99
  -2  -2   7   47.23    2.08
   2  -2  -7   43.61    2.42
   2  -2  -7   43.81    1.98
   2   2   7   45.81    2.01
   2   2   7   46.38    2.07
   2  -2  -7   45.30    2.23
  -2  -2   7   47.40    2.08
  -2  -2   7   47.20    2.02
   2   2   7   46.17    2.07
  -2   2  -7   45.74    1.98
   2   2   7   47.94    2.19
   2   3  -7   78.53    2.87
   2  -3   7   71.41    2.90
   2  -3   7   72.90    2.98
   2  -3   7   70.30    3.38
  -2   3   7   70.93    2.89
   2   3  -7   76.34    3.14
   2  -3   7   73.71    3.15
  -2   3   7   74.34    2.99
   2  -3   7   74.02    2.59
  -2   3   7   74.47    3.01
  -2   3   7   76.45    2.50
  -2  -3  -7   78.79    3.49
   2   3   7   70.15    2.88
  -2  -3   7   76.57    2.59
   2  -3  -7   79.11    3.22
   2   3   7   75.82    2.98
   2  -3  -7   75.84    3.48
   2  -3  -7   79.55    3.04
  -2   3  -7   75.73    3.05
  -2  -3   7   73.57    2.89
   2   3   7   75.09    2.99
  -2  -3   7   75.30    2.97
  -2  -3   7   76.73    3.23
  -2  -3   7   74.44    2.92
  -2  -3   7   73.62    2.95
  -2  -3   7   73.39    3.41
  -2  -4  -7   60.12    2.55
  -2   4   7   57.03    2.04
   2   4  -7   57.62    2.61
   2   4  -7   57.86    2.34
   2  -4   7   57.23    2.52
   2  -4   7   59.16    2.68
   2  -4   7   56.74    2.12
  -2   4   7   55.44    2.51
  -2  -4   7   54.96    2.93
   2  -4  -7   57.16    2.48
  -2  -4   7   58.49    2.52
  -2  -4   7   58.05    2.13
  -2   4  -7   54.30    2.51
   2   4   7   54.69    2.51
  -2  -4   7   59.47    2.69
  -2  -4   7   56.52    2.50
   2   4   7   56.16    2.03
   2  -4  -7   55.25    2.50
  -2   5   7   15.47    0.80
   2   5  -7   15.27    1.28
   2  -5   7   13.73    1.24
   2  -5   7   15.77    0.72
   2   5  -7   17.13    1.08
   2  -5   7   15.44    0.89
  -2   5   7   14.07    1.22
   2  -5   7   14.80    0.77
  -2   5   7   14.22    0.81
  -2  -5  -7   15.17    1.22
   2  -5   7   15.41    0.66
   2  -5   7   16.29    1.23
  -2  -5  -7   15.87    1.22
  -2   5   7   14.74    0.61
  -2   5   7   14.88    0.85
  -2   5   7   15.17    0.74
   2  -5   7   15.10    0.76
   2   5   7   15.91    0.87
   2   5   7   15.31    0.53
   2   5   7   15.11    0.82
  -2   5  -7   14.13    1.21
  -2   5  -7   17.08    1.10
   2  -5  -7   14.20    1.17
   2   5   7   15.42    0.81
  -2  -5   7   15.51    0.78
  -2  -5   7   14.46    1.16
  -2  -5   7   14.13    0.70
  -2  -5   7   14.68    0.88
   2  -6   7   30.77    1.16
   2  -6   7   33.33    1.24
  -2   6   7   33.58    1.29
  -2   6   7   35.85    1.45
  -2  -6  -7   29.66    1.77
   2  -6   7   30.80    1.86
   2  -6   7   33.94    1.48
   2  -6   7   33.12    1.13
   2   6  -7   32.46    1.58
  -2   6   7   32.58    1.18
  -2   6   7   33.41    1.04
   2  -6   7   34.67    1.28
  -2   6   7   33.17    1.31
  -2  -6   7   32.24    1.86
   2   6   7   33.60    1.43
  -2  -6   7   33.26    1.17
   2   6   7   33.77    1.32
  -2  -6   7   32.71    1.21
   2   6   7   33.24    0.96
   2  -6  -7   30.68    1.82
  -2   6  -7   31.04    1.62
  -2  -6   7   33.13    1.48
   2   6   7   31.34    1.30
   2  -7   7   38.63    1.64
  -2   7   7   39.02    1.57
   2  -7   7   38.06    1.37
  -2   7   7   38.74    1.44
  -2   7   7   38.93    1.31
   2  -7   7   37.11    1.29
   2   7  -7   36.12    1.68
  -2   7   7   39.09    1.17
  -2   7   7   36.62    1.39
  -2   7  -7   35.77    1.75
  -2  -7   7   37.77    1.34
   2   7   7   39.02    1.57
   2   7   7   37.12    1.44
  -2  -7   7   37.97    1.63
   2   7   7   37.99    1.43
   2   7   7   37.76    1.08
  -2   8   7   10.80    0.51
   2   8  -7   10.43    0.75
  -2   8   7   10.48    0.70
  -2   8   7   10.64    0.65
   2  -8   7   10.75    0.63
  -2   8   7   10.27    0.58
   2  -8   7   10.97    0.76
   2  -8   7   10.88    0.58
  -2   8   7   10.33    0.62
   2   8   7   10.30    0.64
   2   8   7   10.82    0.72
  -2  -8   7   10.45    0.76
  -2  -8   7   10.40    0.60
  -2   8  -7   11.08    0.83
   2  -8  -7    9.72    0.95
   2   8   7   10.76    0.44
   2   8   7    9.40    0.63
  -2   9   7   17.81    0.70
   2   9  -7   19.18    0.84
   2  -9   7   16.68    0.75
  -2   9   7   17.78    0.64
  -2   9   7   17.66    0.80
  -2   9   7   17.10    0.76
   2   9   7   17.78    0.57
   2   9   7   18.14    0.80
  -2  -9   7   17.40    0.75
   2   9   7   17.05    0.80
  -2   9  -7   18.08    0.89
   2  -9  -7   17.92    0.89
  -2   9  -7   18.90    0.74
   2   9   7   16.47    0.87
   2 -10   7    3.86    0.31
  -2  10   7    3.59    0.24
   2  10  -7    4.06    0.31
  -2  10   7    3.24    0.30
  -2 -10   7    3.98    0.30
   2  10   7    4.34    0.32
   2  10   7    3.46    0.31
  -2  10  -7    3.91    0.36
   2  10   7    3.61    0.18
  -2  10  -7    4.38    0.30
  -2   0   8   24.03    1.44
  -2   0   8   21.69    1.37
   2   0  -8   23.62    1.54
   2   0  -8   19.87    1.76
   2   0   8   24.07    1.53
   2   0   8   24.35    1.46
  -2   0   8   23.45    1.41
  -2   0  -8   21.66    1.68
  -2   1   8    0.44    0.37
   2  -1   8    0.88    0.37
   2  -1   8    0.86    0.24
   2   1  -8    1.01    0.48
  -2  -1  -8    1.27    0.56
  -2   1   8    0.81    0.40
   2   1  -8    0.90    0.35
   2  -1   8    0.57    0.42
   2  -1   8    0.57    0.42
  -2  -1   8    0.77    0.25
   2   1   8    0.96    0.43
   2   1   8    0.63    0.39
   2   1   8    0.66    0.46
   2   1   8   -0.06    0.35
   2  -1  -8    0.99    0.34
  -2  -1   8    0.78    0.42
  -2  -1   8    0.72    0.37
  -2  -1   8    0.48    0.36
   2  -1  -8    1.21    0.50
  -2   1  -8    1.24    0.35
   2  -2   8   48.83    1.84
   2   2  -8   44.55    2.21
  -2   2   8   46.21    2.21
   2  -2   8   48.17    2.25
  -2   2   8   46.42    2.22
   2  -2   8   46.74    2.36
   2   2   8   46.35    2.21
  -2  -2   8   46.78    2.22
   2  -2  -8   49.28    2.16
  -2  -2   8   49.38    1.82
  -2  -2   8   47.21    2.21
   2   2   8   47.56    2.24
   2  -2  -8   48.70    2.43
  -2  -2   8   45.79    2.20
  -2  -2   8   48.90    2.44
  -2   2  -8   47.04    2.12
   2   3  -8    5.86    0.73
  -2   3   8    6.01    0.37
  -2   3   8    5.91    0.52
   2   3  -8    4.86    0.75
  -2   3   8    6.17    0.91
   2  -3   8    7.45    0.95
   2  -3   8    5.74    0.55
   2  -3   8    6.63    0.95
   2  -3   8    5.80    0.49
   2  -3   8    5.75    0.49
   2  -3   8    6.04    0.40
   2  -3  -8    5.53    0.66
  -2  -3   8    7.07    0.94
   2  -3  -8    6.50    0.92
  -2  -3   8    5.67    0.51
  -2  -3   8    5.57    0.54
  -2  -3   8    5.01    0.86
   2   3   8    5.84    0.84
  -2  -3   8    5.53    0.84
   2   3   8    4.27    0.75
  -2   3  -8    5.98    0.70
   2  -3  -8    6.02    0.91
   2  -4   8    2.26    0.62
   2  -4   8    2.14    0.29
  -2   4   8    2.77    0.44
   2  -4   8    1.93    0.29
  -2  -4  -8    3.16    0.69
   2  -4   8    1.84    0.37
  -2   4   8    2.46    0.39
  -2   4   8    2.90    0.28
   2  -4   8    2.57    0.38
   2   4  -8    2.83    0.55
  -2   4   8    3.12    0.39
   2  -4   8    2.10    0.64
  -2  -4   8    2.55    0.43
   2  -4  -8    2.46    0.58
  -2  -4   8    2.96    0.68
   2   4   8    2.52    0.36
  -2  -4   8    3.30    0.39
  -2  -4   8    3.32    0.40
   2   4   8    2.43    0.20
   2   4   8    2.41    0.40
   2   4   8    2.04    0.36
  -2  -4   8    2.73    0.35
  -2  -4   8    2.13    0.71
  -2   5   8   15.07    0.60
   2  -5   8   15.28    1.35
   2  -5   8   14.33    0.75
  -2   5   8   14.97    0.73
   2  -5   8   15.27    0.93
   2  -5   8   14.58    0.65
  -2  -5  -8   13.54    1.24
   2  -5   8   15.64    0.74
  -2   5   8   15.34    0.80
   2   5  -8   16.26    1.09
  -2   5   8   15.77    0.89
   2  -5   8   13.66    1.30
   2  -5   8   14.21    0.77
   2   5   8   14.77    0.81
   2  -5  -8   15.57    1.29
   2   5   8   14.76    0.75
   2   5   8   15.38    0.50
   2   5   8   15.53    0.88
  -2  -5   8   14.54    0.77
  -2  -5   8   14.70    0.71
  -2   5  -8   15.76    1.13
  -2  -5   8   14.95    1.28
  -2  -5   8   14.46    0.90
  -2   6   8    2.62    0.38
  -2   6   8    2.68    0.38
  -2   6   8    3.19    0.30
   2  -6   8    2.27    0.35
   2  -6   8    2.63    0.34
   2  -6   8    2.56    0.47
   2  -6   8    2.58    0.34
   2  -6   8    2.67    0.38
  -2   6   8    2.66    0.35
  -2   6   8    2.31    0.40
   2   6  -8    3.13    0.55
  -2  -6   8    2.83    0.36
   2   6   8    2.92    0.23
  -2   6  -8    1.99    0.50
   2   6   8    2.30    0.37
   2   6   8    2.20    0.37
  -2  -6   8    3.31    0.48
  -2  -6   8    2.43    0.35
   2   6   8    3.02    0.46
  -2   7   8    0.66    0.23
  -2   7   8    0.95    0.25
  -2   7   8    1.12    0.29
   2  -7   8    0.82    0.28
   2   7  -8    1.22    0.38
   2  -7   8    0.92    0.21
   2  -7   8    0.50    0.20
   2  -7   8    0.61    0.22
  -2   7   8    1.27    0.25
  -2   7   8    0.66    0.16
  -2   7  -8    0.45    0.38
  -2  -7   8    0.91    0.25
   2   7   8    0.59    0.24
  -2  -7   8    0.85    0.30
   2   7   8    0.62    0.23
  -2  -7   8    1.00    0.25
   2   7   8    0.65    0.28
   2   7   8    0.72    0.13
  -2   8   8    0.60    0.20
  -2   8   8    0.38    0.18
   2  -8   8    0.78    0.20
  -2   8   8    0.49    0.21
  -2   8   8    0.45    0.14
   2  -8   8    0.49    0.20
  -2  -8   8    0.68    0.20
   2   8   8    0.55    0.21
   2   8   8    0.76    0.22
   2   8   8    0.48    0.11
   2  -8  -8    0.59    0.23
   2   8   8    0.77    0.26
  -2   9   8    2.01    0.26
  -2   9   8    1.26    0.20
  -2   9   8    1.34    0.23
  -2   9   8    1.57    0.17
   2  -9   8    2.03    0.25
   2   9  -8    1.41    0.27
   2   9   8    1.56    0.24
   2   9   8    1.36    0.26
  -2   9  -8    1.14    0.21
   2  -9  -8    1.22    0.28
   2   9   8    1.34    0.23
  -2   9  -8    1.20    0.31
  -2  -9   8    1.81    0.23
   2  10  -8    2.61    0.22
   2 -10  -8    2.94    0.25
   2  10   8    2.54    0.23
  -2  10  -8    2.96    0.28
   2  10   8    2.06    0.22
   2   0   9    9.96    1.01
  -2   0   9    9.58    0.57
  -2   0   9    9.88    1.02
  -2   0   9    9.43    1.10
   2   0   9   10.22    0.60
   2   0   9   10.39    0.63
   2   0  -9    9.48    1.21
  -2   0   9    9.77    0.63
   2   0   9   10.41    0.40
  -2   0   9   10.21    0.47
  -2   0   9    9.52    0.63
   2   0   9    9.69    1.08
   2  -1   9   61.08    2.15
   2  -1   9   58.26    1.88
  -2   1   9   56.87    2.62
  -2   1   9   56.55    1.75
  -2   1   9   58.67    1.86
   2  -1   9   60.47    2.71
   2  -1   9   56.45    1.51
  -2   1   9   56.01    1.90
   2  -1   9   57.81    1.77
   2  -1   9   57.15    2.82
  -2   1   9   57.51    1.57
   2   1  -9   62.59    2.95
  -2  -1   9   57.58    1.76
  -2  -1   9   57.48    2.65
   2   1   9   57.26    1.43
  -2  -1   9   55.01    2.62
   2   1   9   58.10    2.65
  -2  -1   9   56.37    1.90
   2  -1  -9   61.96    2.93
  -2  -1   9   57.49    1.60
   2   1   9   56.54    2.77
  -2  -1   9   59.65    1.90
   2   1   9   57.83    1.77
  -2   2   9   15.44    0.82
   2  -2   9   16.63    1.40
   2  -2   9   15.87    0.61
  -2  -2  -9   16.82    1.46
  -2   2   9   16.02    0.76
   2  -2   9   16.92    0.93
   2  -2   9   17.31    1.32
   2   2  -9   15.34    1.43
  -2   2   9   16.53    0.62
   2  -2   9   16.39    0.77
  -2   2   9   16.23    1.28
   2  -2   9   17.92    0.84
  -2  -2   9   16.99    1.32
   2   2   9   15.59    1.28
  -2  -2   9   16.90    0.77
  -2  -2   9   16.78    0.67
  -2  -2   9   16.65    0.83
  -2  -2   9   16.32    0.90
   2  -2  -9   15.96    1.41
   2   2   9   16.57    0.84
   2   2   9   16.05    0.48
  -2  -2   9   15.71    0.80
   2   2   9   16.71    0.77
   2  -3   9    2.92    0.43
   2  -3   9    3.06    0.39
   2  -3   9    3.71    0.40
   2  -3   9    3.79    0.33
  -2   3   9    3.71    0.28
  -2   3   9    2.64    0.34
  -2   3   9    2.70    0.37
   2   3  -9    3.80    0.88
  -2  -3  -9    3.00    0.72
   2  -3   9    4.12    0.82
   2  -3   9    2.68    0.68
   2   3   9    4.22    0.44
  -2  -3   9    1.87    0.56
   2   3   9    3.29    0.18
  -2  -3   9    3.15    0.33
  -2  -3   9    3.41    0.46
   2  -3  -9    1.91    0.63
  -2  -3   9    2.95    0.38
  -2  -3   9    3.29    0.46
   2   3   9    2.97    0.41
  -2  -3   9    2.85    0.35
   2  -3  -9    2.42    0.69
   2   4  -9   27.54    1.52
   2  -4   9   27.85    1.31
   2  -4   9   27.52    1.05
   2  -4   9   27.71    0.93
   2  -4   9   27.39    1.85
  -2   4   9   27.33    1.15
  -2   4   9   28.28    1.07
  -2   4   9   26.85    0.87
   2  -4   9   29.15    1.16
   2   4  -9   21.54    1.77
   2   4   9   28.11    1.16
  -2  -4   9   28.71    1.15
   2   4   9   29.38    1.05
  -2  -4   9   28.29    1.31
  -2  -4   9   26.74    1.03
  -2  -4   9   29.29    1.00
   2   4   9   27.22    0.70
   2  -5   9   36.71    1.35
   2   5  -9   34.65    1.75
  -2   5   9   37.73    1.07
   2  -5   9   36.30    1.15
  -2   5   9   37.18    1.37
   2  -5   9   37.69    1.28
   2  -5   9   34.73    2.16
   2  -5   9   35.09    1.56
  -2   5   9   37.24    1.27
  -2  -5   9   35.77    1.22
   2   5   9   37.18    1.38
  -2  -5   9   36.25    1.24
  -2  -5   9   35.73    1.34
  -2   5  -9   33.56    1.78
   2   5   9   36.67    1.23
  -2  -5   9   36.61    1.58
   2  -6   9    2.18    0.33
   2  -6   9    2.10    0.41
  -2   6   9    2.09    0.22
  -2   6   9    2.64    0.37
   2  -6   9    2.15    0.27
   2  -6   9    1.85    0.29
   2  -6   9    2.00    0.30
  -2   6   9    2.49    0.32
   2   6  -9    2.57    0.50
   2   6   9    1.85    0.38
  -2  -6   9    1.07    0.33
  -2   6  -9    2.21    0.49
   2   6   9    2.04    0.33
   2  -6  -9    2.65    0.41
  -2  -6   9    2.60    0.34
  -2  -6   9    2.48    0.34
  -2   7   9    7.70    0.48
   2  -7   9    8.39    0.50
  -2   7   9    8.60    0.55
  -2   7   9    8.11    0.52
  -2   7   9    8.22    0.38
   2  -7   9    8.35    0.50
   2  -7   9    8.28    0.48
   2   7   9    7.88    0.54
   2  -7  -9    7.47    0.60
  -2  -7   9    8.90    0.50
   2   7   9    8.82    0.55
   2   7   9    7.72    0.60
   2  -8   9    4.03    0.35
  -2   8   9    3.45    0.35
  -2   8   9    4.27    0.31
   2   8  -9    4.52    0.54
   2  -8   9    4.10    0.35
   2  -8  -9    4.80    0.45
   2   8   9    3.60    0.41
   2   8   9    3.29    0.34
   2   8   9    3.95    0.36
   2   9  -9    1.87    0.24
  -2   9   9    1.38    0.19
   2  -9   9    1.47    0.19
   2   9   9    1.34    0.19
   2  -9  -9    1.72    0.20
  -2   9  -9    1.58    0.19
   2   9   9    1.41    0.20
   2   0  10    3.39    0.23
  -2   0  10    4.10    0.46
   2   0  10    2.54    0.77
  -2   0  10    2.45    0.38
   2   0  10    3.66    0.42
  -2   0  10    3.39    0.38
  -2   0  10    3.60    0.29
   2   0 -10    3.34    0.80
   2   0  10    3.46    0.41
   2  -1  10   14.32    0.53
   2  -1  10   14.50    0.72
   2  -1  10   16.34    0.81
   2  -1  10   14.57    1.36
   2   1 -10   12.84    1.38
  -2   1  10   14.63    0.57
  -2  -1 -10   14.01    1.49
  -2   1  10   14.81    0.76
  -2   1  10   15.96    0.81
  -2   1  10   15.33    0.74
  -2  -1  10   15.01    0.79
   2   1  10   14.64    0.45
  -2  -1  10   14.64    0.60
  -2  -1  10   15.81    0.79
   2  -1 -10   12.98    1.34
  -2  -1  10   14.65    0.73
   2   1  10   16.01    0.75
  -2   2  10    0.83    0.17
  -2   2  10    0.95    0.27
   2  -2  10    1.27    0.31
   2  -2  10    1.35    0.19
  -2   2  10    1.00    0.27
   2  -2  10    1.74    0.32
   2  -2  10    1.91    0.34
   2  -2  10    0.96    0.58
   2   2 -10    1.41    0.62
  -2  -2  10    1.26    0.30
  -2  -2  10    1.45    0.31
  -2  -2  10    1.30    0.22
   2  -2 -10    1.75    0.67
   2   2  10    1.25    0.29
   2   2  10    1.79    0.35
  -2  -2  10    1.11    0.25
   2  -3  10    6.83    0.54
   2   3 -10    8.01    0.94
  -2   3  10    7.69    0.37
  -2   3  10    6.38    0.46
   2  -3  10    6.01    0.98
   2  -3  10    7.65    0.65
  -2   3  10    6.59    0.52
   2  -3  10    7.43    0.52
   2  -3  10    6.68    0.38
   2   3 -10    6.18    1.02
  -2  -3  10    7.31    0.45
   2   3  10    7.20    0.54
  -2  -3  10    7.71    0.51
  -2  -3  10    6.16    0.53
   2   3  10    6.38    0.51
  -2  -3  10    6.67    0.63
   2  -4  10    1.84    0.40
   2  -4  10    1.73    0.33
  -2   4  10    1.61    0.19
   2  -4  10    1.38    0.28
  -2   4  10    1.63    0.32
   2   4 -10    0.88    0.48
   2  -4  10    1.76    0.24
  -2   4  10    1.26    0.26
  -2  -4  10    1.20    0.34
   2   4  10    1.77    0.31
  -2  -4  10    2.08    0.33
  -2  -4  10    0.90    0.24
  -2  -4  10    1.31    0.23
   2   4  10    1.23    0.27
   2  -5  10    4.97    0.59
  -2   5  10    4.46    0.27
   2  -5  10    5.04    0.36
  -2   5  10    4.80    0.44
  -2   5  10    4.22    0.43
   2  -5  10    4.39    0.44
   2  -5  10    5.38    0.45
   2   5 -10    4.01    0.66
  -2  -5  10    4.87    0.39
  -2  -5  10    4.85    0.43
   2   5  10    5.61    0.52
  -2  -5  10    3.95    0.42
  -2   5 -10    5.70    0.82
   2   5  10    4.63    0.42
  -2  -5  10    4.16    0.51
  -2   6  10    6.19    0.29
   2  -6  10    6.30    0.39
   2  -6  10    5.70    0.45
   2  -6  10    6.58    0.45
  -2   6  10    6.31    0.46
  -2   6  10    6.40    0.43
  -2  -6  10    6.82    0.49
  -2  -6  10    5.38    0.41
   2   6  10    6.26    0.47
  -2  -6  10    6.46    0.42
   2  -7  10    1.81    0.26
   2  -7  10    1.86    0.23
  -2   7  10    1.25    0.23
  -2   7  10    1.74    0.22
  -2   7  10    1.96    0.14
   2   7  10    1.28    0.24
  -2  -7  10    1.83    0.24
  -2   8  10    1.00    0.17
  -2   8  10    1.03    0.16
   2   8 -10    1.03    0.24
   2  -8  10    0.99    0.17
   2   8  10    1.08    0.17
  -2   8 -10    1.23    0.17
  -2   0  11   68.21    1.98
  -2   0  11   67.06    2.14
   2   0  11   68.79    2.11
   2   0  11   65.33    1.97
  -2   0  11   67.50    2.08
   2   0  11   67.44    1.59
  -2   0  11   67.46    1.76
   2  -1  11    4.28    0.47
  -2   1  11    5.50    0.48
  -2   1  11    5.16    0.50
   2  -1  11    5.22    0.48
   2  -1  11    4.78    0.25
  -2   1  11    4.84    0.31
  -2   1  11    5.47    0.48
  -2  -1  11    4.88    0.33
  -2  -1  11    4.90    0.50
   2   1  11    3.76    0.40
  -2  -1  11    5.51    0.48
  -2  -1  11    4.60    0.42
   2  -2  11   12.77    0.72
  -2   2  11   12.30    0.63
   2  -2  11   12.75    0.65
  -2   2  11   12.20    0.68
   2  -2  11   12.40    0.46
  -2   2  11   11.84    0.46
  -2  -2  11   12.08    0.53
  -2  -2  11   11.22    0.66
  -2  -2  11   12.44    0.69
   2   2  11   12.12    0.64
  -2  -2  11   12.14    0.63
   2  -3  11   20.33    0.67
  -2   3  11   19.41    0.88
   2  -3  11   20.44    0.85
  -2   3  11   19.93    0.61
   2  -3  11   17.90    1.09
   2  -3  11   20.18    0.90
  -2   3  11   20.28    0.83
  -2  -3  11   20.48    0.83
  -2  -3  11   20.27    0.90
  -2  -3  11   19.21    0.72
   2   3  11   20.23    0.88
   2   3  11   19.95    0.82
  -2   4  11    1.57    0.28
  -2   4  11    1.55    0.15
   2  -4  11    1.56    0.28
  -2   4  11    1.01    0.25
   2  -4  11    1.20    0.25
   2  -4  11    1.25    0.19
   2   4  11    1.33    0.25
  -2  -4  11    1.22    0.24
   2   4  11    1.66    0.28
  -2  -4  11    1.20    0.26
  -2  -4  11    1.86    0.24
  -2   5  11    9.77    0.50
   2  -5  11    9.53    0.55
   2  -5  11   10.09    0.44
  -2   5  11    9.01    0.53
   2  -5  11    9.33    0.52
   2   5  11    8.59    0.53
  -2  -5  11    8.96    0.46
  -2  -5  11    9.08    0.49
  -2  -5  11    9.37    0.54
   2   5  11    9.14    0.47
   2  -6  11   18.93    0.63
  -2   6  11   18.92    0.68
   2  -6  11   19.32    0.75
  -2   6  11   18.17    0.74
   2  -6  11   18.52    0.70
  -2  -6  11   18.42    0.67
  -2  -6  11   18.45    0.71
  -2  -6  11   17.71    0.65
   2   6  11   18.47    0.75
  -2   7  11    9.83    0.45
   2  -7  11   10.21    0.42
   2  -7  11   10.18    0.38
  -2   7  11    9.25    0.40
  -2  -7  11    9.46    0.41
   2   7  11    9.56    0.44
  -2   0  12    2.64    0.30
   2   0  12    2.75    0.32
  -2   0  12    2.13    0.29
   2   0  12    2.71    0.32
  -2   0  12    2.98    0.22
  -2   0  12    3.15    0.36
  -2   1  12    1.67    0.27
   2  -1  12    1.23    0.23
   2  -1  12    1.83    0.28
  -2   1  12    1.68    0.15
  -2   1  12    1.34    0.24
  -2  -1  12    1.28    0.24
   2   1  12    1.81    0.27
  -2  -1  12    1.41    0.17
  -2  -1  12    1.38    0.25
  -2  -1  12    1.39    0.25
   2  -2  12    5.93    0.42
  -2   2  12    5.86    0.44
  -2   2  12    5.45    0.39
   2  -2  12    5.28    0.21
   2  -2  12    5.96    0.44
  -2   2  12    5.52    0.22
  -2  -2  12    5.69    0.31
  -2  -2  12    5.12    0.42
  -2  -2  12    5.63    0.40
   2   2  12    5.77    0.40
  -2   3  12    1.66    0.24
  -2   3  12    1.56    0.26
   2  -3  12    1.60    0.14
   2  -3  12    1.78    0.27
   2  -3  12    1.54    0.24
  -2  -3  12    1.72    0.20
  -2  -3  12    1.36    0.24
   2   3  12    1.29    0.22
  -2  -3  12    1.94    0.26
  -2   4  12    1.62    0.22
   2  -4  12    1.80    0.15
   2  -4  12    1.43    0.23
  -2   4  12    1.88    0.26
   2  -4  12    1.84    0.24
  -2  -4  12    1.67    0.26
  -2  -4  12    1.46    0.22
   2   4  12    1.68    0.22
   2   4  12    1.97    0.26
  -2  -4  12    1.49    0.18
   2  -5  12    0.83    0.18
   2  -5  12    1.12    0.19
  -2   5  12    1.03    0.17
  -2   5  12    1.08    0.19
   2  -5  12    0.85    0.12
   2   5  12    1.04    0.19
  -2  -5  12    1.44    0.20
  -2  -5  12    1.04    0.18
  -2  -5  12    0.91    0.15
   2  -6  12    3.91    0.17
   2  -6  12    3.56    0.25
  -2   6  12    3.77    0.26
  -2  -6  12    3.06    0.21
  -2   0  13   12.45    0.52
   2   0  13   11.61    0.51
  -2   0  13   11.89    0.52
   2  -1  13   28.28    0.90
  -2   1  13   28.46    0.94
  -2   1  13   27.48    0.89
   2  -1  13   26.26    0.92
  -2  -1  13   28.46    0.89
   2   1  13   28.11    0.88
  -2  -1  13   27.66    0.93
   2  -2  13   13.85    0.58
   2  -2  13   13.65    0.55
  -2   2  13   13.39    0.58
  -2   2  13   13.47    0.54
  -2  -2  13   13.37    0.54
  -2  -2  13   14.87    0.59
  -2  -2  13   14.47    0.39
   2   2  13   13.97    0.54
   2  -3  13    3.95    0.28
   2  -3  13    4.65    0.32
  -2   3  13    3.62    0.29
  -2   3  13    4.85    0.29
  -2  -3  13    4.01    0.29
  -2  -3  13    4.37    0.28
   2   3  13    4.05    0.27
  -2  -3  13    4.23    0.18
  -2   4  13    7.10    0.32
   2  -4  13    6.93    0.36
   2  -4  13    7.03    0.33
  -2  -4  13    7.40    0.35
   3   0   0    0.03    0.10
  -3   0   0    0.02    0.09
  -3   0   0    0.05    0.07
  -3   1   0   46.18    1.40
  -3  -1   0   47.30    1.46
  -3  -1   0   46.56    1.49
   3  -1   0   45.61    1.66
  -3  -1   0   47.44    1.50
   3   1   0   46.48    1.64
  -3  -1   0   45.81    1.65
   3  -1   0   45.71    1.66
   3  -1   0   46.15    1.73
  -3   1   0   46.31    1.68
   3  -1   0   45.99    1.44
  -3   1   0   47.28    1.37
   3  -2   0   51.93    1.62
   3  -2   0   52.38    2.02
  -3  -2   0   53.02    1.75
   3  -2   0   51.08    1.94
   3  -2   0   52.04    1.93
   3  -2   0   53.06    1.74
  -3   2   0   54.20    1.62
   3   2   0   52.86    1.90
  -3  -2   0   53.46    1.93
  -3  -2   0   51.05    1.72
  -3   2   0   52.19    1.94
  -3   2   0   54.34    1.58
  -3  -2   0   51.30    1.70
   3  -3   0   86.66    3.19
   3  -3   0   87.61    3.01
  -3  -3   0   89.64    2.84
   3  -3   0   86.33    2.62
   3  -3   0   87.25    3.14
   3  -3   0   87.83    3.27
  -3  -3   0   87.45    2.92
   3  -3   0   89.99    2.85
  -3   3   0   88.69    3.17
  -3  -3   0   88.89    3.18
  -3  -3   0   89.11    2.73
   3  -3   0   89.12    2.63
   3  -3   0   87.20    2.69
  -3  -3   0   86.89    2.77
  -3  -3   0   83.39    3.06
  -3  -3   0   90.37    2.79
  -3   4   0   31.51    1.36
   3  -4   0   30.99    1.11
   3  -4   0   30.57    1.15
  -3  -4   0   31.91    1.32
   3  -4   0   31.61    1.42
   3  -4   0   29.39    1.25
  -3  -4   0   31.54    1.44
   3  -4   0   31.71    1.34
   3  -4   0   31.95    1.49
   3  -4   0   32.17    1.52
  -3  -4   0   32.80    1.31
  -3   4   0   30.57    1.21
  -3  -4   0   32.00    1.40
   3  -4   0   31.55    1.19
  -3  -4   0   31.57    1.23
   3  -4   0   32.32    1.35
  -3  -4   0   32.98    1.28
   3   5   0    0.38    0.18
   3  -5   0    0.25    0.18
   3  -5   0    0.63    0.23
   3  -5   0    0.30    0.21
  -3   5   0    0.44    0.19
  -3  -5   0    0.56    0.24
  -3  -5   0    0.93    0.30
  -3  -5   0    0.35    0.22
  -3  -5   0    0.41    0.24
  -3  -5   0    0.08    0.14
   3  -5   0    0.30    0.24
  -3  -5   0    0.30    0.20
  -3  -5   0    0.10    0.16
   3  -5   0    0.25    0.21
   3  -5   0    0.30    0.25
  -3  -5   0    0.39    0.20
   3  -5   0    0.36    0.23
   3  -5   0    0.49    0.17
   3  -5   0    0.40    0.18
   3  -6   0   10.69    0.60
  -3  -6   0    9.87    0.61
  -3  -6   0   10.62    0.81
  -3  -6   0   10.06    0.75
  -3  -6   0   10.09    0.90
  -3  -6   0    9.10    0.74
   3  -6   0   10.50    0.71
  -3  -6   0   10.51    0.80
  -3  -6   0    8.53    0.75
   3  -6   0    9.66    0.80
   3  -6   0    9.39    0.87
   3  -6   0   10.47    0.95
   3  -7   0   94.62    3.55
  -3  -7   0   93.77    3.03
  -3  -7   0   93.75    3.88
   3  -7   0   94.90    3.02
  -3  -7   0   96.20    3.44
   3  -7   0   90.55    3.98
  -3  -7   0   98.01    3.94
  -3  -7   0   92.33    3.41
  -3  -7   0   92.93    3.43
   3  -7   0   95.34    3.34
  -3  -7   0   93.76    3.52
   3  -7   0   90.75    3.91
   3  -8   0    9.21    0.67
   3   8   0    9.96    0.44
  -3   8   0    9.55    0.60
  -3  -8   0   10.63    0.63
   3   8   0   10.88    0.65
   3  -8   0    9.90    0.99
  -3  -8   0   10.16    1.19
  -3  -8   0   10.80    0.87
  -3  -8   0   11.05    0.73
   3  -8   0    9.36    0.75
  -3   8   0   10.26    0.60
   3  -9   0    7.81    0.63
  -3  -9   0    7.20    0.54
  -3   9   0    8.39    0.53
  -3  -9   0    7.95    0.81
  -3   9   0    7.85    0.54
   3   9   0    7.77    0.56
  -3  -9   0    7.92    0.64
   3 -10   0    0.19    0.23
  -3  10   0    0.31    0.21
   3  10   0   -0.12    0.17
  -3 -10   0    0.52    0.20
  -3 -10   0   -0.20    0.19
  -3  10   0   -0.01    0.12
  -3 -10   0    0.22    0.36
   3 -10   0    0.23    0.22
   3  11   0    1.81    0.28
  -3  11   0    1.44    0.23
  -3 -11   0    1.54    0.24
   3 -11   0    1.28    0.26
  -3 -12   0    9.36    0.49
   3 -12   0    9.63    0.42
   3   0   1    0.21    0.11
   3   0  -1    0.24    0.10
  -3   0   1    0.17    0.10
  -3   0  -1    0.40    0.07
   3   0  -1    0.25    0.11
  -3   0   1    0.28    0.12
  -3   0   1    0.14    0.09
  -3   0  -1    0.31    0.08
   3   0   1    0.05    0.07
   3   0  -1    0.68    0.14
  -3   0   1    0.28    0.12
   3   0   1    0.43    0.12
   3   1  -1  158.01    5.03
   3   1  -1  167.47    5.30
   3  -1   1  155.41    4.55
  -3  -1  -1  157.05    4.57
  -3  -1  -1  159.00    4.64
   3  -1   1  161.75    5.38
   3   1  -1  156.74    5.35
  -3   1   1  157.87    4.65
  -3   1   1  159.65    4.50
  -3  -1  -1  162.39    4.53
   3  -1   1  154.11    5.09
  -3   1   1  154.50    4.53
  -3   1   1  156.25    5.38
   3   1   1  151.60    5.09
   3  -1  -1  161.71    5.11
   3  -1  -1  164.05    5.41
  -3  -1   1  153.96    5.39
   3  -1  -1  162.93    5.42
  -3  -1   1  165.12    4.58
  -3  -1   1  152.67    4.68
  -3   1  -1  158.24    5.31
  -3  -1   1  156.15    4.60
   3  -1  -1  156.79    4.66
   3   1   1  157.21    5.23
   3  -2   1   63.94    2.32
   3  -2   1   66.11    1.86
   3  -2   1   63.91    2.04
  -3   2   1   67.83    2.03
   3   2  -1   65.15    2.26
  -3   2   1   66.17    1.93
  -3   2   1   66.10    2.37
   3   2  -1   63.79    2.32
   3  -2   1   67.01    1.92
  -3  -2  -1   64.74    2.12
  -3  -2  -1   66.04    2.07
   3  -2   1   69.41    2.48
  -3   2   1   65.33    2.07
  -3  -2  -1   65.26    2.20
  -3  -2  -1   65.37    2.07
   3  -2   1   66.53    2.12
  -3  -2   1   65.14    2.14
   3  -2  -1   62.36    2.12
   3  -2  -1   63.65    2.40
  -3  -2   1   68.00    2.10
  -3  -2   1   65.72    2.41
  -3   2  -1   64.16    2.35
   3  -2  -1   64.61    2.48
  -3  -2   1   64.46    2.02
   3   2   1   65.70    2.33
  -3  -2   1   66.55    2.25
  -3  -2   1   66.06    2.13
   3  -2  -1   66.05    2.36
  -3  -3  -1  166.92    4.87
   3  -3   1  155.15    5.47
  -3  -3  -1  165.33    5.45
  -3   3   1  155.24    4.49
   3  -3   1  159.51    4.64
   3  -3   1  161.21    4.53
  -3  -3  -1  164.78    5.27
   3  -3   1  157.48    4.65
  -3   3   1  159.39    4.78
   3  -3   1  160.98    4.86
   3  -3   1  154.50    5.28
   3  -3   1  156.57    5.18
   3  -3   1  158.06    5.60
  -3  -3  -1  162.62    4.74
  -3   3   1  154.57    5.46
   3   3  -1  148.66    5.39
  -3  -3  -1  160.50    4.74
  -3  -3  -1  165.55    4.71
  -3  -3  -1  160.99    5.30
  -3   3   1  159.92    4.66
  -3  -3   1  157.79    5.31
  -3   3  -1  159.66    5.51
  -3  -3   1  154.15    4.74
   3  -3  -1  161.97    5.20
   3  -3  -1  166.13    5.36
   3  -3  -1  162.27    5.62
  -3  -3   1  157.46    4.77
  -3  -3   1  151.86    4.73
   3  -3  -1  164.35    5.57
  -3  -3   1  156.88    5.55
  -3  -3   1  154.28    5.22
  -3  -3   1  156.63    4.86
   3  -3  -1  155.40    4.86
  -3  -4  -1   66.65    2.34
  -3  -4  -1   69.89    2.28
   3  -4   1   69.15    2.65
   3  -4   1   71.85    2.43
   3  -4   1   67.31    2.31
  -3  -4  -1   68.32    2.41
  -3  -4  -1   66.73    2.64
   3  -4   1   70.46    2.17
  -3  -4  -1   69.56    2.31
   3  -4   1   71.19    2.24
  -3  -4  -1   68.90    2.60
   3  -4   1   70.41    2.51
   3  -4   1   69.69    2.77
  -3   4   1   60.03    2.24
   3  -4   1   70.37    2.22
  -3   4  -1   69.11    2.63
  -3  -4   1   67.45    2.41
   3  -4  -1   69.94    2.44
  -3  -4   1   70.65    2.32
  -3  -4   1   66.60    2.21
   3  -4  -1   66.34    2.66
   3  -4  -1   67.73    2.49
  -3  -4   1   68.09    2.68
  -3  -4   1   70.87    2.43
   3  -4  -1   67.33    2.39
   3  -4  -1   68.96    2.70
  -3  -4   1   72.68    2.39
  -3  -4   1   68.97    2.35
   3  -4  -1   68.92    2.77
  -3  -4   1   69.12    2.60
  -3  -5  -1   53.20    2.08
   3  -5   1   55.83    1.90
  -3  -5  -1   53.28    2.32
  -3  -5  -1   52.18    2.09
  -3  -5  -1   55.31    2.25
  -3  -5  -1   52.45    2.05
   3  -5   1   57.44    2.43
   3  -5   1   55.66    2.35
   3  -5   1   55.69    2.14
   3  -5   1   55.65    1.97
   3  -5   1   52.10    1.80
   3  -5   1   58.09    2.16
  -3  -5  -1   54.94    2.01
  -3  -5   1   54.58    2.30
   3  -5  -1   50.77    2.26
   3  -5  -1   51.53    1.78
  -3  -5   1   56.26    2.07
  -3   5  -1   51.94    1.95
  -3  -5   1   55.08    2.02
  -3  -5   1   58.67    2.06
  -3  -5   1   55.73    1.85
   3  -5  -1   53.71    2.37
   3   5   1   51.03    1.79
   3  -5  -1   53.15    2.12
   3  -5  -1   51.53    2.02
   3  -5  -1   54.20    2.41
  -3  -5   1   54.77    2.30
  -3  -5   1   54.72    2.06
  -3   5  -1   54.76    2.29
  -3  -5   1   57.72    2.14
  -3  -6  -1   11.39    0.99
   3  -6   1   12.59    0.74
   3  -6   1   12.54    1.03
  -3  -6  -1   10.89    0.83
  -3  -6  -1   11.71    0.85
  -3  -6  -1   11.08    0.82
   3  -6   1   13.88    1.05
  -3  -6  -1   10.15    0.82
  -3  -6  -1    9.24    0.76
   3  -6   1   15.20    0.96
   3  -6   1   13.05    0.68
  -3  -6   1   14.32    0.68
  -3  -6   1   14.31    0.88
   3  -6  -1   10.04    0.61
  -3  -6   1   13.04    0.84
  -3  -6   1   13.80    0.71
   3  -6  -1    9.63    0.74
   3  -6  -1   11.05    0.98
   3   6   1   12.30    0.67
   3  -6  -1   11.77    1.00
  -3  -6   1   12.67    1.00
  -3  -6   1   13.47    0.96
  -3  -6   1   13.18    0.84
   3  -6  -1   10.36    0.86
  -3  -6   1   14.11    0.93
  -3  -6   1   13.26    0.90
  -3   6  -1   10.36    0.68
   3  -6  -1   11.40    0.88
  -3  -7  -1    2.97    0.60
  -3  -7  -1    2.72    0.55
  -3  -7  -1    3.09    0.63
  -3   7   1    4.66    0.50
  -3  -7  -1    2.56    0.66
   3  -7   1    5.03    0.73
   3  -7   1    4.59    0.82
  -3  -7  -1    3.41    0.63
   3  -7   1    4.38    0.51
  -3  -7  -1    3.52    0.47
   3  -7   1    3.63    0.70
  -3  -7  -1    3.28    0.55
   3  -7   1    3.62    0.46
  -3  -7   1    4.62    0.52
  -3  -7   1    4.24    0.64
   3   7   1    4.55    0.49
   3  -7  -1    2.82    0.56
   3  -7  -1    3.00    0.66
  -3  -7   1    4.15    0.66
  -3  -7   1    4.44    0.58
   3  -7  -1    3.02    0.49
  -3  -7   1    4.26    0.63
   3  -7  -1    3.41    0.42
   3  -7  -1    2.41    0.58
   3  -8   1    8.38    0.57
   3  -8   1    8.33    0.64
  -3  -8  -1    7.86    0.55
   3  -8   1    6.87    0.89
   3   8  -1    6.83    0.55
  -3  -8  -1    7.57    0.62
   3   8  -1    7.58    0.48
  -3  -8  -1    7.04    0.84
  -3   8   1    9.00    0.56
  -3   8   1    9.23    0.54
   3  -8   1    8.12    0.66
  -3   8   1    9.22    0.63
  -3   8  -1    6.64    0.53
   3  -8  -1    6.88    0.91
  -3  -8   1    9.21    0.82
  -3   8  -1    7.91    0.61
  -3  -8   1    8.45    0.65
   3   8   1    7.81    0.60
   3  -8  -1    6.83    0.71
  -3  -8   1    8.24    0.57
   3   8   1    7.92    0.63
   3   8   1    7.41    0.56
   3  -8  -1    6.85    0.59
  -3   9   1    0.23    0.22
   3  -9   1    0.26    0.24
  -3   9   1    0.09    0.16
  -3  -9  -1    0.23    0.20
   3  -9   1    0.65    0.26
   3  -9   1   -0.06    0.18
   3   9  -1    0.05    0.20
  -3  -9  -1    0.22    0.24
  -3  -9  -1    0.45    0.36
  -3   9   1    0.15    0.20
   3   9  -1    0.35    0.14
  -3   9  -1    0.27    0.22
   3   9   1    0.07    0.23
  -3  -9   1   -0.13    0.29
  -3   9  -1    0.51    0.22
  -3  -9   1    0.20    0.21
   3   9   1    0.25    0.20
   3  -9  -1    0.20    0.30
  -3  -9   1    0.09    0.19
   3  -9  -1    0.54    0.24
  -3 -10  -1    5.57    0.69
   3  10  -1    5.35    0.46
   3 -10   1    4.24    0.50
  -3 -10  -1    5.51    0.53
   3 -10   1    5.19    0.47
  -3 -10  -1    6.06    0.46
  -3  10   1    5.15    0.47
   3 -10   1    5.89    0.54
  -3 -10   1    5.75    0.54
   3  10   1    5.33    0.46
  -3 -10   1    5.25    0.49
  -3  10  -1    5.23    0.41
  -3  10  -1    5.33    0.45
   3 -10  -1    5.66    0.53
  -3  11   1    2.08    0.28
   3 -11   1    2.51    0.30
  -3 -11   1    2.41    0.36
  -3 -11   1    2.11    0.27
   3 -11  -1    1.77    0.31
   3  11   1    2.29    0.30
  -3  11  -1    2.11    0.28
   3 -12   1    0.06    0.09
  -3 -12   1    0.08    0.13
   3 -12  -1    0.21    0.13
  -3   0   2    0.81    0.17
  -3   0   2    1.16    0.18
   3   0  -2    1.02    0.22
   3   0   2    1.23    0.20
  -3   0   2    1.20    0.18
  -3   1   2  268.35    7.49
   3   1  -2  266.54    8.77
  -3   1   2  258.26    7.66
   3  -1   2  262.41    7.61
  -3   1   2  259.10    8.75
   3  -1   2  271.52    8.81
   3   1  -2  258.15    8.83
  -3   1   2  259.38    7.66
   3  -1   2  259.84    8.26
   3   1  -2  256.07    8.16
   3  -1   2  261.54    7.26
  -3   1   2  262.88    7.36
   3  -1   2  261.39    7.43
   3  -1   2  254.38    7.46
  -3  -1  -2  265.37    7.42
  -3  -1   2  264.89    7.59
   3  -1  -2  262.29    8.87
  -3  -1   2  267.69    7.68
  -3  -1   2  266.00    7.50
  -3  -1   2  261.32    8.82
   3   1   2  262.04    8.71
  -3  -1   2  260.54    7.50
   3  -1  -2  265.37    8.85
   3   1   2  271.79    7.46
   3   1   2  246.95    8.28
   3   1   2  255.20    7.58
   3  -1  -2  261.04    8.27
   3   1   2  268.89    7.60
   3  -2   2  143.47    4.97
  -3   2   2  139.31    4.30
   3  -2   2  137.64    4.63
  -3   2   2  137.93    3.97
   3   2  -2  145.13    4.90
  -3  -2  -2  145.87    4.30
   3  -2   2  138.10    4.63
  -3  -2  -2  145.29    4.20
  -3  -2  -2  148.43    4.84
   3   2  -2  141.88    4.54
   3  -2   2  137.58    4.06
   3  -2   2  138.51    3.96
   3  -2   2  139.91    4.19
   3  -2   2  141.69    4.29
  -3  -2  -2  142.92    4.16
  -3   2   2  139.97    4.20
  -3  -2  -2  144.92    4.24
   3  -2  -2  145.11    4.93
  -3  -2   2  142.43    4.83
  -3  -2   2  139.04    4.25
   3   2   2  138.86    4.69
  -3   2  -2  137.80    4.84
   3  -2  -2  144.31    4.70
  -3  -2   2  138.15    4.32
  -3  -2   2  136.65    4.21
   3  -2  -2  145.74    4.70
  -3  -2   2  136.12    4.91
   3  -2  -2  142.34    5.02
  -3  -2   2  141.44    4.23
   3  -2  -2  142.09    4.35
   3   3  -2   16.28    0.69
  -3  -3  -2   16.60    0.72
   3  -3   2   13.20    0.73
  -3  -3  -2   17.71    0.88
  -3   3   2   12.50    0.71
  -3  -3  -2   17.59    0.79
  -3  -3  -2   16.91    0.72
   3   3  -2   17.04    0.77
   3  -3   2   12.51    0.77
   3  -3   2   12.72    0.54
  -3   3   2   12.10    0.68
   3  -3   2   12.18    0.81
   3  -3   2   13.03    0.69
  -3  -3  -2   16.82    0.70
   3  -3   2   13.06    0.76
  -3  -3   2   13.27    0.72
   3  -3  -2   17.49    0.95
  -3  -3   2   12.51    0.71
   3  -3  -2   16.40    0.81
  -3  -3   2   12.72    0.70
  -3  -3   2   12.14    0.66
   3  -3  -2   17.64    0.86
  -3  -3   2   14.21    0.79
  -3   3  -2   16.75    0.77
  -3  -3   2   12.05    0.70
  -3  -3   2   12.16    0.74
   3  -3  -2   16.99    0.81
  -3  -3   2   11.81    0.71
   3  -3  -2   17.45    0.90
   3  -4   2   12.97    0.78
   3  -4   2   14.31    0.91
  -3  -4  -2   12.34    0.85
   3  -4   2   13.66    0.83
   3  -4   2   14.13    0.73
  -3  -4  -2   12.99    0.69
  -3  -4  -2   12.39    0.66
   3   4  -2   11.84    0.62
   3  -4   2   12.42    0.58
  -3  -4  -2   12.57    0.76
   3  -4   2   13.78    0.81
  -3   4   2   14.12    0.77
  -3  -4  -2   13.39    0.72
  -3  -4  -2   12.23    0.74
  -3   4   2   14.57    0.76
  -3  -4   2   13.86    0.80
  -3  -4   2   13.27    0.64
  -3   4  -2   12.02    0.74
   3  -4  -2   12.57    0.78
  -3  -4   2   14.15    0.82
   3  -4  -2   11.93    0.84
   3  -4  -2   12.79    0.78
  -3  -4   2   13.02    0.72
  -3  -4   2   14.07    0.80
  -3  -4   2   14.30    0.74
   3  -4  -2   12.57    0.79
   3  -4  -2   12.41    0.89
  -3  -4   2   13.69    0.78
  -3  -4   2   13.63    0.80
   3  -4  -2   12.84    0.73
   3   5  -2    5.32    0.43
  -3  -5  -2    5.28    0.52
   3  -5   2    6.47    0.61
  -3  -5  -2    5.78    0.65
   3  -5   2    6.66    0.67
   3  -5   2    6.67    0.60
   3  -5   2    6.53    0.64
   3  -5   2    6.77    0.54
   3  -5   2    6.66    0.40
  -3  -5  -2    5.58    0.51
   3  -5   2    6.08    0.44
  -3  -5  -2    5.51    0.57
  -3  -5  -2    5.88    0.53
   3  -5  -2    6.10    0.60
   3  -5  -2    5.43    0.39
   3  -5  -2    5.37    0.54
  -3  -5   2    6.12    0.60
   3  -5  -2    5.54    0.74
   3  -5  -2    5.32    0.61
  -3  -5   2    6.50    0.60
   3  -5  -2    6.17    0.57
  -3  -5   2    6.43    0.61
  -3   5  -2    4.96    0.50
  -3   5  -2    5.21    0.52
  -3  -5   2    6.10    0.55
   3   5   2    5.35    0.42
  -3  -5   2    6.60    0.56
  -3  -5   2    5.41    0.43
  -3  -5   2    6.16    0.61
   3  -5  -2    5.50    0.53
   3  -5  -2    5.12    0.57
  -3  -5   2    6.50    0.60
  -3  -5   2    5.96    0.44
  -3  -6  -2   45.12    1.85
  -3  -6  -2   43.32    2.14
  -3  -6  -2   41.52    1.89
  -3   6   2   40.29    1.55
  -3  -6  -2   42.82    1.88
   3  -6   2   43.16    2.07
   3  -6   2   39.85    2.11
  -3  -6  -2   44.20    1.96
   3  -6   2   39.75    1.88
   3  -6   2   41.74    1.56
   3  -6  -2   42.85    1.81
  -3  -6   2   41.79    1.88
  -3  -6   2   40.64    1.81
   3  -6  -2   45.40    2.17
   3  -6  -2   44.43    1.85
   3  -6  -2   43.46    1.94
  -3  -6   2   40.17    1.79
   3  -6  -2   45.36    2.05
   3   6   2   40.52    1.54
   3  -6  -2   44.66    1.81
  -3   6  -2   42.76    1.70
  -3  -6   2   41.49    1.85
  -3  -6   2   41.33    1.55
  -3  -6   2   40.59    1.73
   3  -6  -2   44.48    2.19
   3   6   2   40.00    1.54
   3  -6  -2   43.35    1.52
  -3  -6   2   41.06    1.57
  -3  -7  -2    6.48    0.75
  -3  -7  -2    8.21    0.96
   3  -7   2    6.20    0.93
   3  -7   2    6.07    0.80
   3  -7   2    7.31    0.58
  -3   7   2    7.00    0.56
  -3  -7  -2    6.84    0.55
  -3  -7  -2    6.40    0.82
  -3  -7  -2    6.39    0.74
  -3  -7   2    6.61    0.55
   3  -7  -2    7.35    0.52
  -3  -7   2    6.30    0.83
  -3   7  -2    6.28    0.58
   3  -7  -2    6.94    0.79
   3  -7  -2    6.68    0.68
  -3  -7   2    7.10    0.66
   3  -7  -2    7.17    0.90
   3  -7  -2    6.35    1.00
  -3  -7   2    7.00    0.81
   3   7   2    6.96    0.55
  -3   8   2   68.41    2.23
  -3   8   2   65.82    2.01
   3  -8   2   69.41    2.39
   3   8  -2   66.49    2.13
  -3   8   2   68.87    2.38
   3  -8   2   64.37    2.84
  -3  -8  -2   69.47    2.75
   3  -8   2   66.47    2.26
   3  -8   2   70.32    2.08
  -3   8   2   66.98    2.02
   3   8  -2   65.11    2.12
  -3  -8  -2   67.15    2.35
  -3  -8   2   67.59    2.56
   3   8   2   69.18    2.40
  -3   8  -2   63.38    2.24
   3  -8  -2   66.81    2.31
  -3  -8   2   70.23    2.39
   3  -8  -2   64.26    2.88
   3  -8  -2   64.70    2.63
  -3   8  -2   68.55    2.00
   3   8   2   68.43    1.92
   3   8   2   68.78    2.25
   3   8   2   66.11    2.15
  -3  -8   2   63.78    2.05
  -3  -9  -2   14.71    1.10
   3  -9   2   13.70    0.72
  -3   9   2   12.79    0.71
   3   9  -2   15.11    0.78
   3  -9   2   14.55    0.86
  -3  -9  -2   14.61    0.86
   3   9  -2   15.09    0.65
   3  -9   2   14.52    0.81
  -3   9   2   14.37    0.79
  -3   9  -2   14.17    0.77
   3   9   2   13.24    0.83
   3  -9  -2   14.49    0.97
   3   9   2   13.33    0.68
   3   9   2   14.38    0.77
  -3  -9   2   14.56    0.86
  -3  -9   2   13.69    0.74
   3  -9  -2   15.17    0.84
  -3   9  -2   14.43    0.73
   3   9   2   14.14    0.80
  -3  10   2    0.38    0.20
   3 -10   2    0.74    0.23
   3 -10   2    0.94    0.24
  -3 -10  -2    0.89    0.41
  -3 -10  -2    1.56    0.32
   3 -10   2    0.59    0.25
   3  10  -2    0.46    0.20
  -3  10   2    0.85    0.23
  -3 -10   2    0.25    0.18
   3  10   2    0.63    0.23
  -3 -10   2    0.67    0.27
  -3 -10   2    1.13    0.29
   3 -10  -2    0.61    0.25
   3  10   2    0.48    0.20
  -3  10  -2    0.75    0.22
   3  10   2    0.82    0.25
  -3  10  -2    0.92    0.24
   3 -11   2   11.94    0.55
  -3  11   2   11.14    0.54
   3 -11   2   11.17    0.53
   3  11   2   11.57    0.54
  -3 -11   2   12.14    0.57
  -3 -11   2   11.81    0.62
   3 -11  -2   11.17    0.66
  -3  11  -2   11.01    0.54
   3  11   2   11.25    0.58
   3 -12  -2    4.90    0.33
  -3 -12   2    5.14    0.30
   3   0   3    0.10    0.13
   3   0   3    0.11    0.10
   3   0  -3    0.21    0.18
   3   0   3    0.20    0.16
  -3   0   3    0.09    0.12
  -3   0   3   -0.04    0.13
   3   0   3    0.09    0.12
   3   0   3    0.06    0.15
  -3   0   3    0.17    0.15
  -3   0   3    0.09    0.13
   3   0  -3    0.19    0.13
   3   0  -3    0.11    0.09
   3   0  -3    0.19    0.18
   3   0   3    0.16    0.09
   3   0   3   -0.13    0.11
   3   1  -3   99.95    3.62
   3  -1   3  102.91    3.15
   3  -1   3  102.21    3.46
   3  -1   3  104.36    3.70
   3   1  -3  103.72    3.71
   3   1  -3   96.39    3.21
  -3   1   3  101.78    3.18
  -3   1   3  102.43    3.01
   3  -1   3  101.32    3.19
  -3   1   3   99.75    3.24
  -3   1   3  100.91    3.25
   3  -1   3  104.45    3.04
   3  -1   3   99.11    3.38
   3  -1   3  104.08    2.97
   3   1   3  104.46    3.46
   3   1   3  101.29    3.09
  -3  -1   3  102.98    3.20
   3   1   3  100.09    3.19
   3   1   3  101.93    3.10
   3  -1  -3  103.68    3.80
  -3  -1   3  104.00    3.26
   3  -1  -3   99.89    3.61
   3  -1  -3   99.16    3.39
  -3  -1   3  101.70    3.17
   3   1   3  105.77    3.17
   3  -1  -3   99.73    3.55
   3   1   3  101.55    3.64
  -3  -1   3   99.58    3.16
   3  -2   3   10.15    0.71
   3  -2   3    9.86    0.65
  -3   2   3   11.27    0.67
  -3   2   3   10.22    0.40
   3  -2   3   10.10    0.59
  -3   2   3   10.95    0.63
   3  -2   3   10.42    0.45
   3  -2   3   11.56    0.63
  -3   2   3   10.18    0.64
   3  -2   3   10.49    0.61
  -3  -2  -3   13.40    0.65
  -3  -2  -3   12.25    0.57
   3   2  -3   13.15    0.67
   3  -2   3   10.41    0.48
   3  -2  -3   12.41    0.82
  -3  -2   3   10.34    0.63
   3  -2  -3   13.11    0.65
  -3  -2   3    9.86    0.56
   3   2   3   10.24    0.60
   3   2   3   10.01    0.60
   3   2   3   10.23    0.67
  -3  -2   3   10.67    0.66
  -3  -2   3    9.97    0.48
   3  -2  -3   13.01    0.69
  -3  -2   3   10.71    0.63
  -3  -2   3   10.26    0.63
   3  -2  -3   12.85    0.76
  -3  -2   3   10.38    0.58
  -3  -2   3   11.00    0.68
   3  -3   3    9.66    0.51
   3  -3   3    8.39    0.61
   3  -3   3    9.34    0.66
  -3  -3  -3   12.69    0.60
  -3  -3  -3   12.92    0.67
  -3   3   3    9.29    0.64
  -3  -3  -3   11.98    0.67
  -3  -3  -3   12.37    0.71
   3   3  -3   12.13    0.63
  -3  -3  -3   12.12    0.76
   3  -3   3    9.40    0.63
  -3   3   3    9.11    0.62
   3  -3   3    9.37    0.73
   3  -3   3    9.59    0.63
   3   3  -3   12.17    0.69
   3   3   3    9.21    0.64
  -3  -3   3    9.92    0.67
  -3  -3   3   10.03    0.66
   3  -3  -3   12.70    0.85
   3  -3  -3   11.74    0.73
  -3   3  -3   11.68    0.64
   3  -3  -3   12.40    0.76
  -3  -3   3    8.77    0.52
  -3  -3   3   10.32    0.62
  -3  -3   3    9.49    0.56
   3  -3  -3   12.73    0.78
  -3  -3   3    9.44    0.65
  -3  -3   3    9.83    0.65
   3  -3  -3   13.05    0.69
  -3  -3   3    8.79    0.63
  -3  -4  -3   22.55    1.22
  -3  -4  -3   21.62    1.03
   3   4  -3   22.15    1.09
  -3   4   3   20.86    1.06
   3  -4   3   19.78    0.85
   3  -4   3   20.41    1.07
   3  -4   3   20.84    1.10
  -3  -4  -3   22.53    1.07
   3  -4   3   21.11    1.04
  -3   4   3   19.35    1.02
  -3  -4  -3   21.56    1.08
   3   4  -3   20.95    0.96
   3  -4   3   21.88    1.25
  -3  -4  -3   22.41    0.92
   3  -4   3   21.52    1.09
  -3  -4   3   20.72    1.08
   3  -4  -3   22.32    1.21
  -3  -4   3   20.17    1.05
  -3  -4   3   20.90    1.13
   3  -4  -3   22.56    1.11
   3  -4  -3   21.98    1.29
   3  -4  -3   22.87    1.14
   3  -4  -3   20.90    1.00
  -3  -4   3   19.10    0.89
  -3  -4   3   19.48    0.92
  -3   4  -3   21.10    0.98
  -3  -4   3   19.30    1.06
  -3   4  -3   21.44    1.07
   3  -4  -3   22.16    1.13
  -3  -4   3   19.36    0.99
   3  -5   3   49.57    1.97
   3  -5   3   50.41    2.17
   3  -5   3   48.05    1.74
  -3  -5  -3   55.14    2.11
   3  -5   3   49.44    2.08
   3  -5   3   50.61    2.38
   3  -5   3   50.62    2.14
  -3  -5  -3   55.28    2.37
  -3   5   3   50.20    2.07
  -3  -5  -3   49.87    2.04
  -3  -5  -3   52.72    2.11
   3  -5   3   49.90    1.77
   3   5  -3   52.84    1.88
  -3  -5  -3   56.01    2.06
  -3   5  -3   52.22    1.96
  -3  -5   3   49.13    1.73
  -3  -5   3   49.63    2.08
   3  -5  -3   52.56    2.33
   3  -5  -3   54.25    2.16
   3  -5  -3   51.86    2.22
  -3  -5   3   49.65    1.90
  -3  -5   3   51.42    2.01
  -3   5  -3   50.64    2.18
   3  -5  -3   52.63    2.03
   3   5   3   49.03    1.73
   3  -5  -3   50.29    2.41
   3  -5  -3   53.55    2.02
  -3  -5   3   49.29    1.82
  -3  -5   3   50.42    2.04
  -3  -5   3   51.58    2.08
   3  -6   3   39.38    1.71
  -3  -6  -3   33.69    1.94
   3  -6   3   40.55    1.48
  -3  -6  -3   36.50    1.75
  -3   6   3   37.79    1.46
   3  -6   3   38.46    1.81
   3  -6   3   38.42    1.42
  -3  -6  -3   35.25    1.76
   3  -6   3   39.88    2.06
  -3  -6  -3   37.90    1.72
  -3  -6  -3   33.64    1.69
   3  -6  -3   36.65    1.99
  -3   6  -3   38.27    1.61
   3  -6  -3   37.20    1.81
  -3  -6   3   38.81    1.72
   3  -6  -3   38.65    1.88
  -3  -6   3   35.99    1.76
  -3  -6   3   38.62    1.55
  -3  -6   3   37.03    1.42
   3   6   3   39.57    1.47
  -3  -6   3   36.86    1.74
   3  -6  -3   35.54    1.73
   3  -6  -3   36.75    2.03
   3  -6  -3   35.96    1.70
   3   6   3   38.17    1.43
  -3  -6   3   36.59    1.47
  -3  -6   3   37.75    1.76
   3  -6  -3   37.39    1.38
   3  -6  -3   37.16    1.66
  -3  -7  -3   17.07    1.19
  -3  -7  -3   17.72    0.91
   3  -7   3   18.20    0.93
  -3  -7  -3   15.99    1.21
   3  -7   3   17.73    1.25
  -3   7   3   18.55    0.95
  -3  -7   3   19.03    1.21
  -3   7  -3   18.17    0.98
   3  -7  -3   17.93    1.26
  -3  -7   3   19.01    0.93
   3   7   3   18.41    0.94
  -3  -7   3   18.66    0.94
   3  -7  -3   16.51    1.21
  -3  -7   3   19.34    1.30
   3  -7  -3   16.93    1.09
  -3  -7   3   19.21    0.99
   3  -7  -3   17.09    0.86
   3  -8   3   23.02    1.13
   3   8  -3   22.68    1.00
   3  -8   3   22.43    1.51
  -3   8   3   23.11    1.05
  -3  -8  -3   23.19    1.11
  -3   8   3   25.06    1.16
   3  -8   3   23.16    1.01
   3  -8   3   23.33    0.99
  -3  -8  -3   23.06    1.39
   3   8  -3   22.97    1.01
  -3   8   3   24.17    0.98
  -3   8  -3   22.95    0.94
   3  -8  -3   19.85    1.45
   3   8   3   23.29    0.87
  -3  -8   3   23.56    1.16
   3  -8  -3   20.70    1.04
   3   8   3   23.70    1.14
   3   8   3   23.85    1.08
   3  -8  -3   23.55    1.32
  -3   8  -3   22.92    1.10
  -3  -8   3   25.05    1.14
  -3  -8   3   24.16    1.02
   3   8   3   23.39    1.03
  -3  -9  -3   13.31    0.82
   3  -9   3   13.71    0.86
   3  -9   3   14.51    0.74
  -3   9   3   14.35    0.72
   3  -9   3   14.58    0.75
   3   9  -3   13.64    0.68
  -3   9   3   14.25    0.79
  -3   9   3   15.26    0.86
  -3  -9  -3   13.36    1.09
   3   9  -3   14.05    0.75
  -3  -9   3   14.18    0.85
  -3   9  -3   14.61    0.81
   3   9   3   14.15    0.80
  -3  -9   3   13.86    0.82
   3   9   3   14.91    0.78
   3   9   3   14.20    0.66
   3  -9  -3   13.81    0.80
   3   9   3   13.86    0.84
   3  -9  -3   12.01    0.94
  -3  -9   3   14.98    0.77
  -3   9  -3   13.51    0.71
  -3  10   3    3.26    0.40
   3 -10   3    3.33    0.45
   3 -10   3    3.12    0.33
   3 -10   3    3.64    0.40
  -3 -10  -3    3.82    0.45
  -3  10   3    3.91    0.38
   3  10  -3    3.56    0.28
   3  10   3    3.63    0.46
  -3 -10   3    3.88    0.46
   3  10   3    3.44    0.41
  -3  10  -3    3.70    0.38
  -3 -10   3    3.46    0.38
  -3 -10   3    3.37    0.45
   3  10   3    3.71    0.43
   3  10   3    3.04    0.32
  -3  10  -3    2.89    0.34
   3 -11   3    1.38    0.21
  -3  11   3    1.43    0.20
  -3 -11   3    1.45    0.24
   3  11   3    1.32    0.23
  -3  11  -3    1.12    0.22
   3  11   3    0.93    0.20
  -3  11  -3    1.01    0.15
   3 -11  -3    1.17    0.20
  -3 -11   3    1.18    0.22
   3   0   4    0.49    0.16
   3   0   4    0.43    0.14
   3   0  -4    0.34    0.15
  -3   0   4    0.25    0.16
   3   0   4    0.37    0.19
   3   0  -4    0.31    0.21
  -3   0   4    0.22    0.18
   3   0  -4    0.02    0.19
  -3   0   4    0.30    0.20
   3   0   4    0.37    0.18
   3   0   4    0.19    0.14
   3   0  -4    0.22    0.10
   3   0   4    0.37    0.22
  -3   0   4    0.21    0.15
   3   0   4    0.10    0.12
   3  -1   4   24.63    1.03
   3  -1   4   24.53    1.16
   3  -1   4   24.18    1.22
   3   1  -4   23.44    1.11
   3   1  -4   24.30    1.26
   3  -1   4   23.46    1.04
   3  -1   4   24.94    0.96
   3  -1   4   24.52    0.93
  -3   1   4   24.62    1.09
  -3   1   4   24.57    0.92
   3  -1   4   23.03    0.91
   3  -1   4   24.44    1.07
  -3   1   4   23.61    1.10
  -3   1   4   24.48    1.12
   3   1   4   24.38    1.12
  -3  -1   4   25.88    1.13
   3  -1  -4   23.55    1.23
   3   1   4   23.84    1.09
   3   1   4   25.27    1.01
   3   1   4   24.69    1.09
  -3  -1   4   24.76    1.10
   3   1   4   24.23    1.00
  -3  -1   4   24.12    1.07
   3   1   4   25.28    1.05
   3   1   4   23.34    1.20
   3  -1  -4   22.76    1.00
  -3  -1   4   24.18    1.05
   3  -1  -4   22.86    1.29
   3  -1  -4   24.81    1.10
  -3  -1   4   24.91    1.21
  -3   2   4   11.12    0.73
  -3  -2  -4   11.19    0.72
   3  -2   4   11.80    0.82
   3   2  -4   11.26    0.70
   3  -2   4   11.06    0.56
  -3  -2  -4   11.28    0.77
   3  -2   4   11.25    0.68
  -3  -2  -4   11.84    0.63
  -3   2   4   11.05    0.73
  -3   2   4   11.51    0.72
   3  -2   4   11.28    0.62
   3  -2   4   11.46    0.69
   3  -2   4   11.10    0.74
   3   2  -4   10.71    0.65
  -3  -2   4   11.07    0.67
   3   2   4   12.16    0.71
   3   2   4   11.38    0.69
   3  -2  -4   11.80    0.81
   3  -2  -4   11.80    0.86
  -3  -2   4   10.97    0.57
   3  -2  -4   11.38    0.69
  -3  -2   4   11.13    0.70
  -3  -2   4   10.97    0.70
  -3  -2   4   11.38    0.78
  -3  -2   4   11.33    0.70
  -3  -2   4   11.34    0.78
   3   2   4   11.36    0.70
   3  -2  -4   11.08    0.66
   3   2   4   11.67    0.68
  -3   2  -4   11.44    0.58
   3  -3   4  101.01    3.80
  -3   3   4  100.36    3.34
  -3  -3  -4   94.64    3.67
  -3  -3  -4   96.73    3.27
   3  -3   4   97.38    3.28
   3   3  -4   97.19    3.63
   3  -3   4   96.13    3.06
   3  -3   4   96.62    3.51
  -3  -3  -4   94.80    3.20
  -3   3   4   95.54    3.24
   3  -3   4  100.18    3.25
  -3  -3  -4   94.82    3.54
  -3   3  -4   93.28    3.54
  -3  -3   4   99.54    3.24
  -3  -3   4   97.67    3.31
   3  -3  -4   97.57    3.54
  -3  -3   4   97.89    3.24
   3  -3  -4   96.20    3.35
   3  -3  -4   95.51    3.59
   3  -3  -4   98.32    3.57
   3   3   4   97.92    3.30
  -3  -3   4   98.83    3.68
  -3  -3   4   95.22    3.08
  -3  -3   4   99.39    3.53
  -3  -3   4   96.70    3.27
   3  -3  -4   95.93    3.87
   3  -4   4   16.13    0.98
   3   4  -4   14.58    0.81
  -3  -4  -4   15.41    1.02
  -3   4   4   15.50    0.92
  -3   4   4   14.63    0.94
  -3  -4  -4   13.99    0.89
   3  -4   4   15.64    0.92
  -3  -4  -4   13.10    0.89
   3  -4   4   15.68    1.07
  -3  -4  -4   14.27    0.90
   3  -4   4   16.81    0.97
   3   4  -4   14.85    0.91
   3  -4   4   15.36    0.73
   3  -4   4   16.03    0.72
   3  -4  -4   15.37    1.01
   3  -4  -4   14.83    1.10
  -3  -4   4   15.00    0.75
  -3  -4   4   14.93    0.91
  -3  -4   4   16.05    0.90
   3  -4  -4   14.67    0.89
  -3  -4   4   16.07    1.00
   3  -4  -4   14.62    0.99
   3  -4  -4   14.46    0.97
   3   4   4   14.47    0.68
  -3   4  -4   14.46    0.88
  -3  -4   4   14.91    0.95
  -3   4  -4   13.87    0.83
   3  -4  -4   13.47    0.86
  -3  -4   4   14.47    0.93
   3  -5   4   12.99    0.95
  -3  -5  -4   11.60    0.84
   3  -5   4   12.91    0.93
   3  -5   4   12.38    0.88
   3  -5   4   12.07    1.02
  -3  -5  -4   11.02    0.86
  -3   5   4   11.70    0.68
  -3  -5  -4   11.55    0.74
   3  -5   4   12.14    0.65
   3  -5   4   12.80    0.67
  -3  -5  -4   11.82    0.88
   3   5  -4   12.32    0.74
  -3   5   4   11.65    0.90
  -3  -5  -4   12.25    1.00
  -3  -5   4   13.04    0.94
  -3  -5   4   11.90    0.85
   3  -5  -4   11.88    1.02
  -3  -5   4   12.23    0.92
   3  -5  -4   11.86    0.85
  -3  -5   4   11.79    0.69
  -3   5  -4   11.07    0.76
  -3  -5   4   11.59    0.88
   3  -5  -4   11.96    0.94
  -3   5  -4   12.55    0.87
   3   5   4   12.04    0.67
   3  -5  -4   11.64    0.81
   3  -5  -4   11.50    0.87
   3  -5  -4   12.07    0.99
   3   5   4   12.28    0.65
  -3  -6  -4    8.54    0.84
  -3  -6  -4   10.05    1.18
   3  -6   4    9.56    0.61
   3   6  -4    9.25    0.67
  -3  -6  -4    8.89    0.74
  -3  -6  -4    9.32    0.86
  -3  -6  -4    8.03    0.79
  -3   6   4    9.23    0.63
   3  -6   4    7.92    0.95
   3  -6   4    8.48    0.85
   3  -6   4    8.75    0.60
   3  -6   4    9.66    0.85
  -3  -6   4    9.98    0.66
   3  -6  -4    7.48    0.90
  -3  -6   4    9.03    0.91
   3   6   4    9.38    0.63
  -3  -6   4    9.91    0.92
   3  -6  -4    8.65    0.84
   3  -6  -4   10.13    0.86
   3   6   4    9.66    0.61
  -3   6  -4    9.47    0.77
   3  -6  -4    8.81    1.14
  -3   6  -4    8.54    0.81
  -3  -6   4    9.05    0.90
   3  -6  -4    9.04    0.96
  -3  -6   4   10.15    0.84
   3  -6  -4    9.96    0.83
   3  -6  -4    8.66    0.94
  -3   7   4   25.44    1.12
  -3  -7  -4   24.26    1.13
  -3   7   4   26.36    1.02
   3  -7   4   27.73    1.08
   3  -7   4   24.97    1.01
  -3  -7  -4   25.67    1.62
   3   7  -4   24.11    1.04
   3  -7   4   25.59    1.17
   3  -7   4   28.32    1.01
  -3   7   4   26.79    1.20
  -3  -7  -4   22.44    1.52
  -3   7   4   26.32    1.10
   3  -7   4   24.68    1.54
  -3   7   4   25.80    0.96
   3  -7   4   27.19    1.18
   3  -7  -4   23.74    1.54
   3   7   4   25.66    1.12
  -3  -7   4   25.85    1.06
   3   7   4   25.84    0.87
  -3  -7   4   26.53    1.17
  -3  -7   4   25.52    1.48
  -3  -7   4   25.61    1.59
  -3  -7   4   28.30    1.24
  -3   7  -4   24.86    1.30
   3  -7  -4   23.02    1.51
  -3  -7   4   26.89    1.16
   3   7   4   26.21    1.08
   3  -7  -4   25.49    1.39
   3  -7  -4   24.12    1.55
   3   7   4   26.50    1.20
   3  -8   4   18.94    0.84
   3  -8   4   19.61    1.00
   3  -8   4   17.93    1.36
  -3   8   4   18.53    0.79
   3   8  -4   21.27    0.92
  -3  -8  -4   19.43    0.99
  -3   8   4   17.62    0.83
   3   8  -4   20.09    0.93
   3  -8   4   18.41    0.88
  -3   8   4   17.96    0.98
  -3   8   4   18.72    0.93
   3  -8  -4   17.47    1.38
   3   8   4   17.64    0.92
  -3  -8   4   18.78    0.97
   3   8   4   18.41    0.92
  -3   8  -4   20.42    0.86
   3   8   4   19.12    1.01
  -3   8  -4   19.34    1.07
   3  -8  -4   20.56    1.24
   3   8   4   18.28    0.73
  -3  -8   4   17.83    1.00
  -3  -8   4   19.95    0.95
  -3  -8   4   17.91    0.87
  -3   9   4    6.71    0.50
   3   9  -4    7.38    0.51
   3  -9   4    6.23    0.45
   3  -9   4    7.27    0.61
  -3  -9  -4    6.35    0.57
  -3   9   4    6.57    0.53
  -3  -9  -4    7.39    0.88
  -3   9   4    6.46    0.57
  -3   9   4    6.49    0.50
   3  -9   4    6.45    0.51
   3   9   4    6.30    0.53
  -3   9  -4    7.07    0.60
   3  -9  -4    7.21    0.74
  -3  -9   4    7.26    0.56
  -3  -9   4    5.01    0.49
  -3  -9   4    7.45    0.62
   3   9   4    6.33    0.42
   3   9   4    7.40    0.63
  -3   9  -4    6.94    0.51
   3   9   4    6.40    0.53
  -3 -10  -4    0.14    0.22
  -3  10   4    0.22    0.17
  -3  10   4    0.23    0.17
   3  10  -4    0.62    0.18
   3 -10   4    0.38    0.18
   3 -10   4    0.46    0.21
  -3  10   4    0.38    0.18
   3  10   4    0.39    0.14
   3  10   4    0.36    0.18
   3  10   4    0.18    0.21
   3 -10  -4    0.21    0.20
  -3  10  -4    0.33    0.20
  -3 -10   4    0.41    0.19
  -3 -10   4    0.41    0.20
  -3  10  -4    0.17    0.17
   3  10   4    0.30    0.18
   3 -11   4    6.18    0.37
  -3  11   4    5.58    0.36
  -3  11   4    5.53    0.34
  -3  11  -4    6.45    0.38
   3  11   4    6.45    0.33
   3 -11  -4    6.08    0.39
  -3  11  -4    6.13    0.34
  -3 -11   4    5.82    0.34
   3  11   4    5.93    0.39
  -3 -11   4    5.18    0.37
   3  11   4    6.19    0.40
  -3   0   5    0.02    0.19
   3   0   5    0.13    0.15
   3   0  -5    0.12    0.24
  -3   0   5   -0.01    0.15
  -3   0   5    0.24    0.18
   3   0   5   -0.04    0.16
   3   0   5    0.01    0.12
   3   0  -5    0.29    0.26
   3   0   5    0.24    0.15
   3   0   5   -0.04    0.19
   3   0  -5   -0.06    0.13
   3   0   5    0.19    0.16
   3   0   5    0.22    0.13
   3   0   5    0.49    0.27
  -3   0   5    0.18    0.19
   3  -1   5    2.39    0.30
  -3   1   5    2.90    0.45
   3   1  -5    2.85    0.52
   3  -1   5    2.99    0.38
   3  -1   5    2.91    0.48
   3  -1   5    2.68    0.43
   3  -1   5    2.35    0.46
  -3   1   5    2.79    0.45
   3  -1   5    2.37    0.39
   3   1  -5    2.19    0.37
   3  -1   5    2.77    0.36
   3   1  -5    2.82    0.41
  -3   1   5    2.52    0.43
   3   1   5    2.26    0.36
   3   1   5    2.24    0.39
   3  -1  -5    2.51    0.50
   3  -1  -5    2.99    0.40
  -3  -1   5    2.70    0.40
  -3  -1   5    2.15    0.38
  -3  -1   5    3.21    0.30
  -3  -1   5    3.02    0.51
  -3  -1   5    2.52    0.42
   3   1   5    2.22    0.44
   3   1   5    2.47    0.40
   3  -1  -5    2.88    0.54
   3   1   5    2.75    0.39
   3   1   5    2.64    0.27
   3   1   5    2.26    0.39
  -3  -1   5    2.13    0.36
   3  -2   5    8.52    0.71
  -3  -2  -5    9.13    0.75
   3  -2   5    7.96    0.63
   3  -2   5   10.21    0.82
  -3  -2  -5    8.26    0.64
   3  -2   5    7.84    0.49
   3   2  -5    8.92    0.64
  -3   2   5    9.18    0.71
  -3   2   5    7.58    0.66
   3   2  -5    7.72    0.61
  -3   2   5    8.68    0.67
   3  -2   5    8.20    0.64
  -3  -2   5    8.85    0.66
   3   2   5    8.61    0.63
   3  -2  -5    8.42    0.82
  -3  -2   5    8.02    0.63
   3  -2  -5    8.23    0.60
  -3  -2   5    8.03    0.72
   3   2   5    8.57    0.67
   3   2   5    8.04    0.63
  -3   2  -5    8.44    0.52
   3  -2  -5    8.19    0.61
   3  -2  -5    9.02    0.78
  -3  -2   5    8.01    0.67
   3   2   5    8.40    0.67
  -3  -2   5    8.49    0.51
  -3  -2   5    7.63    0.74
  -3  -2   5    8.89    0.68
   3  -3   5    4.52    0.58
   3   3  -5    5.56    0.54
   3  -3   5    3.91    0.35
  -3  -3  -5    4.39    0.56
   3  -3   5    3.15    0.49
  -3   3   5    4.58    0.61
  -3   3   5    4.05    0.56
  -3  -3  -5    5.17    0.68
   3   3  -5    5.00    0.49
   3  -3   5    3.51    0.58
   3  -3   5    4.24    0.63
  -3  -3  -5    4.38    0.59
  -3   3  -5    4.09    0.43
  -3  -3   5    4.08    0.63
  -3  -3   5    4.08    0.38
   3  -3  -5    4.75    0.47
  -3  -3   5    3.47    0.51
   3  -3  -5    5.40    0.70
  -3  -3   5    3.32    0.47
  -3  -3   5    3.95    0.58
   3  -3  -5    4.79    0.72
   3  -3  -5    4.09    0.57
   3   3   5    3.28    0.50
  -3  -3   5    4.87    0.65
   3  -3  -5    4.55    0.57
  -3  -3   5    4.30    0.60
   3   3   5    3.49    0.52
   3   4  -5   31.90    1.44
   3  -4   5   34.22    1.84
  -3   4   5   34.68    1.65
   3  -4   5   34.69    1.70
  -3  -4  -5   34.13    1.59
   3   4  -5   33.24    1.64
   3  -4   5   35.48    1.62
  -3  -4  -5   32.37    1.55
   3  -4   5   34.37    1.25
   3  -4   5   34.56    1.34
  -3   4   5   33.72    1.59
   3  -4   5   34.78    1.60
  -3  -4  -5   32.64    1.72
  -3   4   5   33.45    1.31
   3  -4  -5   31.82    1.67
   3  -4  -5   33.89    1.61
  -3  -4   5   35.36    1.36
  -3  -4   5   32.58    1.57
   3   4   5   34.96    1.65
  -3  -4   5   35.59    1.71
  -3   4  -5   33.17    1.60
   3  -4  -5   31.20    1.62
   3  -4  -5   32.43    1.66
   3  -4  -5   30.77    1.84
  -3  -4   5   33.84    1.62
  -3  -4   5   35.17    1.63
  -3   4  -5   31.11    1.46
   3   4   5   32.41    1.28
  -3  -4   5   32.98    1.55
  -3   5   5   34.02    1.76
  -3  -5  -5   38.23    2.00
   3  -5   5   36.54    1.37
  -3   5   5   35.02    1.42
   3  -5   5   38.29    1.78
   3  -5   5   35.90    1.77
  -3  -5  -5   35.83    1.76
   3  -5   5   36.09    1.44
  -3  -5  -5   37.07    1.74
  -3  -5  -5   37.15    1.59
   3  -5   5   37.17    1.86
   3  -5   5   33.64    1.98
   3   5  -5   38.61    1.60
  -3   5   5   33.25    1.72
  -3  -5  -5   36.69    1.76
  -3   5  -5   37.29    1.78
  -3  -5   5   34.35    1.75
   3  -5  -5   37.72    2.09
  -3  -5   5   37.46    1.49
   3  -5  -5   36.83    1.80
   3  -5  -5   37.66    1.82
  -3  -5   5   36.29    1.79
  -3   5  -5   36.36    1.61
   3   5   5   34.32    1.40
   3  -5  -5   36.99    1.93
  -3  -5   5   34.89    1.70
  -3  -5   5   34.53    1.74
   3   5   5   36.29    1.35
  -3   6   5   28.52    1.25
  -3  -6  -5   30.31    1.60
   3  -6   5   28.42    1.68
   3  -6   5   27.74    1.24
   3   6  -5   30.90    1.34
   3  -6   5   26.94    1.59
  -3   6   5   25.39    1.59
  -3  -6  -5   28.45    1.62
   3  -6   5   27.00    1.19
  -3  -6   5   27.96    1.28
  -3  -6   5   26.06    1.52
  -3   6  -5   29.25    1.62
   3  -6  -5   30.10    1.50
   3   6   5   28.53    1.25
   3  -6  -5   27.31    1.60
  -3  -6   5   26.90    1.61
   3  -6  -5   28.75    1.60
  -3   6  -5   28.65    1.40
   3  -7   5   30.07    1.05
  -3   7   5   30.07    1.15
  -3   7   5   30.77    1.22
  -3  -7  -5   33.38    1.31
   3  -7   5   31.81    1.37
   3  -7   5   29.63    1.17
   3  -7   5   30.84    1.32
   3  -7   5   31.44    1.13
  -3   7   5   29.01    1.06
   3   7  -5   31.02    1.20
  -3   7   5   30.84    1.26
   3  -7   5   27.92    1.72
  -3   7   5   32.15    1.37
  -3  -7   5   30.24    1.21
   3   7   5   29.64    1.22
   3   7   5   28.49    0.96
   3   7   5   29.74    1.26
  -3   7  -5   33.65    1.55
  -3  -7   5   31.41    1.39
   3  -7  -5   30.18    1.75
   3  -7  -5   34.60    1.64
  -3  -7   5   30.41    1.18
   3   7   5   31.24    1.37
  -3  -7   5   30.51    1.74
   3   8  -5   31.88    1.29
  -3   8   5   31.02    1.22
   3  -8   5   30.88    1.21
  -3   8   5   31.92    1.16
  -3   8   5   29.60    1.25
   3  -8   5   33.36    1.38
  -3  -8  -5   33.12    1.35
   3  -8   5   31.97    1.02
  -3   8   5   29.83    1.07
  -3   8   5   30.23    1.36
  -3  -8   5   30.11    1.21
  -3  -8   5   31.81    1.21
   3  -8  -5   29.04    1.61
   3   8   5   31.67    1.27
   3   8   5   30.96    1.38
   3   8   5   31.89    1.29
  -3   8  -5   31.26    1.47
  -3  -8   5   31.94    1.41
   3   8   5   32.04    1.01
   3   9  -5    3.44    0.39
  -3  -9  -5    2.97    0.66
  -3   9   5    3.35    0.42
   3  -9   5    2.67    0.35
  -3   9   5    3.04    0.35
  -3   9   5    2.92    0.32
   3  -9   5    2.81    0.40
  -3   9   5    2.50    0.35
   3  -9  -5    2.87    0.56
   3   9   5    3.88    0.46
   3   9   5    2.94    0.42
  -3   9  -5    2.97    0.43
  -3  -9   5    3.12    0.39
  -3  -9   5    2.99    0.37
   3   9   5    2.85    0.29
  -3   9  -5    3.34    0.39
   3   9   5    3.22    0.40
  -3  10   5    3.40    0.38
   3  10  -5    4.47    0.34
  -3  10   5    3.90    0.35
  -3  10   5    3.48    0.33
   3 -10   5    3.84    0.39
   3  10   5    4.26    0.38
   3  10   5    3.66    0.27
  -3 -10   5    3.31    0.36
   3 -10  -5    3.39    0.41
   3  10   5    2.64    0.34
   3  10   5    3.36    0.42
  -3  10  -5    3.89    0.36
  -3  10  -5    4.33    0.42
  -3 -10   5    3.62    0.31
  -3  11   5    0.96    0.16
  -3  11   5    0.78    0.15
   3 -11   5    0.56    0.15
   3  11   5    0.55    0.16
   3 -11  -5    0.75    0.15
   3  11   5    0.49    0.15
  -3  11  -5    0.72    0.16
  -3  11  -5    0.71    0.16
   3  11   5    1.20    0.14
  -3 -11   5    0.50    0.15
   3   0  -6    0.29    0.26
   3   0   6    0.07    0.18
   3   0  -6    0.37    0.32
  -3   0   6    0.62    0.26
  -3   0   6   -0.01    0.20
   3   0  -6    0.32    0.20
   3   0   6    0.10    0.26
  -3   0   6    0.10    0.23
   3   0   6    0.12    0.14
  -3   0   6    0.10    0.20
   3   0   6    0.20    0.20
   3   0   6    0.11    0.17
   3   0   6    0.13    0.21
   3   0   6    0.15    0.20
   3  -1   6    2.66    0.44
   3  -1   6    2.43    0.45
  -3   1   6    2.77    0.49
  -3   1   6    1.61    0.39
   3   1  -6    1.34    0.40
   3  -1   6    2.15    0.50
   3  -1   6    2.11    0.45
   3  -1   6    2.14    0.31
   3   1  -6    2.04    0.38
  -3   1   6    2.05    0.43
  -3  -1   6    2.70    0.48
   3   1   6    3.45    0.53
  -3  -1   6    3.82    0.51
   3  -1  -6    1.77    0.46
   3  -1  -6    1.75    0.47
  -3  -1   6    2.25    0.46
   3   1   6    2.05    0.28
   3   1   6    2.03    0.43
  -3  -1   6    2.74    0.33
   3  -1  -6    1.86    0.36
   3   1   6    2.00    0.38
  -3  -1   6    2.29    0.43
   3   1   6    2.25    0.44
   3   1   6    2.19    0.38
   3  -2   6  105.71    3.41
   3  -2   6  106.59    4.29
  -3   2   6  103.95    3.67
  -3   2   6  103.74    3.75
  -3  -2  -6  108.62    4.31
   3  -2   6  104.07    3.65
  -3   2   6  107.24    3.77
   3  -2   6  108.50    3.74
   3   2  -6  106.23    4.05
   3   2  -6  101.75    3.64
   3   2  -6  109.33    4.33
   3  -2   6  109.76    4.01
   3   2   6  102.77    3.59
  -3  -2   6  102.89    3.65
   3   2   6  108.69    3.70
   3   2   6  111.48    3.75
  -3  -2   6  112.98    4.07
  -3  -2   6  107.35    3.70
   3  -2  -6  104.93    4.37
  -3  -2   6  105.44    3.76
  -3  -2   6  110.54    3.65
   3  -2  -6  104.04    3.98
   3  -2  -6  105.46    4.05
  -3  -2   6  107.58    3.40
  -3   2  -6  105.75    3.86
   3   2   6  103.70    3.89
  -3   3   6   72.32    2.40
   3  -3   6   72.89    2.80
  -3   3   6   69.27    2.74
   3   3  -6   76.91    3.01
   3   3  -6   75.33    2.71
  -3  -3  -6   74.31    2.95
   3  -3   6   69.85    2.46
   3  -3   6   70.94    2.76
   3  -3   6   68.32    3.17
   3  -3   6   70.82    2.98
  -3  -3  -6   78.04    3.23
  -3  -3  -6   74.15    2.76
  -3   3   6   71.80    2.82
   3   3   6   72.58    2.78
  -3  -3   6   69.21    2.46
  -3  -3   6   73.45    2.80
  -3  -3   6   67.45    3.13
  -3   3  -6   75.63    2.88
   3  -3  -6   75.82    3.04
  -3  -3   6   68.59    2.72
  -3  -3   6   70.34    2.74
   3  -3  -6   72.37    3.29
  -3  -3   6   68.31    2.79
   3   3   6   69.57    2.77
   3  -3  -6   74.89    2.93
   3  -3  -6   77.77    2.91
  -3  -3   6   71.38    2.99
  -3  -4  -6   15.01    1.07
  -3   4   6   15.16    0.81
  -3  -4  -6   16.82    1.21
   3   4  -6   16.88    0.99
  -3   4   6   14.60    1.08
   3  -4   6   15.23    0.83
   3  -4   6   14.36    1.07
   3  -4   6   16.35    1.17
   3   4  -6   16.75    1.11
   3  -4   6   14.32    1.25
   3  -4   6   17.28    1.14
  -3  -4  -6   16.16    1.08
  -3   4   6   16.68    1.11
   3  -4  -6   16.21    1.03
   3  -4  -6   15.91    1.13
   3   4   6   14.52    0.80
   3   4   6   14.41    1.09
   3  -4  -6   15.69    1.28
  -3  -4   6   16.12    1.08
  -3  -4   6   16.19    1.11
  -3  -4   6   12.85    1.05
  -3  -4   6   15.67    1.11
   3  -4  -6   16.57    1.16
  -3  -4   6   15.41    0.84
  -3  -4   6   14.83    1.15
  -3   4  -6   15.83    1.02
   3  -5   6    2.95    0.42
  -3   5   6    3.28    0.46
  -3   5   6    2.58    0.54
   3  -5   6    2.61    0.58
   3   5  -6    1.89    0.42
  -3  -5  -6    1.89    0.53
   3  -5   6    2.58    0.63
  -3  -5  -6    2.06    0.51
   3   5   6    2.93    0.40
  -3  -5   6    3.38    0.67
   3  -5  -6    2.44    0.53
  -3  -5   6    2.95    0.44
  -3  -5   6    2.63    0.58
  -3   5  -6    2.75    0.48
   3  -5  -6    2.32    0.56
  -3   5  -6    3.24    0.57
   3  -6   6   41.45    2.16
  -3   6   6   41.45    1.65
  -3   6   6   41.01    1.38
   3  -6   6   41.08    1.37
   3  -6   6   40.94    1.69
   3   6  -6   42.28    1.79
   3   6  -6   43.80    1.50
  -3   6   6   40.41    1.48
  -3   6   6   40.30    1.25
  -3   6   6   40.45    1.53
   3  -6   6   40.59    2.08
   3  -6   6   41.75    1.45
  -3   6  -6   44.31    1.91
   3   6   6   40.36    1.53
   3  -6  -6   43.58    1.97
   3   6   6   41.24    1.16
  -3  -6   6   41.17    1.70
  -3  -6   6   42.21    2.07
   3   6   6   41.64    1.66
   3   6   6   41.03    1.51
   3  -6  -6   38.95    2.05
  -3  -6   6   40.67    1.42
  -3  -6   6   41.20    1.43
   3  -7   6    5.29    0.44
  -3   7   6    4.73    0.54
   3  -7   6    4.65    0.52
   3  -7   6    5.06    0.56
  -3   7   6    4.59    0.37
   3  -7   6    3.79    0.44
  -3   7   6    4.10    0.47
  -3   7   6    4.83    0.52
  -3   7   6    3.72    0.42
   3  -7  -6    3.79    0.67
   3   7   6    4.10    0.52
   3   7   6    4.23    0.48
  -3   7  -6    3.01    0.55
  -3  -7   6    4.45    0.41
   3   7   6    3.94    0.48
  -3  -7   6    4.65    0.57
  -3  -7   6    3.94    0.42
   3   7   6    4.54    0.31
   3  -8   6   11.84    0.69
  -3   8   6   12.17    0.68
  -3   8   6   12.40    0.59
  -3   8   6   11.54    0.75
  -3   8   6   12.74    0.64
   3   8  -6   12.29    0.76
  -3   8   6   11.29    0.70
  -3  -8   6   11.28    0.79
  -3  -8   6   11.20    0.59
   3  -8  -6   11.50    0.96
   3   8   6   11.63    0.72
  -3  -8   6   11.62    0.66
   3   8   6   10.67    0.74
   3   8   6   11.91    0.50
  -3   8  -6   12.61    0.84
   3   8   6   11.00    0.69
  -3   9   6    1.52    0.28
  -3   9   6    1.95    0.28
   3   9  -6    2.65    0.37
  -3   9   6    1.30    0.27
   3  -9   6    3.03    0.36
  -3   9   6    2.00    0.26
  -3   9  -6    2.10    0.30
   3  -9  -6    1.60    0.32
   3   9   6    1.98    0.23
   3   9   6    2.61    0.37
  -3   9  -6    2.35    0.39
   3   9   6    1.82    0.34
  -3  -9   6    2.10    0.22
   3   9   6    2.21    0.34
  -3  -9   6    1.62    0.29
  -3  10   6    0.27    0.13
  -3  10   6    0.08    0.13
   3  10  -6    0.13    0.14
  -3  10   6    0.12    0.12
   3 -10   6    0.28    0.15
  -3  10  -6    0.16    0.15
   3 -10  -6   -0.16    0.15
  -3 -10   6    0.11    0.14
   3  10   6    0.25    0.10
   3  10   6    0.12    0.19
   3  10   6    0.19    0.16
   3  10   6    0.24    0.15
  -3  10  -6   -0.11    0.17
  -3  11   6   12.41    0.43
   3 -11   6   11.52    0.47
   3  11   6   12.07    0.51
  -3 -11   6   11.95    0.47
   3 -11  -6   12.28    0.50
   3   0  -7   -0.14    0.26
   3   0   7   -0.09    0.23
   3   0   7    0.11    0.30
  -3   0   7    0.14    0.26
   3   0   7   -0.03    0.25
  -3   0   7    0.10    0.25
   3   0   7    0.26    0.16
   3   0  -7    0.24    0.30
  -3   0   7    0.12    0.25
   3   0   7   -0.03    0.22
  -3  -1  -7   11.84    1.13
   3  -1   7   13.10    0.95
   3  -1   7   13.66    0.72
   3  -1   7   13.40    0.99
   3   1  -7   13.03    1.07
  -3   1   7   11.76    0.93
  -3   1   7   13.97    1.00
   3  -1   7   12.34    0.99
   3  -1   7   13.14    1.12
   3   1  -7   11.41    1.09
   3   1  -7   12.10    0.87
  -3   1   7   13.80    1.01
   3   1   7   12.12    0.89
   3  -1  -7   11.48    1.04
  -3  -1   7   12.70    0.68
   3  -1  -7   10.73    1.07
  -3  -1   7   13.22    0.98
   3   1   7   12.76    0.97
  -3  -1   7   11.94    0.88
   3   1   7   12.30    1.02
  -3  -1   7   12.90    0.97
  -3  -1   7   14.30    1.02
   3  -1  -7   12.89    0.86
   3   1   7   13.57    0.97
  -3  -2  -7    5.02    0.89
  -3   2   7    4.70    0.71
   3  -2   7    5.52    0.77
  -3   2   7    5.68    0.79
   3  -2   7    5.94    0.75
   3  -2   7    5.71    0.89
   3   2  -7    4.33    0.61
  -3   2   7    5.57    0.76
   3   2  -7    6.05    0.94
   3   2  -7    4.73    0.78
   3  -2   7    5.43    0.73
   3   2  -7    4.66    0.65
   3  -2   7    5.72    0.50
  -3  -2   7    5.19    0.46
  -3  -2   7    6.30    0.78
   3   2   7    5.30    0.70
   3   2   7    5.51    0.72
   3  -2  -7    4.91    0.57
   3   2   7    5.84    0.80
  -3   2  -7    5.16    0.52
  -3  -2   7    5.20    0.70
   3   2   7    6.51    0.80
  -3  -2   7    5.76    0.78
  -3  -2   7    6.34    0.83
   3  -2  -7    2.82    0.69
   3  -2  -7    4.08    0.73
  -3   3   7   15.51    1.12
  -3   3   7   16.37    0.82
   3  -3   7   15.49    1.20
   3   3  -7   11.98    1.28
  -3   3   7   14.40    1.09
   3  -3   7   17.65    1.18
  -3  -3  -7   13.33    1.07
   3   3  -7   14.66    0.99
   3  -3   7   16.98    1.35
   3   3  -7   14.91    1.08
   3  -3   7   16.19    1.12
   3  -3   7   17.88    0.90
  -3  -3   7   15.29    1.13
   3  -3  -7   14.00    1.10
   3   3   7   17.68    1.15
  -3  -3   7   16.83    1.13
  -3  -3   7   17.00    1.15
  -3  -3   7   13.72    1.09
   3   3   7   16.61    1.16
  -3  -3   7   15.35    0.82
   3  -3  -7   15.40    1.21
   3  -3  -7   12.41    1.26
   3  -3  -7   12.98    0.97
  -3   3  -7   13.40    0.95
  -3   4   7   41.73    1.60
  -3  -4  -7   41.02    2.00
   3   4  -7   41.86    2.21
   3  -4   7   41.78    2.05
   3  -4   7   43.81    2.16
  -3   4   7   40.53    2.04
   3   4  -7   39.17    2.05
   3  -4   7   41.93    1.68
   3   4  -7   41.96    1.85
  -3  -4   7   36.70    2.00
  -3  -4   7   42.44    1.66
   3   4   7   39.59    2.03
  -3  -4   7   41.31    2.02
   3  -4  -7   39.60    2.02
   3  -4  -7   40.19    2.12
   3  -4  -7   41.07    2.00
  -3   4  -7   39.19    1.97
   3   4   7   42.02    1.60
   3  -5   7   20.36    0.78
   3  -5   7   19.78    1.44
   3   5  -7   19.48    0.93
   3   5  -7   18.90    1.17
   3  -5   7   20.70    0.90
   3  -5   7   20.22    0.85
  -3  -5  -7   17.45    1.31
  -3   5   7   20.97    0.76
  -3   5   7   20.33    0.94
  -3   5   7   20.62    0.94
   3  -5   7   20.50    1.07
   3  -5   7   21.60    1.44
  -3   5   7   20.38    0.88
  -3   5   7   20.74    1.03
   3  -5   7   20.88    0.91
  -3  -5   7   21.56    1.07
  -3   5  -7   20.49    1.24
  -3  -5   7   21.58    0.93
  -3  -5   7   19.11    1.46
   3   5   7   21.07    0.63
  -3  -5   7   20.11    1.42
   3   5   7   21.39    0.97
  -3  -5   7   20.91    0.73
   3  -5  -7   16.10    1.29
   3   5   7   19.14    0.96
   3   5   7   21.42    1.05
   3  -6   7   11.22    1.16
   3   6  -7   13.71    0.91
  -3   6   7   10.98    0.54
  -3   6   7   11.12    0.62
   3  -6   7   10.59    0.65
   3  -6   7   11.30    0.63
   3  -6   7   10.91    0.65
  -3   6   7   10.69    0.67
   3  -6   7   11.50    0.60
   3  -6   7   11.59    0.80
   3  -6   7   12.20    1.24
  -3   6   7   10.77    0.75
  -3   6   7   10.87    0.67
  -3  -6   7   11.24    0.49
   3   6   7   10.93    0.72
   3   6   7   10.13    0.69
   3  -6  -7   12.71    1.11
   3   6   7   12.63    0.79
   3   6   7   11.05    0.45
  -3  -6   7   10.07    1.21
  -3  -6   7   11.54    0.79
  -3   6  -7   13.58    0.98
   3  -7   7    1.38    0.26
  -3   7   7    1.71    0.26
  -3   7   7    1.48    0.30
  -3   7   7    1.43    0.27
   3  -7   7    1.97    0.39
   3   7  -7    2.02    0.52
   3  -7   7    1.47    0.29
  -3   7   7    1.18    0.29
  -3   7   7    2.09    0.38
   3   7   7    1.14    0.31
  -3  -7   7    0.95    0.27
   3   7   7    1.88    0.20
  -3   7  -7    2.06    0.52
  -3  -7   7    1.71    0.38
  -3  -7   7    1.46    0.16
   3   7   7    1.97    0.36
   3  -7  -7    2.10    0.51
   3   7   7    1.40    0.31
   3  -8   7    0.71    0.21
   3  -8   7    0.42    0.20
  -3   8   7    0.39    0.19
   3  -8   7    0.65    0.28
  -3   8   7    0.52    0.22
  -3   8   7    0.50    0.22
   3   8  -7    1.52    0.36
  -3   8   7    1.17    0.21
  -3  -8   7    0.87    0.22
   3  -8  -7    0.64    0.42
  -3   8  -7    1.45    0.37
   3   8   7    0.83    0.23
   3  -8  -7    0.83    0.27
  -3  -8   7    0.56    0.28
   3   8   7    0.90    0.27
   3   8   7    0.75    0.24
   3   8   7    0.80    0.14
  -3   9   7    2.68    0.31
   3  -9   7    2.68    0.32
   3   9  -7    2.33    0.32
  -3   9   7    2.77    0.33
  -3   9   7    2.26    0.27
  -3   9   7    2.43    0.25
   3   9   7    2.07    0.34
   3   9   7    1.87    0.29
  -3   9  -7    2.26    0.29
   3  -9  -7    1.79    0.31
   3   9   7    2.15    0.31
   3   9   7    2.43    0.19
  -3  -9   7    2.40    0.30
   3  10  -7    2.57    0.25
  -3  10   7    2.53    0.23
   3 -10   7    2.53    0.25
  -3  10   7    2.73    0.22
  -3  10  -7    2.91    0.31
  -3  10  -7    2.86    0.27
   3  10   7    2.82    0.29
   3  10   7    2.24    0.26
  -3 -10   7    2.89    0.27
   3 -10  -7    2.47    0.27
   3   0  -8    0.10    0.28
  -3   0   8    0.32    0.31
   3   0   8   -0.26    0.28
   3   0  -8   -0.06    0.33
  -3   0   8    0.39    0.31
   3   0   8    0.11    0.33
   3   0   8    0.14    0.19
   3  -1   8   14.55    1.14
  -3   1   8   15.97    1.16
   3  -1   8   14.27    0.80
   3   1  -8   13.88    1.03
   3  -1   8   14.73    1.20
  -3   1   8   12.91    1.09
   3   1  -8   13.95    1.24
   3  -1   8   13.01    1.06
   3  -1  -8   13.81    1.22
  -3  -1   8   15.90    1.17
   3  -1  -8   14.47    1.01
   3   1   8   12.63    1.09
  -3  -1   8   13.83    1.10
   3   1   8   15.26    1.20
   3   2  -8   16.15    1.06
   3   2  -8   16.30    1.11
   3  -2   8   14.61    1.23
   3   2  -8   16.25    1.32
  -3   2   8   12.78    1.09
   3  -2   8   13.33    1.13
   3  -2   8   13.57    0.82
  -3   2   8   14.26    1.12
   3  -2  -8   16.05    1.06
  -3  -2   8   14.56    0.82
   3   2   8   13.99    1.17
   3   2   8   13.86    1.14
  -3  -2   8   13.05    1.11
   3  -2  -8   15.64    1.28
  -3  -2   8   12.52    1.09
   3   2   8   13.56    1.13
   3  -3   8   45.18    2.34
  -3   3   8   44.56    1.57
   3   3  -8   43.05    2.36
  -3   3   8   42.77    1.27
  -3   3   8   42.33    2.16
   3  -3   8   46.37    1.29
   3   3  -8   41.36    2.20
   3  -3   8   46.85    2.22
   3  -3   8   44.02    1.54
   3  -3   8   46.35    1.45
  -3   3   8   45.13    1.45
   3  -3   8   47.97    1.81
  -3  -3   8   44.29    2.19
  -3  -3   8   44.23    1.44
  -3  -3   8   46.79    1.58
   3   3   8   43.87    2.22
  -3   3  -8   42.53    2.09
   3  -3  -8   44.42    2.13
  -3  -3   8   46.08    1.77
   3  -3  -8   44.01    2.24
   3  -3  -8   44.71    2.32
  -3  -3   8   44.24    2.16
   3  -4   8   14.50    0.60
  -3   4   8   14.32    0.76
  -3   4   8   13.83    0.70
  -3   4   8   14.54    0.59
   3   4  -8   13.75    1.30
  -3  -4  -8   13.12    1.16
  -3   4   8   14.72    0.82
   3   4  -8   13.84    1.01
   3  -4   8   13.45    1.26
   3  -4   8   14.54    0.76
   3  -4   8   14.15    0.70
   3   4  -8   13.86    0.76
   3  -4   8   13.55    1.23
   3  -4   8   14.03    0.87
   3  -4  -8   12.69    1.18
  -3  -4   8   13.71    1.18
  -3  -4   8   14.65    0.86
   3   4   8   14.80    0.79
  -3  -4   8   14.41    0.72
  -3  -4   8   13.38    0.68
  -3  -4   8   13.82    0.74
   3   5  -8   11.17    0.69
  -3   5   8   11.65    0.53
   3  -5   8   12.52    1.36
   3  -5   8   10.96    0.78
   3  -5   8   11.91    0.63
   3  -5   8   10.79    0.66
   3  -5   8   12.17    0.66
  -3   5   8   11.70    0.75
   3  -5   8   11.46    1.20
   3   5  -8   10.35    0.91
   3  -5   8   11.78    0.57
  -3   5   8   11.69    0.64
  -3   5   8   11.91    0.69
   3   5   8   11.40    0.37
  -3  -5   8   10.67    0.61
   3   5   8   12.46    0.79
  -3  -5   8   11.85    0.69
  -3  -5   8   10.99    1.14
   3   5   8   12.15    0.72
   3  -5  -8    9.02    1.07
  -3  -5   8   11.71    0.80
  -3   5  -8   10.89    0.95
   3  -6   8   20.92    0.90
  -3   6   8   20.37    0.87
   3  -6   8   21.62    0.83
  -3   6   8   19.70    0.74
   3  -6   8   20.42    0.91
   3  -6   8   20.83    0.88
   3   6  -8   19.58    1.17
  -3   6   8   20.54    0.94
   3  -6   8   22.41    1.13
  -3   6   8   20.10    0.94
  -3   6  -8   19.41    1.26
   3   6   8   20.80    1.06
  -3  -6   8   20.86    1.11
  -3  -6   8   21.66    0.93
   3   6   8   21.45    0.60
   3   6   8   21.13    0.98
   3   6   8   20.81    0.97
  -3   7   8    2.32    0.35
  -3   7   8    2.47    0.34
  -3   7   8    2.57    0.32
   3  -7   8    3.03    0.47
   3  -7   8    3.09    0.38
  -3   7   8    2.72    0.27
   3  -7   8    2.49    0.31
   3  -7   8    3.02    0.37
   3   7   8    2.77    0.39
   3   7   8    3.26    0.41
   3   7   8    2.89    0.43
  -3  -7   8    2.70    0.43
   3  -7  -8    4.59    0.75
  -3   7  -8    2.37    0.54
   3  -7  -8    3.44    0.43
   3   7   8    2.74    0.19
   3   8  -8   13.57    0.77
   3  -8   8   14.40    0.68
  -3   8   8   14.06    0.55
  -3   8   8   14.17    0.69
  -3   8   8   15.04    0.71
  -3   8   8   14.00    0.63
   3   8   8   14.06    0.70
   3  -8  -8   13.57    0.78
   3   8   8   14.45    0.71
  -3  -8   8   14.59    0.65
   3   8   8   14.48    0.80
   3   9  -8    6.98    0.44
   3  -9   8    6.80    0.40
  -3   9   8    6.40    0.32
  -3   9   8    7.08    0.40
  -3   9   8    6.06    0.35
   3   9   8    7.13    0.43
  -3  -9   8    7.01    0.39
   3  -9  -8    5.74    0.47
   3   9   8    6.15    0.49
   3   9   8    6.78    0.42
  -3   9  -8    6.89    0.40
  -3   0   9    0.21    0.20
   3   0   9    0.47    0.45
   3   0   9    0.08    0.09
   3   0   9    0.23    0.42
  -3   0   9   -0.08    0.19
  -3   0   9    0.26    0.35
   3   0  -9    0.42    0.44
   3   0   9    0.39    0.24
  -3   0   9    0.13    0.15
  -3   0   9   -0.05    0.23
   3   0   9    0.27    0.21
   3  -1   9    2.01    0.20
  -3   1   9    1.24    0.50
  -3   1   9    2.03    0.33
   3  -1   9    2.06    0.32
   3   1  -9    1.60    0.60
   3  -1   9    2.42    0.63
  -3   1   9    2.23    0.30
   3  -1   9    1.50    0.57
  -3   1   9    1.70    0.33
   3  -1   9    2.07    0.35
  -3   1   9    2.53    0.27
   3  -1   9    2.06    0.36
  -3  -1   9    2.58    0.40
  -3  -1   9    1.75    0.57
   3   1   9    2.38    0.59
   3   1   9    2.45    0.70
   3  -1  -9    2.36    0.71
  -3  -1   9    1.91    0.31
   3   1   9    3.09    0.39
  -3  -1   9    2.38    0.29
  -3  -1   9    2.67    0.39
   3   1   9    2.16    0.15
  -3   2   9   24.12    0.82
  -3   2   9   22.10    1.51
   3  -2   9   23.71    1.16
  -3   2   9   23.87    0.95
   3  -2   9   23.57    0.77
  -3   2   9   25.33    1.05
   3  -2   9   23.52    1.65
   3  -2   9   23.18    1.02
   3  -2   9   22.53    1.54
   3  -2   9   23.40    0.97
   3   2  -9   23.84    1.39
   3   2  -9   24.05    1.72
  -3  -2   9   22.65    0.93
  -3  -2   9   23.78    0.87
   3   2   9   24.31    1.58
   3   2   9   23.96    0.97
  -3  -2   9   23.69    1.57
   3  -2  -9   26.13    1.75
  -3  -2   9   24.73    1.15
  -3  -2   9   23.51    1.04
  -3  -2   9   24.64    1.04
   3  -3   9   25.31    1.00
  -3   3   9   26.56    1.01
  -3  -3  -9   25.93    1.69
   3  -3   9   27.16    1.26
   3  -3   9   24.06    1.67
   3  -3   9   25.39    1.08
   3   3  -9   25.31    1.78
   3  -3   9   25.55    0.84
   3   3  -9   26.48    1.48
  -3   3   9   24.75    1.07
   3  -3   9   25.95    1.76
  -3   3   9   26.14    0.85
  -3  -3   9   25.75    1.00
   3  -3  -9   25.02    1.76
   3   3   9   26.69    1.02
   3  -3  -9   25.81    1.70
  -3  -3   9   24.71    0.93
   3   3   9   26.82    1.10
  -3  -3   9   23.12    1.63
  -3  -3   9   25.15    1.07
  -3  -3   9   25.32    1.22
  -3  -3   9   25.17    1.09
   3  -4   9   42.58    1.28
   3  -4   9   44.96    1.82
   3  -4   9   42.62    2.39
  -3   4   9   44.57    1.27
  -3   4   9   43.03    1.55
   3  -4   9   42.88    1.44
   3  -4   9   45.03    1.57
   3   4  -9   41.89    2.41
   3   4  -9   45.07    1.58
  -3   4   9   44.36    1.45
   3   4  -9   43.20    2.01
  -3  -4   9   44.01    1.39
  -3  -4   9   44.58    1.43
  -3  -4   9   43.84    1.55
  -3  -4   9   42.98    1.78
   3   4   9   45.12    1.58
  -3   5   9   22.29    0.77
  -3   5   9   23.09    0.92
   3   5  -9   22.16    1.30
   3  -5   9   22.66    0.83
   3  -5   9   20.64    1.63
   3  -5   9   22.89    0.93
  -3   5   9   22.90    1.00
   3  -5   9   22.99    1.17
   3  -5   9   22.42    0.97
  -3   5  -9   20.22    1.35
  -3  -5   9   22.77    0.97
  -3  -5   9   22.99    0.91
  -3  -5   9   22.70    0.91
  -3  -5   9   22.52    1.15
   3   5   9   22.22    0.99
   3  -5  -9   22.81    1.09
   3  -6   9    2.78    0.31
  -3   6   9    2.41    0.25
   3  -6   9    2.84    0.36
   3  -6   9    2.71    0.35
   3   6  -9    1.20    0.45
  -3   6   9    1.93    0.32
   3  -6   9    2.06    0.38
   3  -6   9    2.57    0.34
  -3   6   9    2.51    0.32
   3   6   9    1.88    0.32
   3   6   9    2.42    0.40
  -3  -6   9    2.69    0.34
   3  -6  -9    1.57    0.33
  -3  -6   9    2.71    0.43
  -3   6  -9    1.22    0.45
   3  -7   9    1.42    0.24
   3  -7   9    1.21    0.24
  -3   7   9    1.51    0.24
  -3   7   9    1.61    0.28
  -3   7   9    1.88    0.21
   3  -7   9    1.48    0.27
   3   7   9    1.59    0.29
   3  -7  -9    0.78    0.27
   3   7   9    1.57    0.29
   3   7   9    1.23    0.30
   3   8  -9    6.32    0.52
   3  -8   9    6.14    0.40
  -3   8   9    6.50    0.40
   3  -8   9    6.12    0.39
  -3   8   9    5.83    0.36
   3   8   9    5.04    0.46
   3   8   9    6.08    0.41
   3   8   9    5.56    0.40
   3  -8  -9    6.69    0.41
   3  -8  -9    6.07    0.47
   3   9  -9    0.36    0.15
  -3   9   9    0.16    0.06
   3   9   9    0.07    0.12
  -3   9  -9    0.24    0.11
   3   0  10    0.21    0.08
   3   0 -10   -0.61    0.43
  -3   0  10    0.43    0.20
  -3   0  10   -0.12    0.16
  -3   0  10    0.05    0.12
   3   0  10   -0.40    0.20
   3   0  10    0.26    0.20
  -3   0  10    0.19    0.20
   3   0  10    0.15    0.43
   3  -1  10    4.94    0.48
  -3   1  10    4.54    0.47
  -3   1  10    3.30    0.42
   3  -1  10    3.18    0.77
   3   1 -10    3.54    0.83
  -3  -1 -10    4.68    1.00
   3  -1  10    3.99    0.24
  -3   1  10    3.36    0.38
  -3   1  10    4.08    0.32
   3  -1  10    3.76    0.46
   3   1  10    3.58    0.39
  -3  -1  10    4.11    0.45
   3  -1 -10    3.98    0.85
  -3  -1  10    4.14    0.43
  -3  -1  10    3.77    0.35
  -3  -1  10    4.17    0.45
   3  -2  10   10.36    1.27
  -3   2  10   12.38    0.70
  -3   2  10   11.68    0.52
   3   2 -10    9.87    1.29
   3   2 -10   11.91    1.07
   3  -2  10   12.39    0.48
  -3   2  10   11.72    0.65
   3  -2  10   13.06    0.83
   3  -2  10   12.19    0.72
   3  -2  10   12.99    0.67
   3  -2 -10   11.22    1.34
  -3  -2  10   12.51    0.58
  -3  -2  10   12.38    0.71
  -3  -2  10   13.07    0.66
  -3  -2  10   12.53    0.71
   3   2  10   11.68    0.65
   3   3 -10    9.84    1.29
   3  -3  10   13.38    0.75
   3  -3  10   12.55    0.83
  -3   3  10   13.93    0.74
  -3   3  10   13.08    0.53
  -3   3  10   14.26    0.68
   3   3 -10   13.13    1.08
   3  -3  10   12.00    1.34
   3  -3  10   12.94    0.52
   3  -3  10   13.77    0.69
  -3  -3  10   12.95    0.60
  -3  -3  10   13.21    0.67
   3   3  10   13.87    0.73
  -3  -3  10   12.99    0.74
   3  -3 -10   11.99    1.36
   3   3  10   13.75    0.68
  -3  -3  10   13.67    0.84
  -3   4  10   11.31    0.68
   3   4 -10   10.77    0.99
   3  -4  10   11.91    0.65
   3  -4  10   13.06    0.54
  -3   4  10   12.13    0.64
   3   4 -10   11.73    0.68
  -3   4  10   12.08    0.50
   3  -4  10   12.64    0.69
   3  -4  10   11.38    0.79
   3   4  10   12.05    0.63
  -3  -4  10   11.14    0.58
  -3  -4  10   12.96    0.82
  -3  -4  10   12.02    0.63
  -3  -4  10   12.54    0.69
   3   4  10   12.23    0.71
   3  -5  10    2.37    0.26
   3  -5  10    2.22    0.32
   3  -5  10    2.33    0.33
   3   5 -10    1.78    0.49
  -3   5  10    1.96    0.22
  -3   5  10    2.31    0.35
   3  -5  10    1.79    0.35
  -3   5  10    1.71    0.27
  -3  -5  10    2.22    0.32
  -3  -5  10    2.12    0.38
  -3  -5  10    2.28    0.30
  -3  -5  10    2.31    0.31
   3   5  10    1.83    0.31
   3  -6  10    1.67    0.22
   3  -6  10    2.12    0.31
   3  -6  10    1.78    0.25
  -3   6  10    2.00    0.20
  -3   6  10    1.92    0.27
  -3   6  10    1.25    0.26
   3   6  10    1.80    0.29
  -3  -6  10    1.39    0.26
  -3  -6  10    2.14    0.29
   3  -7  10   11.55    0.50
  -3   7  10   10.45    0.54
  -3   7  10   10.59    0.37
  -3   7  10   11.15    0.50
   3  -7  10   11.21    0.54
   3   7  10   10.72    0.55
   3  -8  10    6.97    0.33
  -3   8  10    6.69    0.32
   3   8 -10    6.10    0.43
  -3   8  10    6.64    0.36
   3   8  10    6.62    0.36
  -3   8 -10    6.25    0.33
  -3   0  11    0.04    0.18
   3   0  11    0.15    0.19
  -3   0  11    0.19    0.21
   3   0  11    0.23    0.20
  -3   0  11    0.11    0.12
  -3   0  11    0.00    0.17
  -3   1  11    0.50    0.20
   3  -1  11    0.42    0.09
  -3   1  11    0.73    0.15
   3  -1  11    0.69    0.24
  -3   1  11    0.80    0.24
   3  -1  11    0.88    0.24
  -3   1  11    0.61    0.23
   3   1  11    0.55    0.20
  -3  -1  11    0.66    0.20
  -3  -1  11    0.31    0.20
  -3  -1  11    0.45    0.16
  -3  -1  11    0.34    0.21
  -3   2  11    0.52    0.13
  -3   2  11    0.56    0.22
   3  -2  11    0.51    0.12
   3   2 -11    1.09    0.51
  -3   2  11    0.50    0.21
   3  -2  11    0.33    0.21
   3  -2  11    0.45    0.21
   3   2  11    0.46    0.21
  -3  -2  11    0.81    0.25
  -3  -2  11    0.91    0.18
  -3  -2  11    0.66    0.22
  -3  -2  11    0.59    0.24
   3   3 -11   14.33    0.70
  -3   3  11   12.43    0.47
  -3   3  11   11.92    0.62
  -3   3  11   12.04    0.67
   3  -3  11   12.12    0.67
   3  -3  11   11.78    0.46
   3  -3  11   11.69    0.63
  -3  -3  11   12.42    0.68
  -3  -3  11   12.28    0.61
   3   3  11   12.23    0.62
  -3  -3  11   12.69    0.56
  -3   4  11   12.98    0.45
  -3   4  11   12.85    0.62
   3  -4  11   13.67    0.68
   3  -4  11   12.57    0.49
  -3   4  11   12.47    0.66
   3  -4  11   12.58    0.63
  -3  -4  11   13.85    0.58
   3   4  11   13.45    0.66
   3   4  11   12.38    0.60
  -3  -4  11   13.10    0.66
  -3  -4  11   12.52    0.61
   3  -5  11   29.41    1.01
   3  -5  11   30.19    0.87
  -3   5  11   28.58    0.98
   3  -5  11   29.71    1.07
  -3   5  11   28.77    1.06
  -3   5  11   28.25    0.77
   3   5  11   28.87    1.06
  -3  -5  11   29.70    0.97
  -3  -5  11   28.98    1.05
  -3  -5  11   30.71    0.94
  -3   6  11    5.37    0.38
   3  -6  11    5.62    0.37
   3  -6  11    5.25    0.39
   3  -6  11    5.76    0.31
  -3   6  11    5.44    0.34
  -3  -6  11    5.43    0.34
   3   6  11    5.57    0.38
  -3  -6  11    5.93    0.37
  -3   7  11   15.37    0.53
  -3   7  11   15.65    0.59
   3  -7  11   15.33    0.49
   3   7  11   15.63    0.58
  -3   0  12    0.03    0.15
  -3   0  12    0.30    0.18
  -3   0  12    0.08    0.14
   3   0  12    0.06    0.17
   3   0  12    0.01    0.14
  -3   0  12    0.22    0.10
  -3   1  12    9.78    0.56
  -3   1  12   11.21    0.41
   3  -1  12    9.99    0.54
  -3   1  12   11.17    0.55
   3  -1  12   10.84    0.58
  -3  -1  12   10.57    0.55
  -3  -1  12   11.00    0.57
   3   1  12   11.32    0.57
  -3  -1  12   11.22    0.59
  -3  -1  12   10.29    0.43
  -3   2  12   18.45    0.55
   3  -2  12   17.56    0.74
   3  -2  12   19.87    0.81
   3   2 -12   19.75    0.80
  -3   2  12   18.47    0.80
  -3   2  12   18.53    0.74
   3   2  12   18.75    0.73
  -3  -2  12   18.45    0.78
  -3  -2  12   18.96    0.64
  -3  -2  12   19.35    0.74
  -3   3  12    8.56    0.28
   3  -3  12    8.62    0.51
  -3   3  12    8.66    0.50
  -3   3  12    8.38    0.46
   3  -3  12    8.36    0.48
  -3  -3  12    8.75    0.46
  -3  -3  12    8.02    0.49
   3   3  12    8.68    0.45
  -3  -3  12    8.21    0.39
  -3   4  12    5.72    0.39
   3  -4  12    5.62    0.22
   3  -4  12    5.42    0.39
  -3   4  12    5.83    0.36
   3  -4  12    5.81    0.38
  -3  -4  12    5.34    0.30
  -3  -4  12    5.43    0.35
  -3  -4  12    5.30    0.38
   3  -5  12   12.84    0.37
  -3   5  12   12.88    0.55
   3  -5  12   13.27    0.56
   3  -5  12   12.04    0.52
  -3   5  12   12.98    0.50
  -3  -5  12   12.22    0.52
  -3  -5  12   12.83    0.46
  -3   0  13   -0.03    0.14
  -3   0  13    0.02    0.13
   3   0  13    0.00    0.13
   3  -1  13    5.21    0.32
   3  -1  13    3.62    0.33
  -3   1  13    4.59    0.33
  -3   1  13    4.75    0.31
   3   1  13    4.53    0.31
  -3  -1  13    4.92    0.31
  -3  -1  13    4.56    0.19
  -3  -1  13    4.33    0.33
  -3   2  13    1.72    0.20
   3  -2  13    1.86    0.24
  -3   2  13    1.90    0.23
   3  -2  13    1.55    0.20
  -3  -2  13    1.88    0.21
  -3  -2  13    1.58    0.22
  -3  -2  13    1.94    0.14
   3   2  13    1.70    0.20
   3  -3  13    3.60    0.30
   3  -3  13    4.08    0.29
  -3   3  13    3.80    0.26
  -3   3  13    4.09    0.29
  -3  -3  13    3.84    0.19
  -3  -3  13    3.98    0.26
  -3  -3  13    3.85    0.28
   4   0   0  462.52   14.67
  -4   0   0  473.24   13.40
  -4   0   0  473.13   13.18
   4   0   0  469.93   15.45
  -4   0   0  481.66   13.10
  -4   0   0  468.43   15.64
  -4   1   0  106.39    3.70
   4  -1   0  107.07    3.58
  -4   1   0  104.55    3.12
  -4  -1   0  106.50    3.23
  -4  -1   0  107.64    3.22
  -4   1   0  106.73    3.16
   4   1   0  108.74    3.53
   4  -1   0  108.42    3.74
   4   1   0  105.42    3.55
   4  -1   0  104.43    3.63
  -4  -1   0  106.54    3.15
  -4  -1   0  107.47    3.68
  -4   1   0  106.34    3.04
  -4  -2   0    2.58    0.31
  -4  -2   0    2.30    0.28
  -4   2   0    2.49    0.27
  -4   2   0    2.58    0.19
   4   2   0    2.15    0.31
   4  -2   0    2.10    0.24
   4  -2   0    2.40    0.24
   4  -2   0    1.84    0.25
  -4   2   0    2.27    0.17
   4  -2   0    1.93    0.31
  -4  -2   0    2.10    0.30
  -4  -2   0    2.07    0.25
   4  -2   0    1.79    0.29
   4  -2   0    3.55    0.37
  -4   3   0    0.85    0.20
  -4  -3   0    0.88    0.21
   4  -3   0    0.92    0.15
  -4   3   0    0.91    0.21
  -4  -3   0    0.66    0.18
   4  -3   0    1.22    0.23
   4  -3   0    0.97    0.18
   4  -3   0    1.25    0.25
   4   3   0    1.24    0.28
   4  -3   0    0.76    0.22
   4  -3   0    1.00    0.29
  -4  -3   0    0.90    0.23
   4  -3   0    1.23    0.30
   4  -3   0    0.89    0.16
  -4  -3   0    0.57    0.20
   4  -3   0    0.65    0.19
  -4  -3   0    1.05    0.17
   4  -4   0   24.39    0.91
  -4  -4   0   23.75    1.07
   4  -4   0   22.88    1.26
   4  -4   0   23.36    1.24
  -4  -4   0   22.21    1.17
   4  -4   0   21.94    1.00
  -4  -4   0   23.43    0.92
   4  -4   0   24.07    1.13
  -4  -4   0   22.14    1.12
  -4  -4   0   23.24    1.07
   4  -4   0   22.56    1.09
  -4  -4   0   24.20    1.08
  -4  -4   0   22.30    1.08
  -4   4   0   22.75    1.00
  -4   4   0   22.95    1.11
   4  -4   0   22.96    1.14
  -4  -4   0   22.73    0.97
  -4  -5   0   16.53    0.97
   4  -5   0   18.19    1.16
  -4  -5   0   17.34    1.00
  -4  -5   0   16.72    1.07
  -4  -5   0   17.20    0.77
  -4  -5   0   18.73    0.99
   4  -5   0   17.05    0.88
  -4  -5   0   17.29    0.95
   4  -5   0   15.46    0.75
   4  -5   0   16.87    1.12
  -4   5   0   16.98    0.84
   4  -5   0   16.96    0.98
   4  -5   0   17.29    1.00
  -4  -5   0   15.66    0.94
  -4  -5   0   17.16    0.88
   4   5   0   16.32    0.77
   4   6   0    2.87    0.39
  -4  -6   0    2.95    0.52
  -4  -6   0    2.32    0.44
   4  -6   0    2.91    0.38
  -4  -6   0    3.33    0.61
  -4  -6   0    2.51    0.48
   4  -6   0    2.21    0.40
   4  -6   0    2.34    0.46
   4  -6   0    2.80    0.59
   4  -6   0    3.54    0.66
  -4  -6   0    2.65    0.46
   4  -7   0   14.89    1.28
  -4  -7   0   16.61    1.05
  -4  -7   0   15.39    1.17
   4  -7   0   16.71    0.85
  -4  -7   0   15.75    1.13
   4  -7   0   15.20    1.13
   4  -7   0   15.70    0.93
  -4  -7   0   14.68    1.28
  -4  -7   0   15.70    0.85
   4   8   0    0.04    0.18
   4  -8   0    0.04    0.16
  -4  -8   0    0.07    0.28
  -4  -8   0    0.17    0.24
   4  -8   0    0.58    0.44
  -4   8   0    0.25    0.21
  -4   8   0    0.10    0.19
  -4  -9   0   11.29    0.64
  -4   9   0   12.04    0.65
   4  -9   0   11.77    0.78
   4   9   0   10.78    0.67
  -4  -9   0   12.87    0.98
  -4   9   0   12.27    0.66
   4  -9   0   12.54    0.78
  -4  10   0    3.14    0.39
   4  10   0    3.02    0.39
   4 -10   0    3.06    0.40
  -4  10   0    3.00    0.28
  -4 -10   0    2.93    0.42
  -4 -10   0    3.42    0.40
  -4 -10   0    3.72    0.57
   4 -10   0    3.44    0.47
   4 -11   0    6.97    0.48
   4  11   0    6.78    0.46
  -4 -11   0    7.37    0.43
  -4  11   0    7.53    0.44
   4 -12   0    2.46    0.20
  -4   0  -1  236.04    6.56
  -4   0   1  218.42    6.52
  -4   0   1  225.34    6.66
   4   0  -1  233.53    7.26
  -4   0  -1  235.37    6.40
   4   0   1  223.68    7.61
  -4   0   1  228.37    6.50
  -4   0  -1  239.27    6.55
  -4   0   1  222.47    7.73
  -4   0  -1  229.05    7.57
   4   0   1  219.18    7.28
   4   0  -1  233.67    7.70
   4   1  -1   14.91    0.74
   4  -1   1   18.50    0.83
   4   1  -1   15.26    0.71
  -4   1   1   17.70    0.79
   4  -1   1   18.41    0.84
  -4  -1  -1   17.13    0.67
  -4   1   1   17.48    0.68
   4  -1   1   17.93    0.67
   4  -1   1   20.01    0.91
  -4  -1  -1   16.36    0.67
   4   1  -1   15.75    0.71
   4  -1   1   17.87    0.72
  -4   1   1   17.08    0.67
  -4  -1  -1   16.33    0.73
  -4   1   1   17.69    0.69
  -4  -1   1   17.65    0.80
   4  -1  -1   16.70    0.89
   4  -1  -1   16.82    0.81
  -4  -1   1   17.59    0.76
   4   1   1   17.77    0.68
  -4   1  -1   16.07    0.70
  -4  -1   1   18.51    0.72
  -4  -1   1   17.51    0.73
   4   1   1   18.15    0.82
   4  -1  -1   15.72    0.76
   4  -1  -1   15.67    0.68
   4  -1  -1   15.28    0.82
   4  -2   1  110.04    3.84
   4  -2   1  114.70    4.12
   4  -2   1  113.75    3.91
  -4  -2  -1  119.33    3.48
   4  -2   1  112.78    3.44
  -4  -2  -1  113.93    3.89
  -4   2   1  112.68    3.35
  -4  -2  -1  113.93    3.49
   4  -2   1  111.23    3.52
   4   2  -1  114.89    3.93
  -4   2   1  112.84    3.48
   4   2  -1  119.85    3.85
  -4  -2  -1  121.07    3.56
  -4   2   1  115.22    3.40
   4   2  -1  118.76    3.83
  -4   2   1  112.27    4.04
   4   2   1  116.99    3.91
  -4   2  -1  114.84    4.01
   4  -2  -1  114.49    3.87
   4  -2  -1  118.70    3.93
   4  -2  -1  116.38    4.08
  -4  -2   1  116.34    3.58
  -4  -2   1  110.55    4.06
  -4  -2   1  115.01    3.49
   4  -2  -1  116.96    4.15
  -4  -2   1  110.72    3.52
   4  -2  -1  116.14    3.56
  -4  -3  -1   60.50    2.03
  -4  -3  -1   58.42    2.18
  -4  -3  -1   57.87    2.01
   4  -3   1   59.43    2.40
  -4   3   1   60.99    1.97
   4  -3   1   59.83    2.29
   4  -3   1   59.17    1.94
  -4  -3  -1   56.99    2.05
  -4   3   1   61.74    1.92
  -4  -3  -1   56.00    1.90
  -4   3   1   59.99    1.82
   4  -3   1   58.65    2.05
  -4   3   1   59.67    2.02
   4  -3   1   57.98    2.19
  -4   3   1   60.22    2.25
  -4  -3   1   61.17    2.08
  -4  -3   1   61.07    2.05
  -4   3  -1   57.30    2.25
   4  -3  -1   58.55    2.41
   4  -3  -1   60.01    2.32
   4   3   1   58.71    2.27
   4  -3  -1   58.80    2.30
  -4  -3   1   62.06    2.10
   4  -3  -1   57.98    2.22
   4  -3  -1   56.66    2.06
   4  -3  -1   56.74    2.06
  -4  -3   1   60.57    1.93
  -4   4   1   54.29    1.80
   4  -4   1   52.31    2.20
   4  -4   1   48.14    1.70
  -4   4   1   49.76    1.73
   4  -4   1   49.33    2.08
  -4  -4  -1   48.60    2.06
   4  -4   1   51.63    1.98
  -4  -4  -1   48.07    1.83
  -4  -4  -1   48.76    1.73
  -4  -4  -1   48.08    1.79
  -4  -4  -1   48.27    1.88
   4  -4   1   50.95    1.72
  -4  -4  -1   49.12    1.98
   4  -4   1   53.03    1.91
  -4   4  -1   45.23    1.79
  -4  -4   1   51.59    2.04
  -4  -4   1   50.64    1.75
   4  -4  -1   49.92    1.83
  -4  -4   1   49.37    1.89
   4  -4  -1   47.98    1.96
  -4  -4   1   47.29    1.85
  -4  -4   1   49.19    1.69
  -4  -4   1   48.97    1.86
   4  -4  -1   49.55    2.07
   4  -4  -1   47.27    1.70
   4  -4  -1   46.63    2.15
  -4  -4   1   50.65    2.06
  -4  -4   1   49.71    1.84
   4  -4  -1   47.58    1.88
   4  -4  -1   48.97    2.11
  -4   4  -1   47.40    2.00
   4  -5   1   29.60    1.42
   4  -5   1   29.72    1.62
  -4  -5  -1   31.60    1.60
  -4  -5  -1   30.06    1.40
   4  -5   1   30.13    1.21
  -4  -5  -1   29.84    1.38
  -4  -5  -1   32.58    1.34
   4   5  -1   28.33    1.14
  -4  -5  -1   29.43    1.44
   4  -5   1   30.63    1.44
   4  -5   1   30.38    1.17
  -4  -5  -1   32.19    1.32
   4  -5   1   28.63    1.56
  -4  -5   1   30.59    1.30
   4  -5  -1   31.00    1.33
  -4  -5   1   28.38    1.50
   4  -5  -1   31.93    1.53
   4  -5  -1   32.12    1.63
  -4  -5   1   29.67    1.36
  -4  -5   1   28.68    1.37
   4   5   1   28.81    1.16
  -4   5  -1   31.17    1.46
   4  -5  -1   30.15    1.64
   4  -5  -1   31.09    1.44
  -4  -5   1   30.80    1.19
  -4  -5   1   30.00    1.39
  -4  -5   1   30.33    1.42
  -4   5  -1   29.72    1.27
  -4  -5   1   30.06    1.51
   4  -5  -1   32.85    1.45
   4  -5  -1   31.34    1.14
  -4  -6  -1   50.00    2.30
   4  -6   1   54.48    2.48
  -4  -6  -1   52.78    2.22
  -4  -6  -1   52.47    2.47
   4  -6   1   53.95    1.93
   4  -6   1   54.44    1.87
  -4   6   1   51.24    1.85
   4  -6   1   54.62    2.24
  -4  -6  -1   48.91    2.14
  -4  -6  -1   51.70    2.13
   4  -6   1   54.41    2.56
  -4  -6   1   54.32    1.89
   4  -6  -1   51.71    1.81
  -4  -6   1   51.84    2.38
  -4  -6   1   52.21    1.85
  -4  -6   1   52.55    2.13
  -4   6  -1   53.98    1.99
  -4  -6   1   52.73    2.22
   4   6   1   54.30    1.87
   4  -6  -1   52.63    2.49
   4  -6  -1   50.80    2.22
   4  -6  -1   52.14    2.55
  -4  -6   1   51.62    2.40
   4  -6  -1   53.38    2.08
   4   6   1   54.00    1.86
  -4  -6   1   52.86    2.13
  -4  -6   1   53.30    2.17
  -4   7   1    5.49    0.51
  -4  -7  -1    6.11    0.51
   4  -7   1    5.15    0.75
   4  -7   1    6.69    0.53
  -4  -7  -1    6.38    0.84
   4  -7   1    5.89    0.98
  -4  -7  -1    5.19    0.69
  -4  -7  -1    6.40    0.73
  -4  -7   1    4.65    0.64
   4  -7  -1    6.84    0.51
   4  -7  -1    5.18    0.62
  -4  -7   1    5.66    0.50
  -4  -7   1    6.94    0.87
   4   7   1    6.14    0.52
   4  -7  -1    7.20    0.91
   4  -8   1    3.83    0.75
  -4   8   1    4.05    0.48
  -4  -8  -1    4.63    0.65
  -4   8   1    3.19    0.37
   4  -8   1    3.68    0.42
   4   8  -1    4.23    0.34
   4  -8   1    3.64    0.47
  -4   8   1    4.02    0.44
   4  -8   1    3.93    0.46
   4   8  -1    3.53    0.42
  -4  -8  -1    3.49    0.44
  -4   8  -1    4.32    0.48
   4   8   1    3.11    0.36
   4   8   1    4.11    0.51
  -4  -8   1    3.39    0.49
  -4  -8   1    2.88    0.38
  -4  -8   1    3.24    0.55
   4  -8  -1    3.64    0.54
   4  -8  -1    4.09    0.50
   4   8   1    2.78    0.38
   4   8   1    4.40    0.51
   4  -8  -1    4.46    0.78
  -4   8  -1    3.14    0.38
   4   9  -1    4.79    0.49
   4  -9   1    5.00    0.47
  -4  -9  -1    5.57    0.46
  -4  -9  -1    4.31    0.51
   4  -9   1    6.06    0.55
  -4   9   1    5.50    0.41
  -4   9   1    6.15    0.49
   4  -9   1    5.87    0.55
  -4  -9  -1    5.00    0.73
  -4   9   1    6.02    0.52
   4   9   1    6.21    0.54
  -4   9  -1    5.70    0.52
  -4   9  -1    5.04    0.50
   4  -9  -1    5.47    0.58
   4   9   1    6.44    0.51
  -4  -9   1    6.03    0.74
   4   9   1    6.17    0.50
  -4  -9   1    6.16    0.57
  -4  -9   1    5.85    0.50
   4 -10   1    0.72    0.25
  -4 -10  -1    0.47    0.21
  -4 -10  -1    0.26    0.37
   4  10  -1    0.47    0.20
   4 -10   1    0.48    0.23
  -4 -10  -1    0.73    0.27
  -4  10   1    0.19    0.19
  -4  10  -1    0.39    0.19
   4 -10  -1    0.95    0.28
  -4 -10   1    0.30    0.19
   4  10   1    0.39    0.20
  -4 -10   1    0.46    0.25
   4 -10  -1    0.46    0.25
   4  10   1    0.40    0.20
  -4  10  -1    0.51    0.21
   4  11  -1    3.77    0.34
   4 -11   1    3.56    0.34
  -4  11   1    3.17    0.31
  -4  11  -1    3.34    0.34
  -4 -11   1    3.97    0.33
  -4 -11   1    3.49    0.40
   4 -11  -1    4.13    0.41
   4  11   1    4.09    0.36
   4  11   1    4.16    0.37
   4 -12  -1    4.56    0.28
  -4 -12   1    4.55    0.33
  -4   0   2   52.67    1.76
   4   0   2   54.99    1.79
   4   0   2   52.79    2.02
  -4   0   2   51.05    1.81
   4   0   2   51.59    1.71
   4   0  -2   55.62    2.04
   4   0  -2   56.12    2.11
  -4   0   2   54.69    1.79
   4   0  -2   55.86    2.04
  -4   0   2   52.92    2.00
  -4   0  -2   54.61    1.66
  -4   0   2   54.69    1.77
  -4   0  -2   54.99    1.62
   4   0  -2   53.17    1.90
   4   0   2   52.26    1.96
  -4   1   2    7.20    0.39
  -4   1   2    6.64    0.43
  -4   1   2    6.80    0.44
   4  -1   2    7.58    0.50
   4  -1   2    6.58    0.43
   4  -1   2    6.82    0.48
  -4   1   2    6.67    0.42
  -4   1   2    6.13    0.43
   4  -1   2    7.06    0.50
  -4  -1   2    6.79    0.39
   4   1   2    6.65    0.48
   4  -1  -2    7.24    0.54
   4   1   2    7.17    0.43
  -4  -1   2    7.05    0.44
  -4  -1   2    7.22    0.46
  -4  -1   2    6.61    0.45
  -4  -1   2    7.66    0.48
  -4  -2  -2  130.83    4.04
  -4  -2  -2  134.95    4.61
  -4   2   2  137.54    4.67
   4   2  -2  135.35    4.66
   4  -2   2  137.91    4.54
  -4   2   2  135.96    3.90
   4   2  -2  130.08    4.71
  -4  -2  -2  135.29    4.06
  -4  -2  -2  136.04    4.15
   4  -2   2  136.43    4.08
  -4  -2  -2  135.98    4.08
  -4   2   2  139.14    4.18
  -4   2   2  137.08    4.07
   4  -2   2  136.12    4.51
   4  -2   2  135.77    4.15
   4  -2   2  140.39    4.84
   4   2  -2  130.96    4.42
  -4  -2   2  137.78    4.78
   4  -2  -2  133.55    4.56
  -4  -2   2  137.12    4.07
  -4  -2   2  136.00    4.16
   4  -2  -2  133.29    4.79
  -4  -2   2  145.55    4.24
   4  -2  -2  132.41    4.20
  -4  -2   2  138.96    4.12
  -4   2  -2  133.90    4.68
   4  -2  -2  129.52    4.86
   4  -2  -2  130.42    4.55
   4   2   2  135.06    4.57
  -4  -3  -2   52.33    1.84
   4   3  -2   52.36    1.87
  -4   3   2   56.52    1.90
  -4  -3  -2   52.54    1.96
   4   3  -2   55.69    2.12
  -4  -3  -2   52.49    1.93
   4  -3   2   58.71    2.00
   4  -3   2   60.64    2.19
  -4  -3  -2   54.47    1.93
   4  -3   2   57.80    2.14
  -4   3   2   58.08    1.96
  -4  -3  -2   52.54    1.89
   4  -3   2   56.67    2.32
   4  -3   2   56.61    1.92
  -4  -3   2   55.31    1.98
  -4  -3   2   54.85    2.00
  -4   3  -2   53.68    2.12
  -4  -3   2   56.58    1.97
  -4  -3   2   56.44    2.21
   4   3   2   54.98    2.19
  -4  -3   2   58.89    2.04
   4  -3  -2   55.80    2.16
  -4  -3   2   60.18    1.89
   4  -3  -2   54.51    2.20
  -4  -3   2   56.15    2.06
   4  -3  -2   52.07    1.99
   4  -3  -2   53.88    2.33
   4  -3  -2   52.68    2.18
   4  -3  -2   52.18    1.96
  -4   4   2   48.03    1.82
   4  -4   2   46.74    1.86
  -4  -4  -2   48.53    1.88
   4  -4   2   45.83    2.15
  -4  -4  -2   50.91    1.76
   4  -4   2   46.98    1.96
  -4   4   2   46.58    1.77
  -4  -4  -2   50.43    1.85
   4  -4   2   47.06    1.76
  -4  -4  -2   49.36    2.08
  -4  -4  -2   49.72    1.90
   4  -4   2   46.55    2.03
   4  -4   2   45.40    1.61
   4   4  -2   48.84    1.66
  -4  -4  -2   49.23    1.75
  -4  -4   2   47.90    2.05
  -4   4  -2   49.26    2.00
   4  -4  -2   50.66    2.01
  -4  -4   2   47.51    1.83
   4  -4  -2   52.32    2.14
   4  -4  -2   48.89    1.92
  -4  -4   2   47.32    1.85
  -4  -4   2   44.51    1.67
  -4  -4   2   47.97    1.95
   4  -4  -2   49.75    1.84
   4  -4  -2   52.62    2.09
  -4  -4   2   45.08    1.86
  -4  -4   2   47.97    1.89
  -4  -4   2   48.68    1.77
   4  -4  -2   50.95    2.23
  -4   4  -2   48.08    1.81
   4  -5   2   12.52    0.88
  -4  -5  -2   13.77    0.81
  -4  -5  -2   12.65    0.86
   4  -5   2   12.42    0.94
   4  -5   2   12.62    0.61
   4  -5   2   12.54    0.66
   4  -5   2   13.16    1.00
  -4  -5  -2   11.55    0.82
  -4  -5  -2   12.72    0.80
  -4  -5  -2   12.79    0.96
   4  -5   2   13.46    0.88
   4  -5   2   13.77    0.78
  -4  -5   2   12.93    0.78
  -4  -5   2   13.22    0.87
   4  -5  -2   12.60    0.79
   4  -5  -2   12.69    0.80
  -4  -5   2   13.15    0.79
  -4  -5   2   14.42    0.90
   4  -5  -2   12.60    0.98
  -4  -5   2   11.71    0.86
  -4  -5   2   12.47    0.65
  -4  -5   2   13.03    0.69
  -4  -5   2   13.26    0.87
  -4   5  -2   13.04    0.84
   4  -5  -2   11.96    0.85
   4  -5  -2   11.77    0.61
   4  -5  -2   13.20    0.89
   4  -5  -2   13.54    0.88
   4   5   2   12.62    0.66
  -4   5  -2   12.00    0.75
   4  -5  -2   11.84    0.97
   4  -6   2    7.94    0.85
  -4   6   2    7.09    0.55
  -4  -6  -2    7.82    0.71
  -4  -6  -2    7.22    0.73
   4  -6   2    7.09    0.54
   4  -6   2    5.72    0.82
  -4  -6  -2    8.50    0.87
  -4  -6  -2    8.08    0.74
   4  -6   2    7.84    0.77
  -4  -6   2    7.74    0.76
   4  -6  -2    8.07    0.67
  -4  -6   2    9.02    0.79
  -4  -6   2    7.38    0.53
   4  -6  -2    8.58    0.53
   4  -6  -2    8.27    0.88
   4   6   2    8.27    0.55
   4  -6  -2    8.10    0.77
  -4   6  -2    7.63    0.60
  -4  -6   2    7.20    0.73
   4  -6  -2    8.03    0.77
  -4  -6   2    7.25    0.53
  -4  -6   2    7.96    0.67
   4   6   2    7.82    0.54
   4  -6  -2    7.90    0.87
   4  -7   2   13.91    0.80
  -4   7   2   14.01    0.80
  -4  -7  -2   13.75    0.78
   4  -7   2   13.70    1.09
  -4  -7  -2   13.03    1.02
  -4  -7  -2   13.47    1.06
  -4  -7  -2   13.55    1.04
  -4  -7   2   14.33    1.10
  -4   7  -2   13.14    0.83
   4  -7  -2   14.88    1.12
   4   7   2   13.11    0.76
   4  -7  -2   13.83    0.93
  -4  -7   2   14.36    0.80
  -4  -7   2   14.05    0.93
  -4  -7   2   13.46    0.78
   4  -7  -2   13.98    0.75
  -4   8   2   34.03    1.23
  -4   8   2   33.01    1.40
   4  -8   2   34.15    1.24
   4  -8   2   34.36    1.44
  -4   8   2   33.88    1.16
   4   8  -2   33.10    1.20
   4   8  -2   33.73    1.28
  -4  -8  -2   33.01    1.69
  -4  -8  -2   33.17    1.40
   4  -8   2   31.81    1.82
  -4   8   2   34.44    1.34
   4  -8   2   34.06    1.34
  -4  -8   2   35.65    1.45
   4   8   2   34.06    1.23
  -4  -8   2   33.05    1.25
  -4   8  -2   32.38    1.19
  -4  -8   2   34.83    1.59
   4   8   2   33.01    1.29
   4   8   2   33.72    1.43
   4  -8  -2   28.89    1.80
   4   8   2   33.86    1.36
   4  -8  -2   32.47    1.58
   4  -8  -2   32.45    1.36
   4   8   2   34.64    1.13
  -4   8  -2   32.42    1.36
   4  -9   2    8.60    0.60
  -4   9   2    8.40    0.57
   4   9  -2    7.59    0.43
  -4  -9  -2    8.01    0.54
  -4  -9  -2    8.11    0.86
   4   9  -2    6.74    0.55
  -4   9   2    8.71    0.61
  -4  -9  -2    7.93    0.64
   4  -9   2   10.01    0.70
   4  -9   2    8.88    0.57
   4   9   2    9.67    0.55
  -4   9  -2    8.65    0.60
  -4  -9   2    8.02    0.58
   4   9   2    8.09    0.60
  -4   9  -2    8.34    0.55
   4  -9  -2    8.09    0.75
   4  -9  -2    7.53    0.61
   4   9   2    9.13    0.61
  -4  -9   2    8.94    0.67
   4   9   2    9.01    0.68
  -4  10   2   19.78    0.81
  -4 -10  -2   17.60    0.93
   4 -10   2   18.22    0.80
   4 -10   2   19.86    0.84
   4  10  -2   18.94    0.85
   4 -10   2   18.13    0.95
  -4 -10   2   19.51    0.96
   4  10   2   18.32    0.77
   4 -10  -2   17.92    0.91
   4  10   2   19.59    0.87
   4  10   2   19.78    0.89
  -4 -10   2   18.63    0.84
  -4 -10   2   19.40    0.96
  -4  10  -2   17.51    0.81
  -4  10  -2   18.40    0.80
   4 -11   2    3.21    0.26
  -4  11   2    2.67    0.29
   4 -11  -2    2.24    0.32
  -4 -11   2    3.44    0.34
  -4 -11   2    2.75    0.34
   4  11   2    3.46    0.35
   4  11   2    2.75    0.28
  -4  11  -2    2.82    0.31
  -4 -12   2    1.88    0.19
   4 -12  -2    2.12    0.22
   4   0   3   33.51    1.27
   4   0  -3   37.31    1.55
  -4   0   3   31.29    1.25
  -4   0   3   35.55    1.38
   4   0  -3   34.75    1.30
  -4   0   3   34.75    1.34
   4   0  -3   37.59    1.59
   4   0   3   35.16    1.42
   4   0   3   33.89    1.40
   4   0   3   36.07    1.20
   4   0   3   34.20    1.48
  -4   0   3   33.64    1.31
   4   0   3   33.40    1.29
   4   0  -3   36.16    1.47
   4  -1   3   32.93    1.32
   4   1  -3   31.18    1.43
  -4   1   3   32.60    1.26
  -4   1   3   31.57    1.27
   4  -1   3   32.87    1.25
   4   1  -3   28.53    1.15
   4  -1   3   31.41    1.21
  -4   1   3   32.48    1.13
  -4   1   3   33.39    1.30
   4  -1   3   32.77    1.44
   4  -1   3   33.10    1.36
   4   1  -3   31.80    1.43
   4   1  -3   30.31    1.35
  -4  -1  -3   29.91    1.14
   4  -1   3   32.76    1.00
   4   1   3   32.39    1.35
  -4  -1   3   32.36    1.30
  -4  -1   3   33.71    1.28
   4   1   3   31.96    1.20
  -4  -1   3   33.47    1.26
   4   1   3   32.49    1.29
  -4  -1   3   33.19    1.23
   4  -1  -3   29.16    1.34
  -4  -1   3   32.61    1.29
   4   1   3   33.58    1.24
   4  -1  -3   30.24    1.28
   4   1   3   33.90    1.38
   4  -1  -3   30.51    1.50
   4  -1  -3   29.82    1.42
  -4  -2  -3  112.32    3.96
  -4   2   3  113.74    3.59
  -4   2   3  113.07    3.50
   4  -2   3  114.80    4.12
   4   2  -3  114.42    4.02
   4  -2   3  113.63    3.84
   4   2  -3  109.23    3.61
   4  -2   3  114.66    3.49
   4   2  -3  115.63    3.87
   4  -2   3  109.28    3.78
   4  -2   3  112.60    3.53
   4  -2   3  106.65    3.37
   4   2  -3  105.10    3.56
  -4  -2  -3  107.64    3.42
  -4  -2  -3  111.50    3.43
  -4  -2  -3  112.10    3.52
   4   2  -3  110.00    3.99
   4  -2  -3  110.38    4.01
  -4  -2   3  106.88    3.40
  -4  -2   3  110.12    3.96
   4   2   3  109.59    3.46
  -4  -2   3  110.48    3.54
  -4  -2   3  109.11    3.59
   4  -2  -3  113.42    3.62
   4  -2  -3  110.41    4.19
  -4  -2   3  111.16    3.48
   4   2   3  112.03    3.87
  -4  -2   3  106.66    3.53
  -4  -2   3  113.29    3.52
   4  -2  -3  109.18    3.82
   4  -2  -3  109.71    3.91
  -4  -3  -3   69.74    2.40
  -4  -3  -3   68.70    2.33
  -4   3   3   73.04    2.49
   4  -3   3   73.33    2.62
   4   3  -3   68.40    2.69
   4  -3   3   70.42    2.26
  -4   3   3   72.08    2.43
   4  -3   3   74.71    2.49
   4  -3   3   69.44    2.41
   4  -3   3   75.42    2.91
  -4  -3  -3   69.60    2.45
  -4  -3  -3   69.75    2.38
  -4  -3  -3   69.65    2.71
   4   3  -3   70.12    2.62
   4   3  -3   65.00    2.38
   4  -3   3   71.30    2.65
  -4  -3   3   73.78    2.54
   4  -3  -3   70.31    2.70
   4  -3  -3   69.07    2.92
  -4  -3   3   70.46    2.40
  -4  -3   3   70.76    2.38
  -4  -3   3   69.73    2.69
   4  -3  -3   68.38    2.69
  -4  -3   3   72.64    2.69
   4  -3  -3   69.71    2.46
  -4  -3   3   72.32    2.51
  -4   3  -3   69.30    2.65
  -4  -3   3   67.09    2.30
   4  -3  -3   69.18    2.73
   4  -3  -3   70.04    2.53
  -4  -3   3   73.41    2.48
   4  -4   3  101.66    3.90
  -4  -4  -3   94.90    3.34
  -4  -4  -3  100.00    3.46
   4  -4   3  100.96    3.37
   4   4  -3   97.96    3.23
   4  -4   3   98.55    3.56
  -4  -4  -3   93.55    3.65
   4  -4   3   93.96    3.22
   4  -4   3   99.74    3.57
  -4  -4  -3   95.39    3.27
   4  -4   3   96.53    3.07
   4  -4   3   93.61    2.97
  -4  -4  -3   94.64    3.21
  -4   4   3   99.89    3.26
  -4   4   3  100.12    3.34
   4  -4  -3   98.85    3.41
  -4  -4   3   95.76    3.13
   4  -4  -3   99.60    3.69
   4   4   3   94.80    2.96
  -4  -4   3   97.49    3.27
   4  -4  -3   97.85    3.34
   4  -4  -3  101.27    3.60
  -4  -4   3   99.62    3.39
  -4  -4   3  101.31    3.36
  -4   4  -3   97.12    3.65
   4  -4  -3   96.69    3.92
  -4  -4   3   99.83    3.32
  -4   4  -3   92.29    3.28
  -4  -4   3  102.28    3.25
   4  -4  -3   96.86    3.72
   4  -5   3   11.87    0.64
   4  -5   3   11.94    0.61
  -4   5   3   10.50    0.80
   4  -5   3   10.21    0.92
  -4  -5  -3    9.12    0.88
   4  -5   3   11.92    0.87
  -4   5   3   10.87    0.63
   4  -5   3   11.17    0.84
   4  -5   3   11.26    0.86
   4   5  -3   10.14    0.61
  -4  -5  -3   10.03    0.69
  -4  -5  -3    9.94    0.77
   4  -5   3   10.83    0.77
  -4  -5  -3    9.85    0.79
   4  -5  -3    9.14    0.77
  -4  -5   3   10.28    0.68
   4   5   3   11.65    0.62
   4  -5  -3   10.59    0.81
  -4   5  -3   10.49    0.78
   4   5   3   10.47    0.63
  -4  -5   3   11.28    0.85
  -4   5  -3   10.16    0.73
  -4  -5   3   13.16    0.90
   4  -5  -3    9.70    0.76
  -4  -5   3   11.48    0.77
   4  -5  -3   10.16    0.90
   4  -5  -3   10.89    0.74
  -4  -5   3   10.88    0.60
  -4  -5   3   11.32    0.66
  -4  -5   3   10.20    0.80
   4  -5  -3    9.86    0.83
   4  -5  -3   10.32    0.94
  -4  -6  -3   15.87    1.27
  -4  -6  -3   15.20    1.09
   4  -6   3   17.98    1.33
   4  -6   3   16.40    0.81
  -4   6   3   17.43    0.88
  -4  -6  -3   17.80    1.09
   4  -6   3   16.97    0.85
   4  -6   3   18.03    1.17
   4  -6   3   16.82    1.13
  -4  -6  -3   15.99    1.12
  -4  -6   3   16.22    1.12
  -4  -6   3   18.69    1.18
  -4  -6   3   17.73    1.10
   4  -6  -3   18.73    1.30
   4  -6  -3   17.42    1.17
  -4  -6   3   17.82    0.97
  -4  -6   3   18.33    0.91
   4   6   3   16.69    0.84
   4  -6  -3   14.69    1.24
  -4   6  -3   16.57    0.99
   4   6   3   16.45    0.84
   4  -6  -3   17.60    1.16
   4  -6  -3   18.23    1.05
   4  -6  -3   17.77    1.16
  -4  -6   3   18.28    0.86
  -4  -6   3   18.69    1.19
  -4   7   3    5.03    0.51
  -4   7   3    4.99    0.53
   4  -7   3    5.79    0.80
   4  -7   3    5.60    0.50
   4  -7   3    6.14    0.54
  -4  -7  -3    5.69    0.51
  -4  -7  -3    5.24    0.80
  -4  -7  -3    4.80    0.70
  -4   7   3    4.23    0.44
   4   7  -3    4.91    0.48
   4  -7   3    5.50    0.55
   4   7   3    5.69    0.48
   4  -7  -3    4.38    0.60
  -4  -7   3    5.88    0.85
  -4  -7   3    5.48    0.57
  -4   7  -3    4.92    0.60
  -4  -7   3    4.43    0.52
  -4  -7   3    4.94    0.57
   4   7   3    4.69    0.36
   4  -7  -3    4.53    0.49
   4  -7  -3    5.28    0.83
   4   7   3    5.51    0.51
   4  -7  -3    4.15    0.68
   4   7   3    5.41    0.50
  -4  -7   3    4.05    0.46
   4  -8   3    0.26    0.41
   4   8  -3    0.63    0.25
  -4  -8  -3    0.66    0.39
   4   8  -3    0.34    0.21
  -4   8   3    0.59    0.26
   4  -8   3    0.42    0.26
  -4  -8  -3    0.67    0.26
   4  -8   3    0.33    0.22
  -4   8   3    0.39    0.21
  -4   8   3    0.52    0.24
   4  -8   3    0.53    0.23
   4  -8  -3    0.61    0.25
  -4   8  -3    0.78    0.23
   4   8   3    0.65    0.26
   4   8   3    0.33    0.24
   4  -8  -3    0.07    0.39
  -4  -8   3    0.44    0.23
  -4  -8   3    0.82    0.27
   4   8   3    0.33    0.18
   4  -8  -3    0.46    0.32
   4   8   3    0.14    0.22
   4   9  -3    6.77    0.45
  -4   9   3    5.87    0.47
  -4  -9  -3    6.76    0.58
   4  -9   3    6.28    0.50
   4   9  -3    6.23    0.51
  -4  -9  -3    5.92    0.80
   4  -9   3    6.34    0.47
  -4   9   3    5.67    0.50
   4  -9   3    6.18    0.57
   4   9   3    6.32    0.52
   4  -9  -3    6.79    0.60
  -4  -9   3    5.77    0.49
   4   9   3    5.60    0.42
  -4   9  -3    6.10    0.57
   4   9   3    5.67    0.57
   4  -9  -3    7.68    0.75
  -4  -9   3    6.24    0.60
  -4  -9   3    6.10    0.56
   4   9   3    5.89    0.50
  -4   9  -3    5.46    0.47
  -4 -10  -3    4.43    0.48
   4  10  -3    5.05    0.47
   4 -10   3    3.92    0.35
  -4  10   3    4.77    0.43
   4 -10   3    4.46    0.52
   4 -10   3    4.23    0.41
   4  10   3    4.38    0.46
   4  10   3    4.12    0.45
  -4  10  -3    5.25    0.46
  -4 -10   3    4.13    0.43
   4  10   3    3.66    0.34
   4  10   3    4.38    0.50
  -4  10  -3    3.93    0.40
  -4 -10   3    4.26    0.49
  -4 -10   3    4.93    0.47
   4 -11   3    9.90    0.48
  -4  11   3   10.13    0.46
   4 -11  -3   10.20    0.58
  -4 -11   3    9.07    0.50
  -4  11  -3   10.07    0.49
   4  11   3    9.98    0.51
   4  11   3    9.86    0.52
  -4 -11   3    9.75    0.51
   4 -11  -3    9.79    0.51
  -4  11  -3   10.04    0.42
  -4   0   4   14.31    0.82
  -4   0   4   14.28    0.72
   4   0   4   13.20    0.73
   4   0   4   14.92    0.76
   4   0   4   14.36    0.67
   4   0   4   14.79    0.65
   4   0   4   14.26    0.86
   4   0  -4   12.57    0.76
  -4   0   4   13.06    0.76
   4   0   4   14.16    0.77
   4   0  -4   12.59    0.86
   4   0   4   13.44    0.61
   4   0   4   13.19    0.80
   4   0  -4   13.70    0.93
  -4   0   4   15.49    0.81
   4   1  -4   72.38    2.88
   4  -1   4   68.95    2.82
   4  -1   4   68.46    2.28
   4  -1   4   69.63    2.56
   4   1  -4   71.10    2.74
   4   1  -4   69.70    2.47
   4   1  -4   74.41    2.77
  -4   1   4   72.90    2.48
   4  -1   4   72.25    2.44
   4  -1   4   70.53    2.45
   4  -1   4   71.75    2.67
  -4   1   4   72.70    2.52
  -4   1   4   72.39    2.53
  -4   1   4   72.51    2.28
   4  -1  -4   72.67    2.74
   4   1   4   71.59    2.40
   4  -1  -4   74.30    2.97
   4  -1  -4   73.20    2.79
   4  -1  -4   72.77    2.54
  -4  -1   4   71.39    2.46
   4   1   4   70.95    2.79
   4   1   4   70.52    2.45
  -4  -1   4   72.70    2.44
   4   1   4   72.24    2.64
  -4  -1   4   72.19    2.54
   4   1   4   71.23    2.60
  -4  -1   4   71.87    2.48
  -4  -1   4   70.12    2.29
   4  -2   4  159.08    5.46
   4   2  -4  169.58    5.82
  -4   2   4  156.50    5.10
   4   2  -4  160.39    5.14
  -4  -2  -4  162.83    4.88
   4  -2   4  160.28    5.84
  -4  -2  -4  165.78    5.77
   4  -2   4  160.88    5.05
  -4  -2  -4  170.84    4.94
   4  -2   4  156.88    4.85
   4   2  -4  167.86    5.54
   4   2  -4  162.58    5.74
  -4   2   4  156.80    5.11
  -4   2   4  159.16    5.00
   4  -2   4  158.50    4.97
   4  -2   4  159.34    5.34
  -4  -2   4  160.20    5.12
   4   2   4  164.83    5.03
  -4  -2   4  154.66    4.97
  -4  -2   4  160.33    5.00
  -4  -2   4  165.18    5.04
   4  -2  -4  156.72    5.14
  -4  -2   4  153.26    4.87
   4  -2  -4  167.92    5.98
   4  -2  -4  164.36    5.41
   4  -2  -4  162.55    5.55
   4   2   4  163.19    5.49
   4  -2  -4  167.68    5.75
   4   2   4  157.97    5.32
   4   3  -4  127.93    4.49
   4  -3   4  120.42    4.30
   4  -3   4  117.23    4.16
   4  -3   4  121.76    3.94
  -4   3   4  120.06    3.94
  -4  -3  -4  122.48    3.91
  -4  -3  -4  121.07    4.00
  -4  -3  -4  121.97    4.36
  -4  -3  -4  125.23    3.80
   4  -3   4  122.29    4.00
   4   3  -4  123.15    4.00
   4  -3   4  118.78    3.76
  -4  -3  -4  122.96    3.95
   4   3  -4  123.26    4.32
  -4   3   4  120.24    4.03
   4  -3   4  121.50    4.63
   4  -3  -4  124.93    4.04
   4  -3  -4  117.66    4.69
  -4  -3   4  118.55    3.98
  -4  -3   4  122.73    3.97
   4  -3  -4  121.94    4.37
  -4   3  -4  122.87    4.38
   4  -3  -4  125.94    4.10
   4  -3  -4  118.73    4.47
  -4  -3   4  122.66    4.06
  -4  -3   4  116.43    3.79
  -4  -3   4  122.23    3.94
   4  -3  -4  120.67    4.31
  -4  -4  -4    3.08    0.46
   4  -4   4    3.24    0.32
  -4  -4  -4    2.76    0.47
  -4  -4  -4    3.73    0.55
  -4   4   4    3.12    0.50
   4   4  -4    3.79    0.45
   4  -4   4    3.16    0.49
  -4  -4  -4    3.36    0.57
   4   4  -4    2.99    0.48
   4  -4   4    2.68    0.54
  -4   4   4    3.15    0.49
   4  -4   4    2.81    0.47
   4  -4   4    2.58    0.32
   4  -4   4    3.50    0.53
  -4  -4   4    3.21    0.39
  -4  -4   4    3.05    0.37
   4   4   4    3.54    0.34
   4  -4  -4    3.06    0.59
  -4  -4   4    3.40    0.50
  -4  -4   4    2.57    0.46
  -4   4  -4    3.14    0.45
   4  -4  -4    3.59    0.49
   4  -4  -4    2.77    0.50
  -4  -4   4    2.22    0.43
  -4   4  -4    2.99    0.42
  -4  -4   4    2.93    0.49
   4  -4  -4    3.12    0.51
   4  -4  -4    2.67    0.44
   4  -4  -4    3.03    0.52
  -4  -5  -4   13.86    1.01
   4  -5   4   15.71    1.05
   4  -5   4   15.32    1.02
  -4   5   4   15.54    1.03
  -4  -5  -4   15.41    1.16
   4  -5   4   14.59    0.75
   4  -5   4   14.42    1.17
  -4  -5  -4   13.87    0.98
   4  -5   4   14.91    0.77
   4   5  -4   16.01    0.85
  -4  -5  -4   16.26    0.88
  -4   5   4   15.44    1.04
  -4   5   4   14.47    0.79
   4  -5   4   14.89    1.06
  -4   5  -4   15.42    0.92
  -4  -5   4   15.81    0.98
  -4  -5   4   15.45    1.06
   4  -5  -4   15.42    1.07
  -4   5  -4   16.90    1.03
   4  -5  -4   16.64    0.98
   4   5   4   14.70    0.75
  -4  -5   4   15.04    1.04
   4  -5  -4   15.38    1.22
   4  -5  -4   14.60    1.11
   4   5   4   14.82    0.77
  -4  -5   4   15.46    0.82
   4  -5  -4   15.89    1.03
  -4  -5   4   16.27    1.07
   4   6  -4   12.53    0.80
   4  -6   4   13.02    0.73
  -4  -6  -4   12.10    0.88
   4  -6   4   12.02    1.05
   4  -6   4   12.78    1.00
  -4  -6  -4   10.98    0.96
   4  -6   4   12.33    1.01
  -4   6   4   11.53    0.73
   4  -6   4   12.19    0.70
   4  -6  -4   10.20    1.02
   4  -6  -4   11.66    0.89
   4  -6  -4   11.96    1.13
  -4   6  -4   12.26    0.89
   4  -6  -4   12.11    0.98
  -4  -6   4   11.70    0.74
   4   6   4   12.13    0.69
   4   6   4   11.54    0.71
  -4   6  -4   11.98    0.95
  -4  -6   4   11.41    0.92
   4  -6  -4   12.70    1.03
  -4  -6   4   13.37    1.08
  -4  -6   4   11.44    1.00
   4  -7   4   19.17    0.89
   4  -7   4   20.60    1.38
   4   7  -4   20.49    0.91
   4  -7   4   20.45    0.84
  -4  -7  -4   19.54    0.97
  -4   7   4   21.19    0.97
   4  -7   4   19.63    0.83
  -4   7   4   19.92    1.01
   4  -7   4   19.46    0.98
  -4   7   4   19.61    0.86
   4   7   4   20.08    0.96
  -4   7  -4   19.25    1.12
   4  -7  -4   17.65    1.32
   4  -7  -4   20.95    1.23
   4   7   4   18.86    0.72
  -4  -7   4   18.45    1.42
  -4  -7   4   18.98    0.99
  -4  -7   4   20.20    1.03
   4   7   4   19.55    1.01
  -4  -7   4   18.93    0.89
   4   7   4   19.27    0.91
  -4   8   4   12.06    0.71
  -4  -8  -4   13.37    0.78
   4  -8   4   12.11    0.61
  -4   8   4   11.90    0.66
   4  -8   4   12.02    0.69
  -4   8   4   12.45    0.78
   4   8  -4   12.96    0.71
   4  -8   4   12.60    0.79
   4   8  -4   12.74    0.71
  -4   8  -4   11.39    0.81
   4   8   4   11.89    0.79
   4   8   4   12.05    0.56
   4   8   4   12.45    0.72
   4  -8  -4   13.13    0.95
  -4  -8   4   12.51    0.79
   4   8   4   11.42    0.73
  -4   8  -4   13.20    0.66
  -4  -8   4   11.32    0.77
  -4  -8   4   10.67    0.67
  -4  -9  -4   26.11    1.54
   4  -9   4   25.71    1.19
   4  -9   4   26.34    0.91
  -4   9   4   25.99    1.11
   4  -9   4   26.26    1.05
  -4   9   4   24.37    1.00
   4   9  -4   25.13    1.01
  -4  -9  -4   26.32    1.19
   4   9  -4   25.88    1.06
  -4   9  -4   25.78    1.00
   4  -9  -4   25.17    1.35
  -4  -9   4   26.60    1.12
   4   9   4   25.64    1.12
  -4   9  -4   25.38    1.15
  -4  -9   4   25.45    1.05
   4   9   4   26.24    0.90
   4  -9  -4   25.81    1.20
   4   9   4   26.77    1.11
   4   9   4   27.26    1.22
   4 -10   4    6.95    0.47
  -4 -10  -4    6.92    0.54
   4 -10   4    6.35    0.54
  -4  10   4    6.85    0.44
  -4 -10   4    6.59    0.48
   4  10   4    6.69    0.50
  -4 -10   4    7.20    0.48
   4  10   4    7.16    0.56
   4 -10  -4    6.13    0.53
  -4  10  -4    6.21    0.44
  -4  10  -4    7.02    0.51
   4  10   4    7.49    0.51
   4  10   4    7.09    0.40
  -4  11   4    9.81    0.47
   4 -11   4    9.94    0.46
  -4  11   4   10.46    0.45
   4 -11  -4   10.45    0.51
   4  11   4    9.91    0.50
   4  11   4    9.96    0.40
  -4  11  -4   10.73    0.48
  -4 -11   4    9.65    0.44
  -4 -11   4    9.54    0.47
   4  11   4   10.03    0.50
  -4  11  -4   10.49    0.45
  -4   0   5   65.61    2.40
   4   0   5   66.45    2.25
   4   0  -5   62.44    2.79
   4   0   5   65.52    2.18
  -4   0   5   64.33    2.10
   4   0   5   65.47    2.37
  -4   0   5   66.38    2.45
   4   0   5   63.92    2.12
   4   0  -5   62.37    2.57
   4   0  -5   58.75    2.30
   4   0   5   66.76    2.54
  -4   0   5   66.62    2.24
  -4   0   5   66.63    2.38
   4   0   5   68.54    2.33
   4   0  -5   63.82    2.65
   4   0   5   67.87    2.44
   4   0   5   64.44    2.72
  -4   1   5   23.72    1.20
   4  -1   5   22.78    1.13
   4  -1   5   23.27    1.31
   4   1  -5   22.10    1.32
  -4   1   5   22.44    1.14
  -4   1   5   22.73    1.16
   4   1  -5   22.93    1.10
   4  -1   5   22.67    1.12
   4  -1   5   22.75    0.94
   4   1  -5   23.39    1.29
   4   1  -5   22.67    1.16
   4  -1   5   24.22    1.25
   4   1   5   23.09    1.08
  -4  -1   5   23.33    1.10
   4   1   5   22.61    1.08
   4  -1  -5   21.05    1.05
   4  -1  -5   21.85    1.13
  -4  -1   5   22.18    0.92
   4   1   5   22.83    1.18
   4   1   5   21.59    1.11
   4   1   5   23.51    1.15
  -4  -1   5   23.58    1.15
   4  -1  -5   24.27    1.34
  -4  -1   5   24.60    1.22
  -4  -1   5   23.47    1.16
   4  -1  -5   22.71    1.38
   4   1   5   22.37    0.91
   4   1   5   22.89    1.04
   4   1   5   22.05    1.27
   4  -2   5   30.32    1.17
  -4   2   5   31.52    1.41
  -4  -2  -5   28.90    1.26
   4   2  -5   29.59    1.53
  -4  -2  -5   29.12    1.54
   4  -2   5   29.75    1.58
  -4   2   5   29.72    1.42
   4   2  -5   28.12    1.55
   4   2  -5   28.52    1.28
   4  -2   5   29.33    1.36
  -4  -2  -5   29.13    1.31
   4  -2   5   29.81    1.36
   4   2  -5   29.07    1.43
   4  -2   5   30.61    1.49
  -4   2   5   30.23    1.42
  -4  -2  -5   28.20    1.42
  -4  -2   5   29.59    1.36
   4   2   5   28.55    1.34
   4  -2  -5   29.01    1.54
   4   2   5   30.31    1.37
  -4  -2   5   31.94    1.38
  -4  -2   5   30.97    1.41
  -4   2  -5   28.72    1.24
   4  -2  -5   29.63    1.66
   4  -2  -5   29.85    1.41
  -4  -2   5   29.56    1.42
  -4  -2   5   28.80    1.15
  -4  -3  -5   42.20    1.80
   4  -3   5   43.57    1.83
  -4  -3  -5   40.85    1.77
   4  -3   5   43.30    1.95
   4  -3   5   43.54    1.59
  -4  -3  -5   46.54    2.01
   4   3  -5   44.05    2.01
   4   3  -5   43.12    1.94
  -4   3   5   44.15    1.88
   4  -3   5   41.94    1.47
   4  -3   5   44.74    1.84
   4   3  -5   42.30    2.06
   4  -3   5   43.48    2.12
  -4   3   5   43.71    1.83
   4  -3  -5   41.60    1.88
  -4  -3   5   43.27    1.83
  -4  -3   5   43.99    1.82
   4  -3  -5   42.34    2.19
  -4  -3   5   44.35    1.61
  -4  -3   5   42.19    1.83
  -4   3  -5   40.56    1.80
   4   3   5   41.18    1.46
   4  -3  -5   41.70    1.88
   4  -3  -5   41.30    1.77
  -4  -3   5   42.38    1.87
   4  -3  -5   41.37    1.90
   4   3   5   46.34    1.87
   4  -3  -5   43.65    2.02
   4  -4   5   32.75    1.29
   4  -4   5   32.98    1.83
  -4   4   5   32.37    1.60
  -4  -4  -5   30.79    1.52
   4  -4   5   34.25    1.69
  -4  -4  -5   31.66    1.51
   4   4  -5   29.98    1.38
   4  -4   5   34.46    1.59
  -4   4   5   31.96    1.55
  -4   4   5   30.23    1.25
  -4  -4  -5   30.59    1.55
   4  -4   5   31.62    1.20
   4   4  -5   30.36    1.58
   4  -4   5   31.95    1.54
  -4  -4  -5   31.00    1.68
  -4  -4   5   33.20    1.53
   4   4   5   30.20    1.17
  -4  -4   5   31.41    1.57
   4  -4  -5   31.09    1.65
   4  -4  -5   29.45    1.56
   4  -4  -5   28.54    1.78
  -4  -4   5   32.29    1.58
   4  -4  -5   31.33    1.47
   4  -4  -5   29.27    1.61
  -4   4  -5   29.33    1.44
   4  -4  -5   29.20    1.57
  -4  -4   5   30.21    1.53
  -4  -4   5   32.62    1.32
   4   4   5   28.99    1.21
  -4   4  -5   31.30    1.53
  -4  -5  -5   13.00    1.00
   4   5  -5   11.41    0.78
   4  -5   5   10.36    0.97
   4  -5   5   10.86    1.10
  -4   5   5   11.48    0.96
  -4   5   5   11.19    0.69
   4  -5   5   11.55    0.94
  -4  -5  -5   13.54    1.13
   4  -5   5   10.53    0.93
  -4   5   5   11.24    0.96
   4  -5   5   11.17    0.69
  -4  -5  -5   12.37    0.99
   4  -5   5   11.78    0.67
  -4   5  -5   13.48    0.88
   4  -5  -5   11.72    1.12
  -4  -5   5   11.82    0.74
   4  -5  -5   12.60    0.96
   4  -5  -5   12.65    0.91
   4  -5  -5   13.40    1.10
  -4  -5   5   11.99    1.00
   4  -5  -5   12.94    1.01
  -4  -5   5   10.24    0.94
   4   5   5   11.62    0.67
   4   5   5   10.87    0.68
  -4  -5   5   11.03    0.96
  -4  -5   5   11.24    0.91
  -4   5  -5   12.88    0.92
  -4   6   5   18.95    0.97
  -4  -6  -5   17.79    1.11
   4   6  -5   17.29    0.97
   4  -6   5   20.32    0.98
  -4   6   5   17.59    0.87
  -4  -6  -5   17.58    1.30
   4  -6   5   20.61    1.33
   4  -6   5   19.57    0.81
   4  -6   5   18.88    0.94
   4  -6   5   19.97    1.36
  -4   6   5   17.71    0.81
   4  -6   5   20.73    0.90
  -4   6   5   18.08    1.33
  -4  -6   5   19.43    1.00
   4   6   5   17.51    0.89
  -4  -6   5   17.41    1.31
   4   6   5   18.52    0.95
  -4   6  -5   15.92    1.21
   4   6   5   18.16    0.92
   4  -6  -5   16.00    1.25
  -4  -6   5   19.10    1.00
   4   6   5   19.16    0.92
  -4   6  -5   18.68    1.13
   4  -6  -5   16.14    1.23
   4   6   5   18.23    0.64
  -4  -6   5   19.56    1.41
   4  -6  -5   18.01    1.16
  -4   7   5    8.29    0.60
   4  -7   5    7.55    0.61
   4   7  -5    8.17    0.58
   4  -7   5    7.64    0.52
  -4   7   5    7.61    0.57
   4  -7   5    7.42    0.55
  -4   7   5    7.54    0.54
  -4   7   5    8.98    0.66
   4  -7   5    8.69    0.64
   4  -7   5    8.60    1.08
  -4   7   5    8.13    0.52
  -4  -7  -5    8.99    0.66
  -4   7  -5    8.81    0.78
   4  -7  -5    9.43    1.13
   4   7   5    7.61    0.63
   4   7   5    8.21    0.42
  -4  -7   5    8.55    0.67
   4   7   5    7.87    0.58
   4   7   5    7.72    0.60
  -4  -7   5    8.40    0.62
   4  -7  -5    8.67    0.85
  -4  -7   5    8.54    0.57
  -4   8   5   10.34    0.66
   4  -8   5   10.34    0.71
   4  -8   5    9.51    0.62
  -4  -8  -5    9.14    0.68
  -4   8   5   10.48    0.57
   4   8  -5   10.65    0.65
  -4   8   5   10.51    0.71
  -4   8   5    9.99    0.61
   4   8  -5   10.88    0.68
  -4  -8   5   10.00    0.63
   4   8   5    9.80    0.48
  -4  -8   5   10.80    0.77
  -4   8  -5   10.48    0.61
   4   8   5   10.31    0.68
   4  -8  -5   10.29    0.90
  -4   8  -5   10.16    0.82
   4   8   5   10.71    0.68
   4   8   5   10.59    0.74
  -4  -8   5   11.20    0.66
  -4   9   5    7.05    0.47
   4  -9   5    6.73    0.59
  -4   9   5    7.38    0.53
  -4   9   5    7.79    0.49
   4   9  -5    7.52    0.50
   4  -9   5    7.64    0.53
   4   9  -5    7.28    0.53
  -4  -9  -5    7.86    0.61
   4   9   5    7.35    0.40
   4   9   5    7.89    0.56
   4   9   5    6.84    0.59
   4  -9  -5    7.57    0.60
  -4   9  -5    7.76    0.52
  -4   9  -5    8.52    0.63
   4  -9  -5    7.71    0.75
   4   9   5    7.55    0.56
  -4  -9   5    8.53    0.53
  -4  -9   5    7.58    0.51
   4  10  -5    6.09    0.33
  -4  10   5    6.12    0.39
   4 -10   5    5.60    0.41
  -4  10   5    5.63    0.40
  -4 -10   5    5.42    0.42
   4  10   5    5.80    0.49
  -4 -10   5    6.19    0.37
   4  10   5    5.91    0.32
  -4  10  -5    6.16    0.48
  -4  10  -5    6.72    0.43
   4  10   5    4.86    0.42
   4  10   5    5.95    0.45
   4 -10  -5    5.67    0.47
  -4  11   5    9.44    0.40
  -4  11   5    9.96    0.41
   4 -11   5    9.24    0.42
   4  11   5    9.93    0.46
   4 -11  -5    9.13    0.45
   4  11   5    9.80    0.46
  -4  11  -5    9.31    0.41
   4  11   5    9.74    0.33
  -4  11  -5    9.55    0.42
  -4 -11   5    9.41    0.44
  -4   0   6   23.92    1.26
   4   0  -6   21.72    1.45
  -4   0   6   23.63    1.13
  -4   0   6   24.42    1.27
  -4   0   6   23.60    1.27
   4   0   6   24.81    1.34
   4   0   6   23.41    1.18
   4   0   6   23.49    0.98
   4   0  -6   20.98    1.13
   4   0  -6   21.93    1.36
   4   0   6   23.49    1.24
   4   0   6   24.80    1.44
   4  -1   6   84.08    3.02
   4   1  -6   86.15    3.42
  -4   1   6   86.10    3.17
   4   1  -6   84.89    3.63
   4  -1   6   84.25    2.80
   4   1  -6   85.85    3.06
  -4   1   6   88.14    3.15
   4   1  -6   86.12    3.37
   4  -1   6   89.85    3.37
  -4   1   6   85.04    3.09
   4  -1   6   84.38    3.10
   4  -1   6   86.81    3.59
   4   1   6   86.83    2.98
  -4  -1   6   89.96    3.14
  -4  -1   6   82.87    2.97
  -4  -1   6   82.08    3.13
   4   1   6   87.87    3.13
   4   1   6   84.82    2.94
   4   1   6   85.26    3.27
   4   1   6   84.11    3.56
  -4  -1   6   85.80    2.77
   4   1   6   83.41    2.75
   4  -1  -6   87.60    3.34
   4   1   6   86.80    3.02
   4  -1  -6   88.77    3.70
  -4  -1   6   85.05    3.08
   4  -1  -6   83.28    3.41
  -4   2   6   43.79    2.00
   4  -2   6   45.31    2.27
  -4   2   6   44.57    1.96
  -4  -2  -6   47.81    2.07
   4   2  -6   48.08    2.20
   4   2  -6   48.30    2.31
   4  -2   6   45.33    1.97
  -4  -2  -6   46.43    1.91
   4  -2   6   45.22    1.96
   4   2  -6   45.82    1.88
  -4   2   6   44.81    2.00
   4  -2   6   44.91    2.10
   4   2  -6   49.69    2.12
  -4  -2  -6   47.84    2.30
   4  -2   6   45.67    1.69
   4  -2  -6   47.08    2.04
   4  -2  -6   46.27    2.36
  -4  -2   6   44.94    1.97
  -4   2  -6   48.73    1.88
  -4  -2   6   45.35    2.03
  -4  -2   6   44.44    1.96
   4   2   6   46.40    1.96
   4  -2  -6   46.85    2.19
  -4  -2   6   43.17    1.66
   4   2   6   46.57    1.98
   4   2   6   45.14    2.05
  -4  -2   6   46.36    1.93
  -4   3   6    5.83    0.75
  -4   3   6    5.40    0.47
   4  -3   6    5.95    0.78
   4  -3   6    4.94    0.47
   4   3  -6    7.49    0.85
  -4   3   6    4.86    0.71
   4   3  -6    7.34    0.91
   4   3  -6    6.32    0.67
   4  -3   6    5.68    0.89
   4  -3   6    3.64    0.59
  -4  -3  -6    5.20    0.66
   4  -3   6    5.05    0.76
  -4  -3  -6    7.14    0.76
   4   3  -6    6.34    0.59
  -4  -3   6    5.48    0.74
   4  -3  -6    6.22    0.61
   4  -3  -6    7.44    0.75
  -4  -3   6    4.95    0.47
   4  -3  -6    7.25    0.78
  -4  -3   6    5.50    0.77
  -4  -3   6    4.45    0.67
   4   3   6    4.08    0.43
   4   3   6    4.55    0.66
  -4   3  -6    6.40    0.58
  -4  -3   6    4.78    0.63
   4  -3  -6    6.24    0.89
  -4   4   6   64.30    2.22
  -4  -4  -6   65.01    2.66
  -4   4   6   60.46    2.57
   4  -4   6   59.67    2.76
  -4  -4  -6   63.64    2.58
  -4  -4  -6   63.95    2.59
  -4  -4  -6   66.31    2.89
   4   4  -6   67.64    2.84
   4  -4   6   61.13    2.59
   4   4  -6   67.97    2.97
   4  -4   6   61.42    3.03
   4   4  -6   68.94    2.49
  -4   4   6   59.39    2.62
   4  -4   6   63.14    2.28
   4  -4   6   62.61    2.62
  -4  -4   6   63.05    2.28
   4   4   6   61.63    2.18
  -4   4  -6   63.77    2.70
   4  -4  -6   66.70    2.78
  -4  -4   6   63.91    2.62
   4  -4  -6   66.66    2.81
   4  -4  -6   62.51    3.07
  -4  -4   6   65.93    2.64
  -4  -4   6   60.82    2.60
   4  -4  -6   63.13    2.67
  -4  -4   6   62.31    2.66
  -4   5   6   23.12    1.47
   4  -5   6   25.31    1.09
   4  -5   6   23.20    1.53
   4   5  -6   25.27    1.27
   4  -5   6   23.76    1.50
  -4  -5  -6   23.43    1.49
  -4   5   6   24.95    1.13
   4  -5   6   26.02    1.19
  -4  -5   6   22.05    1.47
   4   5   6   23.64    1.11
   4  -5  -6   26.95    1.42
  -4   5  -6   23.48    1.41
   4  -5  -6   25.54    1.48
  -4  -5   6   26.17    1.49
  -4   5  -6   25.30    1.34
   4  -5  -6   23.82    1.49
  -4  -5   6   24.57    1.18
  -4   6   6    4.34    0.53
   4  -6   6    3.21    0.38
  -4   6   6    3.44    0.35
   4   6  -6    4.67    0.50
   4  -6   6    3.52    0.77
   4   6  -6    4.23    0.56
  -4   6   6    3.21    0.42
   4  -6   6    3.72    0.69
   4  -6   6    3.45    0.45
   4  -6   6    4.43    0.49
  -4   6   6    3.05    0.36
   4  -6   6    4.33    0.43
  -4   6   6    4.46    0.49
   4  -6   6    4.23    0.50
  -4  -6   6    4.39    0.47
   4  -6  -6    4.59    0.69
  -4  -6   6    3.85    0.43
   4   6   6    3.09    0.42
   4   6   6    4.81    0.52
  -4  -6   6    3.92    0.51
   4  -6  -6    3.18    0.65
  -4   6  -6    4.63    0.60
   4   6   6    4.07    0.27
   4   6   6    4.51    0.54
   4  -7   6   10.41    0.73
   4  -7   6   11.08    0.78
  -4   7   6   11.98    0.77
  -4   7   6   12.06    0.71
  -4   7   6   11.95    0.69
  -4   7   6   11.41    0.64
   4   7  -6   11.86    0.78
  -4   7   6   12.46    0.61
   4  -7   6   12.01    0.69
   4  -7   6   12.19    0.65
   4   7  -6   12.63    0.70
  -4  -7   6   11.60    0.62
   4  -7  -6   12.35    1.00
  -4   7  -6   11.69    0.93
   4   7   6   12.08    0.75
  -4  -7   6   13.01    0.82
   4   7   6   11.54    0.71
   4   7   6   12.25    0.79
  -4  -7   6   11.77    0.68
   4   7   6   11.62    0.48
   4   8  -6    8.28    0.58
  -4   8   6    9.43    0.62
  -4   8   6    8.99    0.58
  -4   8   6    8.95    0.52
   4   8  -6    8.65    0.64
   4  -8   6    8.23    0.65
   4  -8   6    8.47    0.58
  -4   8   6    9.05    0.56
   4   8   6    9.54    0.69
  -4  -8   6    8.91    0.71
  -4   8  -6    8.65    0.77
   4  -8  -6    8.60    0.85
  -4  -8   6    7.73    0.54
  -4  -8   6    9.08    0.51
   4   8   6    9.21    0.63
   4  -8  -6    9.33    0.67
   4   8   6    8.73    0.61
  -4   9   6    1.12    0.25
  -4   9   6    0.95    0.21
   4   9  -6    1.30    0.27
   4  -9   6    0.98    0.23
  -4   9   6    0.98    0.22
  -4  -9   6    1.07    0.24
   4   9   6    1.10    0.26
  -4   9  -6    1.14    0.24
  -4  -9   6    1.04    0.17
   4  -9  -6    0.95    0.25
   4   9   6    0.94    0.27
   4   9   6    0.83    0.23
   4   9   6    0.89    0.16
  -4  10   6    7.52    0.39
  -4  10   6    7.00    0.40
   4 -10   6    7.53    0.44
   4  10  -6    8.24    0.38
   4  10   6    8.52    0.55
   4  10   6    7.84    0.47
  -4  10  -6    8.36    0.51
  -4  10  -6    8.45    0.45
   4 -10  -6    8.83    0.49
  -4 -10   6    8.25    0.45
   4  10   6    8.14    0.47
   4  10   6    8.21    0.31
   4   0   7    7.18    0.78
  -4   0   7    8.03    0.78
   4   0   7    6.13    0.78
   4   0  -7    7.95    0.88
   4   0   7    6.65    0.76
  -4   0   7    6.08    0.73
   4   0   7    6.49    0.94
   4   0   7    6.49    0.51
   4   0  -7    8.25    0.95
  -4   0   7    7.52    0.77
   4   0  -7    6.92    0.70
   4  -1   7   30.19    1.54
   4  -1   7   31.36    1.26
   4  -1   7   29.59    1.80
  -4   1   7   30.88    1.58
   4   1  -7   29.13    1.44
  -4  -1  -7   30.38    1.88
   4  -1   7   31.69    1.69
   4  -1   7   31.18    1.59
   4   1  -7   29.27    1.56
   4   1  -7   28.12    1.83
  -4   1   7   30.48    1.61
  -4   1   7   29.50    1.56
   4   1  -7   27.41    1.68
   4   1   7   29.10    1.57
  -4  -1   7   29.42    1.21
   4   1   7   29.45    1.62
   4  -1  -7   27.44    1.83
  -4  -1   7   29.64    1.56
   4  -1  -7   29.28    1.72
  -4  -1   7   30.50    1.57
  -4  -1   7   30.56    1.48
  -4  -1   7   31.23    1.63
   4  -1  -7   28.30    1.51
   4   2  -7   37.63    2.20
   4  -2   7   39.21    1.90
   4   2  -7   42.26    2.14
  -4   2   7   40.44    1.91
  -4   2   7   39.26    1.93
  -4  -2  -7   39.09    1.85
   4  -2   7   40.26    2.04
   4   2  -7   40.66    1.78
   4  -2   7   37.28    2.17
   4   2  -7   40.41    1.97
  -4  -2  -7   39.31    2.24
   4  -2   7   38.70    1.86
   4  -2   7   41.39    1.59
  -4   2   7   40.70    1.93
   4  -2  -7   39.04    2.09
   4  -2  -7   40.75    1.91
   4   2   7   43.56    2.18
   4  -2  -7   36.83    2.21
  -4  -2   7   41.40    1.56
   4   2   7   41.05    1.92
  -4   2  -7   41.16    1.76
  -4  -2   7   40.21    1.90
   4   2   7   39.30    1.88
  -4  -2   7   40.37    1.93
  -4  -2   7   40.56    1.86
  -4  -2   7   39.28    1.89
   4  -3   7   20.40    1.03
  -4   3   7   21.18    1.34
   4  -3   7   21.67    1.44
   4   3  -7   22.74    1.52
   4   3  -7   20.92    1.34
  -4  -3  -7   20.80    1.32
   4  -3   7   20.81    1.34
  -4  -3   7   22.24    1.05
   4  -3  -7   21.42    1.00
   4   3   7   21.33    1.37
  -4   3  -7   20.72    1.21
   4  -3  -7   22.99    1.51
  -4  -3   7   21.73    1.34
  -4  -3   7   21.48    1.40
  -4  -3   7   20.53    1.31
   4  -3  -7   22.00    1.30
   4  -3  -7   21.83    1.40
   4  -4   7   37.28    1.49
  -4   4   7   36.19    1.41
  -4   4   7   34.80    1.84
   4   4  -7   31.08    1.57
   4   4  -7   32.14    1.93
  -4  -4  -7   31.42    1.82
   4   4  -7   30.08    1.81
   4  -4   7   37.04    1.88
   4  -4   7   35.01    1.95
   4   4   7   35.47    1.41
   4  -4  -7   32.36    1.77
  -4  -4   7   33.45    1.77
  -4  -4   7   34.46    1.88
  -4   4  -7   31.27    1.73
   4  -4  -7   33.42    1.84
  -4  -4   7   36.34    1.48
   4  -4  -7   33.72    1.89
   4  -5   7   26.34    1.71
  -4   5   7   26.07    1.10
   4  -5   7   27.00    1.07
   4  -5   7   27.46    1.27
   4   5  -7   26.28    1.37
   4  -5   7   26.51    1.02
  -4   5   7   26.51    1.20
  -4   5   7   26.55    0.92
  -4   5   7   26.23    1.12
   4  -5   7   27.50    1.07
   4  -5   7   26.47    0.93
  -4   5   7   27.08    1.03
   4   5  -7   27.89    1.13
   4  -5   7   26.77    1.66
   4   5   7   26.13    1.13
   4  -5  -7   26.18    1.62
  -4  -5   7   26.57    1.08
  -4   5  -7   26.34    1.44
  -4  -5   7   26.80    0.94
  -4  -5   7   27.76    1.27
   4   5   7   26.86    0.74
   4   5   7   27.42    1.23
   4   5   7   26.55    1.14
  -4  -5   7   26.80    1.64
  -4   6   7    1.75    0.33
   4  -6   7    1.39    0.30
   4  -6   7    1.31    0.26
   4  -6   7    1.24    0.34
   4  -6   7    1.37    0.27
   4  -6   7    0.98    0.51
   4  -6   7    1.41    0.31
  -4   6   7    1.63    0.25
   4   6  -7    1.53    0.43
  -4   6   7    1.56    0.30
  -4   6   7    0.97    0.30
  -4   6   7    1.45    0.32
   4   6  -7    1.47    0.34
   4   6   7    2.03    0.38
   4   6   7    0.98    0.32
  -4  -6   7    1.28    0.22
   4   6   7    1.49    0.18
   4  -6  -7    0.91    0.52
  -4   6  -7    1.89    0.45
   4   6   7    1.63    0.36
  -4  -6   7    0.89    0.30
   4  -6  -7    0.70    0.47
   4  -7   7    5.84    0.58
   4   7  -7    6.20    0.50
  -4   7   7    5.47    0.49
  -4   7   7    5.82    0.49
   4  -7   7    5.86    0.46
  -4   7   7    6.14    0.47
   4  -7   7    5.32    0.46
   4  -7   7    5.51    0.45
  -4   7   7    5.91    0.41
  -4  -7   7    6.02    0.53
   4  -7  -7    5.82    0.78
   4   7   7    6.63    0.54
   4   7   7    5.94    0.57
  -4   7  -7    4.98    0.68
   4   7   7    5.60    0.52
   4   7   7    5.55    0.29
  -4  -7   7    5.64    0.34
  -4  -7   7    6.10    0.58
   4  -7  -7    5.66    0.55
  -4   8   7    0.13    0.17
  -4   8   7    0.29    0.18
  -4   8   7    0.22    0.17
  -4   8   7    0.19    0.14
   4   8  -7    0.51    0.26
   4  -8   7    0.07    0.18
   4   8   7    0.31    0.20
   4   8   7    0.17    0.18
   4   8   7    0.16    0.20
  -4  -8   7    0.11    0.17
   4   8   7    0.26    0.10
  -4  -8   7    0.19    0.23
   4  -8  -7    0.12    0.19
   4   9  -7    1.66    0.28
  -4   9   7    2.23    0.28
   4  -9   7    1.88    0.27
  -4   9   7    1.74    0.23
  -4   9   7    1.86    0.24
   4   9   7    1.91    0.32
  -4   9  -7    1.74    0.26
   4   9   7    1.83    0.15
   4   9   7    1.95    0.28
  -4  -9   7    2.43    0.29
   4   9   7    2.08    0.30
   4  -9  -7    1.52    0.29
  -4  10   7   25.08    0.73
  -4  10   7   25.22    0.77
   4 -10   7   24.42    0.83
   4 -10  -7   25.05    0.88
  -4  10  -7   23.98    0.91
   4  10   7   24.52    0.86
  -4  10  -7   25.05    0.81
   4  10   7   25.56    0.89
  -4 -10   7   24.36    0.80
   4   0   8   19.45    1.32
   4   0  -8   24.52    1.37
   4   0   8   18.94    1.39
  -4   0   8   20.13    1.34
   4   0   8   19.57    0.98
   4   0  -8   25.24    1.58
  -4   0   8   18.41    1.34
   4   1  -8   39.28    2.15
  -4   1   8   37.57    1.94
   4  -1   8   36.96    2.04
  -4   1   8   36.71    1.95
   4   1  -8   40.15    1.81
   4  -1   8   38.71    1.54
   4   1  -8   39.17    1.96
   4  -1   8   36.98    1.94
  -4  -1   8   35.08    1.90
   4  -1  -8   41.48    2.17
  -4  -1   8   36.61    1.92
   4   1   8   37.61    2.03
   4   1   8   37.95    1.95
   4  -2   8   21.58    1.52
   4  -2   8   24.19    1.07
   4  -2   8   23.85    1.50
   4   2  -8   24.47    1.48
   4  -2   8   22.71    0.76
  -4   2   8   21.74    1.45
  -4   2   8   22.47    1.46
   4   2  -8   26.12    1.69
   4   2  -8   23.96    1.34
   4  -2   8   24.29    1.15
   4  -2  -8   24.85    1.44
  -4   2  -8   24.25    1.33
  -4  -2   8   25.23    1.12
  -4  -2   8   23.04    1.10
  -4  -2   8   25.37    1.53
   4  -2  -8   25.81    1.67
  -4  -2   8   23.18    1.50
   4   2   8   23.48    1.51
   4  -3   8   11.34    0.68
   4  -3   8   11.29    1.10
   4  -3   8   12.16    0.78
  -4   3   8   11.67    0.63
   4  -3   8   12.71    1.15
   4  -3   8   11.37    0.62
   4  -3   8   11.43    0.49
   4   3  -8   14.86    1.29
  -4   3   8   11.09    0.54
  -4  -3  -8   13.21    1.13
  -4   3   8   11.85    1.08
  -4   3   8   11.57    0.67
  -4  -3   8   12.16    0.61
  -4  -3   8   11.62    1.12
  -4  -3   8   10.91    1.05
  -4  -3   8   11.31    0.67
  -4  -3   8   12.03    0.69
   4  -3  -8   13.20    1.21
  -4  -3   8   11.10    0.62
   4  -3  -8   13.40    1.15
  -4  -3   8   11.43    0.74
   4  -4   8   17.91    0.84
   4   4  -8   16.32    1.11
   4  -4   8   16.53    0.66
  -4   4   8   18.56    0.81
   4   4  -8   16.74    1.47
   4  -4   8   17.52    0.98
   4  -4   8   17.07    1.38
  -4   4   8   16.40    0.84
   4  -4   8   14.74    1.29
  -4   4   8   17.34    0.68
   4  -4   8   18.98    0.83
   4   4  -8   16.72    0.85
   4  -4   8   16.96    0.78
   4   4   8   18.02    0.88
   4  -4  -8   15.43    1.30
  -4  -4   8   17.38    1.34
  -4  -4   8   18.52    0.99
  -4  -4   8   18.56    0.87
   4  -4  -8   17.54    1.40
   4  -4  -8   17.33    0.93
   4  -5   8    2.90    0.46
  -4   5   8    2.73    0.38
   4  -5   8    3.40    0.80
   4   5  -8    3.30    0.44
  -4   5   8    3.78    0.42
   4  -5   8    3.43    0.38
  -4   5   8    2.85    0.30
   4   5  -8    3.18    0.55
   4  -5   8    2.92    0.39
   4  -5   8    3.84    0.43
   4  -5   8    2.99    0.32
  -4  -5   8    3.07    0.47
   4  -5  -8    2.94    0.44
  -4   5  -8    2.82    0.58
   4   5   8    3.28    0.44
   4   5   8    3.59    0.48
  -4  -5   8    3.54    0.41
   4   6  -8   12.19    0.92
   4  -6   8   12.63    0.67
  -4   6   8   13.07    0.72
  -4   6   8   12.32    0.70
   4  -6   8   11.74    0.60
  -4   6   8   13.18    0.68
   4  -6   8   12.62    1.36
   4   6  -8   12.76    0.72
  -4   6   8   12.98    0.57
   4  -6   8   12.43    0.70
   4  -6   8   12.14    0.68
   4  -6   8   12.95    0.85
  -4   6  -8   14.04    1.03
  -4  -6   8   13.95    0.78
  -4  -6   8   11.93    0.82
   4   6   8   12.11    0.72
   4  -6  -8   13.32    1.09
   4  -6  -8   13.04    0.82
   4   6   8   12.41    0.81
   4   6   8   13.42    0.75
   4  -7   8    5.73    0.57
  -4   7   8    5.35    0.46
  -4   7   8    5.42    0.46
   4  -7   8    5.57    0.45
   4  -7   8    5.38    0.42
  -4   7   8    5.38    0.36
   4  -7   8    5.99    0.46
  -4   7   8    5.51    0.44
   4   7   8    4.74    0.48
   4  -7  -8    5.23    0.71
  -4  -7   8    4.54    0.54
   4  -7  -8    4.28    0.50
   4   7   8    5.22    0.53
   4   7   8    6.04    0.50
  -4   8   8   11.90    0.56
  -4   8   8   11.24    0.58
  -4   8   8   11.31    0.48
   4  -8   8   10.69    0.55
   4  -8   8   11.70    0.59
   4   8  -8   11.87    0.68
   4  -8  -8    9.64    0.66
   4   8   8   11.22    0.62
   4   8   8   10.52    0.59
   4   8   8   10.97    0.68
  -4   9   8    3.29    0.24
   4  -9   8    3.07    0.31
  -4   9   8    3.29    0.26
   4   9  -8    4.59    0.35
  -4   9   8    3.13    0.29
   4   9   8    2.78    0.30
  -4   9  -8    4.17    0.32
   4   9   8    3.59    0.32
   4   0   9    7.19    1.05
  -4   0   9    6.10    0.51
  -4   0   9    6.63    0.49
   4   0   9    6.40    0.50
  -4   0   9    6.73    0.44
   4   0   9    6.93    0.26
   4   0  -9    6.56    1.06
   4   0   9    7.14    0.97
  -4   0   9    5.55    0.84
   4   0   9    7.13    0.56
  -4   0   9    6.27    0.52
   4   1  -9    6.47    0.84
   4  -1   9    6.52    0.55
  -4   1   9    6.05    0.51
   4  -1   9    6.44    0.93
   4  -1   9    6.26    0.57
   4   1  -9    7.14    1.08
  -4   1   9    6.30    0.46
   4  -1   9    5.98    0.29
  -4   1   9    5.51    0.38
   4  -1   9    6.36    0.49
  -4   1   9    5.71    0.50
  -4   1   9    7.01    0.97
   4  -1   9    7.63    1.08
   4   1   9    5.57    0.51
  -4  -1   9    6.40    0.93
  -4  -1   9    6.32    0.43
  -4  -1   9    5.95    0.49
   4  -1  -9    5.52    0.94
   4   1   9    4.27    0.84
  -4  -1   9    5.71    0.50
  -4  -1   9    6.08    0.51
   4   1   9    5.96    0.92
  -4   2   9   12.73    0.57
   4  -2   9   11.93    1.15
   4  -2   9   12.74    0.48
   4  -2   9   13.24    1.30
   4  -2   9   12.55    0.72
   4   2  -9   12.85    1.01
  -4   2   9   12.72    0.66
  -4   2   9   12.14    0.70
   4  -2   9   12.14    0.66
   4   2  -9   12.19    1.28
   4  -2   9   12.94    0.80
  -4  -2   9   13.15    0.81
  -4  -2   9   13.42    0.74
  -4  -2   9   12.82    0.63
  -4  -2   9   12.32    0.72
  -4  -2   9   13.86    1.22
   4   2   9   11.48    1.17
   4   2   9   12.04    0.67
   4  -2  -9   12.71    1.30
  -4  -2   9   13.32    0.68
   4  -3   9    9.49    1.20
   4  -3   9    7.89    0.53
  -4   3   9    8.66    0.59
   4  -3   9    8.77    1.15
   4  -3   9    8.57    0.67
   4  -3   9    7.47    0.39
   4  -3   9    7.58    0.57
   4   3  -9    8.81    0.87
   4   3  -9    8.23    1.15
  -4   3   9    8.05    0.44
  -4   3   9    7.15    0.53
   4  -3  -9    8.44    1.14
  -4  -3   9    7.82    0.65
  -4  -3   9    7.65    0.59
  -4  -3   9    7.36    0.52
  -4  -3   9    8.89    0.53
  -4  -3   9    8.67    1.14
   4  -3  -9    8.60    1.11
  -4  -3   9    8.42    0.59
  -4   4   9    1.71    0.27
  -4   4   9    1.67    0.24
   4  -4   9    1.40    0.58
   4  -4   9    2.00    0.41
  -4   4   9    1.90    0.34
   4   4  -9    0.90    0.65
   4  -4   9    1.16    0.20
   4  -4   9    1.49    0.29
   4   4  -9    1.62    0.45
   4  -4   9    1.26    0.27
   4   4  -9    1.72    0.32
  -4  -4   9    1.06    0.24
  -4  -4   9    1.43    0.30
  -4  -4   9    1.72    0.37
  -4  -4   9    2.14    0.33
   4   4   9    1.60    0.32
  -4   5   9    4.40    0.46
   4  -5   9    4.21    0.34
  -4   5   9    3.28    0.37
   4   5  -9    3.63    0.59
   4   5  -9    4.00    0.45
   4  -5   9    4.37    0.55
   4  -5   9    3.51    0.40
  -4   5   9    3.55    0.32
   4  -5   9    4.57    0.46
   4  -5   9    3.39    0.38
   4  -5  -9    3.58    0.48
   4   5   9    3.42    0.42
  -4  -5   9    3.79    0.51
  -4   5  -9    4.99    0.76
  -4  -5   9    3.85    0.42
   4  -6   9    2.79    0.43
   4  -6   9    2.68    0.36
  -4   6   9    2.80    0.35
   4  -6   9    2.09    0.31
   4  -6   9    2.59    0.33
   4  -6   9    2.64    0.30
  -4   6   9    2.90    0.27
  -4   6   9    2.91    0.34
   4   6   9    2.30    0.40
   4  -6  -9    2.81    0.42
  -4  -6   9    2.92    0.36
  -4   6  -9    2.99    0.59
   4   6   9    3.22    0.40
  -4  -6   9    2.71    0.41
  -4   7   9    0.83    0.21
   4  -7   9    0.57    0.19
  -4   7   9    0.51    0.17
   4  -7   9    0.93    0.24
  -4   7   9    0.59    0.15
   4  -7   9    0.69    0.21
   4   7   9    0.28    0.18
   4  -7  -9    1.20    0.23
   4   7   9    0.60    0.25
   4  -7  -9    0.81    0.24
   4   7   9    0.72    0.22
   4  -8   9    0.34    0.16
  -4   8   9    0.51    0.17
   4  -8   9    0.59    0.16
  -4   8   9    0.24    0.11
   4   8  -9    0.20    0.22
  -4   8   9    0.28    0.14
   4  -8  -9    0.10    0.15
  -4   8  -9    0.39    0.15
   4   8   9    0.58    0.17
   4   8   9    0.53    0.18
   4   9  -9    7.95    0.38
  -4   9  -9    6.72    0.34
   4   9   9    7.75    0.38
   4   0  10   23.94    1.77
   4   0  10   26.90    1.09
   4   0 -10   26.32    1.83
   4   0  10   26.29    1.02
  -4   0  10   26.45    1.11
  -4   0  10   27.56    1.09
  -4   0  10   27.15    0.91
  -4   0  10   27.53    1.03
  -4   1  10   19.05    0.72
   4   1 -10   20.44    1.32
  -4   1  10   18.25    0.89
   4   1 -10   19.21    1.60
  -4   1  10   19.98    0.84
   4  -1  10   19.40    0.91
   4  -1  10   19.08    0.57
   4  -1  10   17.46    1.55
  -4   1  10   20.31    0.89
   4  -1  10   20.40    0.88
  -4  -1  10   19.88    0.83
  -4  -1  10   19.36    0.91
  -4  -1  10   19.91    0.90
   4  -1 -10   17.60    1.53
  -4  -1  10   20.00    0.77
   4   1  10   19.94    0.85
  -4   2  10   26.78    1.10
   4   2 -10   21.32    1.75
   4  -2  10   27.03    0.79
   4  -2  10   26.45    1.25
   4  -2  10   28.31    1.03
   4  -2  10   26.99    1.10
  -4   2  10   27.20    0.88
   4  -2  10   23.67    1.77
  -4   2  10   28.17    1.03
   4   2 -10   23.92    1.44
   4   2  10   28.35    1.03
  -4  -2  10   26.06    0.93
  -4  -2  10   25.65    1.07
   4  -2 -10   22.62    1.76
  -4  -2  10   26.11    1.09
  -4  -2  10   26.91    1.00
   4   3 -10    9.51    0.93
   4  -3  10   11.04    0.46
  -4   3  10   10.31    0.58
   4  -3  10   10.76    0.77
   4  -3  10    7.91    1.16
  -4   3  10   10.49    0.48
   4  -3  10   10.84    0.65
  -4   3  10   10.44    0.64
   4  -3  10   11.15    0.61
  -4  -3  10    9.74    0.63
  -4  -3  10    9.84    0.57
  -4  -3  10   11.10    0.55
  -4  -3  10   10.52    0.77
   4  -4  10   22.32    0.92
  -4   4  10   22.43    0.77
  -4   4  10   23.36    0.91
  -4   4  10   23.31    0.98
   4   4 -10   21.76    0.97
   4  -4  10   23.33    0.77
   4   4 -10   21.45    1.28
   4  -4  10   23.28    0.98
   4  -4  10   22.52    1.16
   4   4  10   23.07    0.98
  -4  -4  10   22.76    0.87
  -4  -4  10   22.40    1.13
  -4  -4  10   22.91    0.89
  -4  -4  10   23.74    0.98
   4  -5  10    9.21    0.45
  -4   5  10    8.62    0.55
  -4   5  10    8.89    0.42
  -4   5  10    9.52    0.54
   4  -5  10    8.82    0.58
   4  -5  10    8.75    0.55
   4   5 -10    9.28    0.57
  -4  -5  10    8.31    0.52
   4   5  10    8.26    0.56
  -4  -5  10    9.83    0.59
  -4   6  10    2.13    0.30
   4  -6  10    1.95    0.24
   4  -6  10    2.29    0.32
   4  -6  10    2.08    0.28
  -4   6  10    1.89    0.19
  -4   6  10    1.91    0.27
   4   6  10    1.77    0.29
  -4  -6  10    1.62    0.25
  -4   7  10    4.84    0.33
   4  -7  10    5.18    0.31
   4  -7  10    4.36    0.36
   4  -7  10    4.75    0.34
  -4   7  10    4.74    0.24
  -4   7  10    4.81    0.35
   4   7  10    4.62    0.36
   4   8 -10    2.66    0.28
  -4   8  10    2.59    0.21
  -4   8  10    2.29    0.25
   4  -8  10    2.10    0.19
   4   8  10    2.84    0.24
  -4   8 -10    2.41    0.23
  -4   0  11   24.74    1.02
  -4   0  11   23.55    0.93
  -4   0  11   24.81    1.00
   4   0  11   23.29    0.95
  -4   0  11   24.75    0.83
   4   0  11   24.93    1.00
  -4   1  11    3.47    0.39
  -4   1  11    3.57    0.29
  -4   1  11    4.26    0.46
   4  -1  11    2.89    0.34
  -4   1  11    3.32    0.38
   4   1 -11    2.06    0.56
   4  -1  11    3.26    0.38
  -4  -1  11    2.71    0.35
  -4  -1  11    3.46    0.40
  -4  -1  11    3.80    0.33
   4   1  11    3.24    0.37
  -4  -1  11    2.96    0.34
   4  -2  11    8.18    0.31
  -4   2  11    8.25    0.52
   4  -2  11    9.03    0.58
   4   2 -11    7.28    0.91
  -4   2  11    8.63    0.40
   4  -2  11    7.94    0.53
  -4   2  11    8.59    0.56
  -4  -2  11    8.42    0.56
  -4  -2  11    8.98    0.58
  -4  -2  11    8.70    0.45
   4   2  11    8.75    0.53
  -4  -2  11    8.05    0.52
   4  -3  11    8.54    0.35
   4   3 -11    8.53    0.55
  -4   3  11    8.09    0.54
   4  -3  11    8.67    0.53
  -4   3  11    9.14    0.40
  -4   3  11    7.89    0.50
   4  -3  11    8.19    0.56
  -4  -3  11    8.43    0.46
  -4  -3  11    8.85    0.52
  -4  -3  11    8.17    0.54
   4  -4  11    0.50    0.13
   4   4 -11    0.41    0.20
  -4   4  11    0.49    0.19
  -4   4  11    0.55    0.21
   4  -4  11    0.84    0.21
   4  -4  11    0.32    0.20
  -4   4  11    0.71    0.14
  -4  -4  11    0.51    0.18
  -4  -4  11    0.65    0.21
  -4  -4  11    0.89    0.21
  -4   5  11    8.94    0.47
   4  -5  11    9.04    0.38
  -4   5  11    9.49    0.35
   4  -5  11    8.96    0.53
   4  -5  11    9.25    0.49
  -4   5  11    9.33    0.52
  -4  -5  11    8.80    0.46
  -4  -5  11    9.38    0.52
   4   5  11    9.32    0.51
  -4   6  11    3.99    0.32
   4  -6  11    4.15    0.25
  -4   6  11    4.49    0.31
   4  -6  11    4.76    0.35
   4  -6  11    3.96    0.32
  -4   6  11    4.14    0.17
  -4  -6  11    4.31    0.29
   4   6  11    4.15    0.32
  -4  -6  11    3.99    0.31
  -4   7  11    0.81    0.14
   4  -7  11    0.64    0.10
  -4   7  11    0.34    0.12
  -4   7 -11    0.84    0.15
  -4   0  12   14.52    0.52
   4   0  12   14.88    0.65
  -4   0  12   14.84    0.69
   4   0  12   14.12    0.67
  -4   0  12   14.25    0.67
  -4   0  12   15.40    0.64
  -4   1  12   17.60    0.58
  -4   1  12   17.80    0.78
  -4   1  12   19.13    0.73
   4  -1  12   18.53    0.77
   4  -1  12   16.93    0.71
  -4  -1  12   17.78    0.61
  -4  -1  12   18.28    0.72
  -4  -1  12   17.27    0.77
   4   1  12   17.44    0.70
  -4  -1  12   16.28    0.74
  -4   2  12   21.40    0.63
   4  -2  12   21.36    0.85
   4   2 -12   19.26    0.82
  -4   2  12   21.70    0.87
   4  -2  12   21.12    0.80
  -4   2  12   21.32    0.79
  -4  -2  12   20.97    0.77
  -4  -2  12   20.61    0.84
  -4  -2  12   21.29    0.69
   4   2  12   21.41    0.77
  -4   3  12    3.94    0.36
   4   3 -12    4.72    0.36
  -4   3  12    3.92    0.32
  -4   3  12    4.10    0.20
   4  -3  12    4.70    0.39
   4  -3  12    3.35    0.32
  -4  -3  12    4.11    0.32
  -4  -3  12    3.97    0.28
  -4  -3  12    3.97    0.35
   4  -4  12    4.15    0.33
  -4   4  12    3.96    0.30
  -4   4  12    4.13    0.33
   4  -4  12    3.37    0.33
  -4  -4  12    4.46    0.28
  -4  -4  12    4.04    0.33
  -4   5  12    4.73    0.32
   4  -5  12    4.87    0.33
   4  -5  12    5.40    0.32
  -4   5  12    4.87    0.29
  -4  -5  12    5.05    0.27
  -4  -5  12    4.80    0.31
  -4   0  13   12.87    0.37
  -4   0  13   12.89    0.53
   4   0  13   13.34    0.52
  -4   0  13   13.02    0.51
  -4   1  13    7.91    0.39
   4  -1  13    8.22    0.41
  -4   1  13    8.06    0.42
   4  -1  13    7.65    0.39
   4   1 -13    7.05    0.40
   4   1  13    8.74    0.39
  -4  -1  13    8.59    0.39
  -4  -1  13    8.09    0.29
  -4  -1  13    7.99    0.41
   4  -2  13    0.16    0.12
  -4   2  13    0.09    0.13
  -4   2  13    0.09    0.11
   4  -2  13    0.39    0.14
  -4  -2  13    0.13    0.07
  -4  -2  13    0.21    0.14
  -4  -2  13    0.20    0.12
  -4   3  13    1.83    0.18
   4  -3  13    1.91    0.21
   4  -3  13    2.20    0.21
  -4   3  13    2.21    0.23
  -4  -3  13    2.24    0.15
  -4  -3  13    1.50    0.18
   5   0   0    0.65    0.16
  -5   0   0    0.70    0.17
   5   0   0    0.68    0.19
   5   0   0    0.76    0.22
  -5   0   0    0.65    0.14
  -5   0   0    1.12    0.22
  -5   0   0    0.82    0.14
  -5   1   0  247.57    7.01
  -5  -1   0  244.49    7.21
   5  -1   0  248.02    8.03
  -5  -1   0  248.13    8.44
  -5  -1   0  259.01    7.14
   5  -1   0  247.57    7.22
   5  -1   0  247.80    7.95
   5   1   0  253.09    8.02
   5  -1   0  252.64    8.44
  -5   1   0  252.93    7.16
  -5   1   0  251.72    7.18
  -5   1   0  249.51    8.47
  -5  -1   0  249.03    7.30
   5   1   0  250.50    8.22
   5  -2   0  154.19    5.24
  -5  -2   0  156.63    4.64
  -5  -2   0  158.30    5.42
  -5  -2   0  156.37    4.76
   5  -2   0  155.30    5.51
   5  -2   0  159.04    5.19
  -5   2   0  161.51    4.61
   5   2   0  158.18    5.20
  -5   2   0  156.17    4.53
   5  -2   0  145.55    4.69
  -5  -2   0  159.25    4.73
  -5   2   0  159.93    4.43
  -5   2   0  153.35    5.44
   5  -3   0  579.58   16.56
   5  -3   0  554.90   17.12
  -5  -3   0  573.48   16.20
   5  -3   0  588.40   19.16
  -5  -3   0  564.23   16.21
  -5  -3   0  548.19   16.47
  -5   3   0  555.82   17.20
   5  -3   0  585.06   18.12
  -5  -3   0  589.54   16.60
   5   3   0  577.33   18.04
  -5  -3   0  564.99   19.18
   5  -3   0  590.14   16.05
   5  -3   0  573.71   17.87
  -5   3   0  585.77   19.21
  -5  -4   0   58.28    2.01
  -5  -4   0   59.38    2.41
  -5  -4   0   59.01    2.20
   5  -4   0   58.61    2.47
  -5   4   0   59.15    2.13
   5  -4   0   61.47    2.06
  -5  -4   0   59.29    2.40
  -5   4   0   63.25    2.42
   5  -4   0   61.03    2.60
  -5  -4   0   60.71    2.18
  -5  -4   0   60.56    2.23
  -5  -4   0   60.04    2.20
   5  -4   0   61.54    2.23
   5  -4   0   59.04    2.34
   5  -4   0   58.89    2.09
  -5  -5   0   24.42    1.18
  -5  -5   0   21.25    1.19
   5  -5   0   21.29    1.17
   5  -5   0   21.29    1.31
  -5  -5   0   21.85    0.94
  -5  -5   0   21.55    1.13
   5  -5   0   22.23    1.19
   5  -5   0   20.87    1.35
   5   5   0   19.96    0.91
  -5  -5   0   21.47    1.12
  -5  -5   0   21.69    1.28
   5  -5   0   21.62    1.01
   5  -5   0   20.97    0.91
  -5  -5   0   22.08    1.17
  -5   5   0   21.67    1.01
   5  -6   0   24.75    1.04
  -5  -6   0   24.04    1.38
   5  -6   0   23.14    1.50
  -5  -6   0   22.42    1.45
   5  -6   0   24.44    1.13
   5   6   0   23.77    1.05
  -5  -6   0   22.89    1.29
   5   6   0   23.71    1.03
  -5  -6   0   23.91    1.26
  -5  -6   0   22.00    1.31
   5  -6   0   22.14    1.50
  -5   6   0   24.56    1.06
   5  -6   0   23.73    1.36
   5  -7   0    0.29    0.20
  -5  -7   0    0.57    0.32
   5   7   0    0.73    0.22
   5  -7   0    0.29    0.22
  -5  -7   0    0.40    0.22
  -5  -7   0    0.11    0.31
  -5  -7   0    0.05    0.30
   5  -7   0    0.54    0.34
  -5   8   0   12.19    0.71
   5  -8   0   12.29    0.75
   5   8   0   12.04    0.69
  -5  -8   0   11.14    0.75
   5   8   0   11.68    0.70
  -5   8   0   13.13    0.68
   5  -8   0   11.98    0.78
   5  -8   0   10.98    1.11
  -5  -8   0   11.97    0.96
  -5   9   0    2.99    0.36
  -5  -9   0    3.37    0.40
  -5   9   0    3.99    0.42
  -5  -9   0    3.21    0.56
   5  -9   0    3.89    0.46
  -5  -9   0    2.74    0.44
   5  -9   0    3.32    0.46
   5   9   0    2.42    0.36
   5  10   0    5.03    0.49
  -5  10   0    4.47    0.32
   5 -10   0    3.92    0.46
  -5 -10   0    3.96    0.42
  -5 -10   0    3.26    0.44
   5 -10   0    3.63    0.41
  -5  10   0    4.31    0.42
  -5  11   0    0.48    0.16
  -5 -11   0    0.43    0.16
   5 -11   0    0.36    0.17
   5  11   0    0.41    0.17
   5   0  -1    0.84    0.20
  -5   0   1    1.11    0.22
   5   0   1    1.27    0.25
   5   0   1    1.12    0.22
  -5   0  -1    1.13    0.15
  -5   0  -1    0.97    0.15
   5   0  -1    1.46    0.28
   5   0  -1    1.17    0.18
   5   0  -1    1.05    0.21
  -5   0   1    1.38    0.21
  -5   0   1    1.34    0.19
  -5   0   1    1.21    0.23
  -5   0  -1    1.33    0.23
  -5   0  -1    1.04    0.13
   5   0   1    1.35    0.22
  -5   1   1  266.89    7.61
   5  -1   1  270.63    9.03
   5  -1   1  269.80    8.60
  -5   1   1  268.62    7.65
  -5  -1  -1  265.61    8.92
   5  -1   1  265.81    7.68
   5  -1   1  265.43    7.74
   5   1  -1  261.63    8.96
  -5  -1  -1  272.39    7.79
  -5  -1  -1  275.07    7.61
   5   1  -1  268.11    8.87
   5   1  -1  268.27    8.53
   5  -1   1  266.64    8.50
  -5  -1  -1  261.95    7.71
  -5   1   1  262.03    7.79
  -5   1   1  267.63    9.10
  -5  -1   1  275.32    7.69
   5  -1  -1  271.11    7.78
   5  -1  -1  264.41    9.06
   5   1   1  273.31    8.84
   5  -1  -1  273.47    8.59
   5  -1  -1  272.25    9.07
  -5  -1   1  267.81    7.86
  -5  -1   1  274.54    9.11
  -5  -1   1  264.75    7.74
   5   1   1  259.01    8.58
   5  -1  -1  261.43    8.53
  -5   1  -1  271.33    9.01
  -5   2   1  104.94    3.10
   5  -2   1  102.81    3.79
  -5  -2  -1  104.33    3.24
   5  -2   1  100.87    3.60
  -5   2   1  105.04    3.17
   5  -2   1  103.76    3.57
  -5  -2  -1  104.49    3.18
   5   2  -1  102.68    3.53
  -5   2   1  101.26    3.10
  -5  -2  -1  101.44    3.57
  -5  -2  -1  104.96    3.25
  -5   2   1  102.55    3.71
   5  -2   1  104.74    3.18
  -5   2   1  100.68    3.40
   5  -2   1  103.31    3.21
   5  -2  -1  105.82    3.60
   5  -2  -1  106.83    3.64
   5  -2  -1  101.65    3.81
   5  -2  -1  102.61    3.24
  -5  -2   1  103.73    3.22
   5  -2  -1  101.57    3.70
  -5  -2   1   99.21    3.71
  -5  -2   1  106.03    3.28
  -5   2  -1  103.47    3.67
  -5  -2   1  101.31    3.28
  -5  -3  -1   51.54    1.83
  -5   3   1   50.96    2.02
  -5  -3  -1   50.44    1.95
  -5   3   1   51.56    1.66
   5   3  -1   52.82    2.03
  -5   3   1   49.52    1.81
   5  -3   1   50.86    2.09
  -5  -3  -1   53.29    1.87
  -5   3   1   51.97    1.69
  -5  -3  -1   51.72    1.86
   5  -3   1   50.03    2.00
  -5   3   1   52.36    1.74
   5  -3   1   49.34    1.75
   5  -3   1   49.83    1.84
   5  -3   1   52.05    2.19
  -5  -3   1   49.21    1.72
  -5  -3   1   50.88    1.90
  -5  -3   1   50.71    2.07
   5  -3  -1   49.26    1.85
   5  -3  -1   48.87    1.82
  -5  -3   1   50.36    1.88
   5  -3  -1   51.99    2.19
   5  -3  -1   50.21    2.02
   5  -3  -1   51.32    2.10
  -5   3  -1   51.31    2.02
   5  -3  -1   50.95    2.06
  -5  -3   1   50.72    1.84
   5   3   1   52.17    2.08
  -5  -3   1   49.07    1.88
   5  -4   1    4.87    0.53
  -5  -4  -1    5.56    0.51
  -5  -4  -1    5.07    0.49
   5  -4   1    5.10    0.38
  -5  -4  -1    4.89    0.50
  -5   4   1    5.41    0.43
   5  -4   1    5.67    0.52
  -5  -4  -1    4.55    0.37
   5  -4   1    5.66    0.45
  -5  -4  -1    5.09    0.46
   5  -4   1    6.12    0.62
   5  -4   1    5.68    0.59
  -5  -4  -1    5.22    0.55
  -5  -4   1    4.98    0.51
  -5  -4   1    5.71    0.55
  -5   4  -1    5.25    0.48
   5  -4  -1    5.20    0.52
   5  -4  -1    5.29    0.51
  -5  -4   1    5.77    0.55
  -5  -4   1    5.33    0.39
   5  -4  -1    5.34    0.60
  -5  -4   1    5.81    0.53
  -5   4  -1    4.89    0.46
   5   4   1    5.12    0.38
   5  -4  -1    5.52    0.49
  -5  -4   1    5.55    0.53
  -5  -4   1    5.63    0.51
   5  -4  -1    5.38    0.51
   5  -4  -1    5.66    0.60
  -5  -5  -1    6.15    0.62
  -5  -5  -1    7.43    0.74
   5  -5   1    8.39    0.70
   5  -5   1    9.17    0.84
  -5   5   1    8.36    0.51
  -5  -5  -1    7.46    0.63
  -5  -5  -1    7.10    0.64
   5  -5   1    8.52    0.81
  -5  -5  -1    7.45    0.63
   5  -5   1    8.00    0.70
   5  -5   1    8.15    0.51
   5   5  -1    7.78    0.49
  -5  -5   1    8.70    0.76
   5   5   1    8.03    0.51
   5  -5  -1    6.88    0.76
   5  -5  -1    7.29    0.59
   5  -5  -1    7.68    0.69
  -5  -5   1    7.36    0.66
  -5  -5   1    8.20    0.67
  -5   5  -1    7.66    0.60
  -5  -5   1    8.22    0.72
  -5   5  -1    7.67    0.64
   5  -5  -1    8.00    0.50
   5  -5  -1    8.11    0.81
  -5  -5   1    9.42    0.73
   5  -5  -1    7.29    0.67
  -5  -5   1    7.93    0.52
  -5  -5   1    8.49    0.68
   5  -6   1   87.02    3.15
  -5  -6  -1   78.30    3.30
   5  -6   1   80.93    3.56
   5  -6   1   85.44    3.47
   5  -6   1   82.27    3.20
  -5  -6  -1   76.20    3.03
  -5  -6  -1   73.67    2.95
   5  -6   1   83.92    2.65
  -5  -6  -1   83.22    3.05
  -5  -6  -1   78.89    3.39
   5   6   1   83.26    2.67
   5   6   1   83.14    2.65
  -5  -6   1   80.98    2.71
  -5  -6   1   83.93    3.01
  -5   6  -1   81.66    2.86
   5  -6  -1   78.20    2.59
   5  -6  -1   78.38    3.56
   5  -6  -1   79.78    2.90
  -5  -6   1   81.76    3.37
   5  -6  -1   77.96    3.08
  -5  -6   1   82.80    3.09
  -5  -6   1   79.14    3.34
  -5  -6   1   79.62    2.97
   5  -6  -1   80.98    3.44
  -5  -6   1   79.02    3.00
  -5  -6   1   78.30    2.62
  -5  -7  -1   28.84    1.23
   5  -7   1   27.58    1.20
   5  -7   1   25.28    1.55
  -5  -7  -1   29.02    1.48
  -5  -7  -1   26.04    1.56
  -5  -7  -1   27.37    1.57
  -5  -7   1   26.54    1.19
  -5  -7   1   28.91    1.44
  -5  -7   1   24.78    1.52
   5  -7  -1   28.06    1.61
   5  -7  -1   27.17    1.32
   5   7   1   26.78    1.18
   5  -7  -1   27.52    1.17
   5  -7  -1   28.82    1.24
   5  -8   1   48.52    2.34
  -5  -8  -1   48.69    1.83
  -5   8   1   47.90    1.66
   5  -8   1   48.61    1.75
  -5   8   1   48.47    1.57
  -5   8   1   48.17    1.71
   5   8  -1   49.04    1.67
   5   8  -1   46.97    1.42
  -5  -8  -1   50.10    2.16
   5  -8   1   49.43    1.84
  -5   8  -1   46.85    1.72
   5   8   1   48.50    1.49
   5   8   1   47.96    1.73
   5   8   1   47.76    1.60
  -5  -8   1   47.48    2.09
   5   8   1   47.47    1.68
   5   8   1   46.61    1.82
  -5  -8   1   45.91    1.83
  -5  -8   1   46.80    1.61
  -5   8  -1   48.21    1.57
   5  -8  -1   47.11    1.78
   5  -8  -1   47.77    1.93
   5  -8  -1   44.75    2.31
   5   9  -1    1.56    0.33
   5  -9   1    2.32    0.35
  -5  -9  -1    1.52    0.35
   5  -9   1    2.35    0.39
  -5   9   1    1.99    0.29
  -5  -9  -1    1.64    0.32
  -5  -9  -1    2.06    0.54
  -5   9   1    2.22    0.36
  -5  -9   1    2.30    0.51
   5   9   1    1.81    0.31
   5  -9  -1    2.13    0.37
  -5  -9   1    2.30    0.41
   5   9   1    2.48    0.40
   5  -9  -1    1.80    0.37
  -5   9  -1    1.70    0.29
  -5  -9   1    2.83    0.37
   5   9   1    2.08    0.33
  -5   9  -1    1.37    0.29
  -5  10   1    2.05    0.31
  -5 -10  -1    1.96    0.35
   5  10  -1    2.50    0.34
  -5 -10  -1    2.77    0.35
   5 -10   1    2.13    0.36
   5 -10   1    2.31    0.31
  -5 -10   1    1.68    0.34
   5  10   1    3.16    0.38
  -5 -10   1    2.08    0.30
  -5  10  -1    2.44    0.29
  -5  10  -1    2.81    0.35
   5 -10  -1    2.34    0.37
   5 -10  -1    2.45    0.39
   5  10   1    2.30    0.34
   5 -11   1    3.51    0.29
  -5 -11  -1    3.32    0.31
   5  11  -1    3.09    0.32
  -5  11   1    3.39    0.33
   5  11   1    3.43    0.32
  -5  11  -1    3.97    0.36
  -5 -11   1    3.32    0.42
  -5 -11   1    3.10    0.30
   5 -11  -1    3.74    0.36
   5  11   1    3.53    0.37
   5   0   2    0.36    0.17
  -5   0   2    0.24    0.16
   5   0   2    0.24    0.15
   5   0  -2    0.20    0.14
  -5   0   2    0.13    0.14
   5   0   2    0.33    0.11
  -5   0  -2    0.21    0.08
   5   0   2    0.14    0.16
  -5   0   2    0.23    0.14
   5   0  -2    0.29    0.21
  -5   0   2    0.88    0.21
   5   0   2    0.03    0.08
   5   0  -2    0.34    0.19
  -5   0   2    0.16    0.12
   5   0  -2    0.50    0.16
  -5   0  -2    0.23    0.09
   5   1  -2  155.40    5.29
   5  -1   2  149.02    4.58
   5   1  -2  156.54    5.32
   5   1  -2  153.22    5.08
  -5   1   2  154.37    4.51
  -5   1   2  149.92    4.55
  -5  -1  -2  152.70    4.57
   5  -1   2  150.99    4.57
  -5  -1  -2  150.81    4.58
   5  -1   2  155.24    5.06
  -5   1   2  153.30    5.32
  -5   1   2  150.88    4.66
   5  -1   2  151.72    5.36
   5   1  -2  152.22    5.00
  -5  -1  -2  152.29    4.46
   5  -1   2  145.98    5.08
   5   1   2  152.24    5.11
   5   1   2  155.20    5.21
  -5  -1   2  151.98    4.70
   5  -1  -2  158.52    5.09
  -5  -1   2  156.07    5.36
  -5   1  -2  147.72    5.18
   5  -1  -2  155.14    5.13
   5  -1  -2  153.72    4.64
  -5  -1   2  152.58    4.55
   5  -1  -2  158.06    5.37
  -5  -1   2  152.08    4.59
   5  -1  -2  162.20    5.46
  -5  -1   2  152.60    4.62
   5  -2   2  134.56    4.19
  -5  -2  -2  141.61    4.22
   5   2  -2  141.19    4.58
   5  -2   2  134.90    4.67
   5  -2   2  137.49    4.96
  -5   2   2  136.43    4.16
   5   2  -2  147.14    4.76
  -5  -2  -2  141.87    4.26
   5   2  -2  136.61    4.30
   5   2  -2  141.84    4.81
  -5  -2  -2  142.42    4.16
   5  -2   2  134.74    4.64
  -5   2   2  135.16    4.25
   5  -2   2  136.46    4.23
  -5   2   2  132.90    4.82
  -5   2   2  131.51    4.32
  -5   2   2  138.86    4.05
   5   2  -2  143.54    4.61
  -5  -2   2  134.41    4.13
   5   2   2  133.13    4.69
  -5  -2   2  137.67    4.28
   5  -2  -2  140.03    4.71
   5  -2  -2  144.40    4.32
  -5  -2   2  137.16    4.23
  -5  -2   2  134.97    4.90
   5  -2  -2  144.99    4.72
  -5   2  -2  139.63    4.79
   5  -2  -2  139.87    4.92
   5  -2  -2  136.40    4.39
   5  -2  -2  138.19    5.02
  -5  -2   2  139.35    4.34
  -5  -2   2  131.43    4.39
  -5  -2   2  130.88    4.16
  -5  -3  -2   95.67    2.98
   5   3  -2   90.10    2.91
   5   3  -2   94.15    3.23
  -5  -3  -2   93.18    3.17
  -5   3   2   87.96    2.92
   5  -3   2   91.08    3.54
  -5   3   2   90.00    2.97
   5  -3   2   89.23    3.27
   5  -3   2   89.50    2.94
   5  -3   2   89.08    3.00
   5  -3   2   90.84    3.32
  -5  -3  -2   96.93    3.06
  -5  -3  -2   96.51    2.99
   5  -3   2   86.23    2.81
  -5   3   2   90.92    2.91
   5  -3  -2   94.39    3.45
  -5  -3   2   89.95    2.99
  -5  -3   2   84.12    2.87
   5   3   2   88.39    2.90
  -5  -3   2   90.44    3.42
   5  -3  -2   92.53    3.58
  -5   3  -2   87.14    3.01
  -5   3  -2   92.11    3.35
  -5  -3   2   89.84    3.05
  -5  -3   2   85.94    3.05
  -5  -3   2   88.48    3.06
   5   3   2   91.30    3.36
   5  -3  -2   95.76    3.39
   5  -3  -2   97.10    3.35
   5  -3  -2   93.16    3.08
   5  -3  -2   91.57    3.07
   5  -4   2  100.87    3.21
  -5   4   2  107.65    3.44
  -5  -4  -2  105.09    3.87
   5  -4   2  105.51    3.52
   5  -4   2  103.12    3.83
  -5  -4  -2  105.92    3.40
   5  -4   2  105.44    3.77
  -5  -4  -2  102.67    3.25
  -5  -4  -2  105.82    3.78
   5  -4   2  105.07    3.36
  -5  -4  -2  108.09    3.47
   5  -4   2  100.85    3.16
  -5  -4  -2  108.84    3.55
   5  -4   2  104.56    4.09
  -5   4   2  104.74    3.35
   5  -4  -2  104.54    3.56
  -5  -4   2  102.29    3.52
   5  -4  -2  106.02    4.14
   5  -4  -2  103.59    3.51
   5  -4  -2  104.84    3.79
  -5  -4   2   99.85    3.31
   5  -4  -2  105.19    3.90
  -5  -4   2  102.32    3.73
  -5  -4   2  102.42    3.53
   5   4   2  100.19    3.15
  -5  -4   2  104.66    3.48
   5  -4  -2  109.56    3.99
  -5  -4   2  104.60    3.56
  -5  -4   2  100.18    3.94
  -5   4  -2  107.05    3.90
  -5  -5  -2   79.75    3.01
   5  -5   2   75.60    2.46
   5  -5   2   72.56    2.44
   5  -5   2   79.38    3.01
   5  -5   2   77.18    2.65
   5  -5   2   77.54    3.12
  -5  -5  -2   78.16    2.79
   5   5  -2   76.06    2.44
  -5  -5  -2   81.03    3.19
   5  -5   2   73.09    3.25
   5  -5   2   75.68    2.83
  -5  -5  -2   76.19    2.83
   5   5   2   70.20    2.53
   5  -5  -2   77.15    2.40
  -5  -5   2   74.54    3.10
   5  -5  -2   78.85    3.17
  -5  -5   2   74.07    2.81
   5   5   2   71.49    2.43
  -5   5  -2   76.75    3.06
   5  -5  -2   76.08    3.30
  -5  -5   2   73.59    2.55
  -5  -5   2   75.35    2.86
   5  -5  -2   78.40    2.76
   5  -5  -2   79.29    3.14
  -5   5  -2   76.63    2.73
   5  -5  -2   78.21    2.99
  -5  -5   2   73.69    2.78
   5  -5  -2   78.00    2.89
  -5  -5   2   73.47    2.74
  -5  -6  -2   21.36    1.29
  -5   6   2   22.48    1.03
   5  -6   2   24.13    1.05
   5  -6   2   23.71    1.36
   5  -6   2   23.24    1.56
  -5  -6  -2   20.57    1.44
   5  -6   2   24.34    1.36
  -5  -6  -2   21.09    1.29
   5  -6   2   23.91    1.50
  -5  -6  -2   20.90    1.27
   5  -6  -2   21.58    0.97
   5  -6  -2   20.29    1.50
   5  -6  -2   21.05    1.16
   5   6   2   23.13    1.03
  -5   6  -2   22.86    1.15
  -5  -6   2   24.19    1.08
  -5  -6   2   23.64    1.33
   5  -6  -2   21.57    1.32
  -5  -6   2   24.77    1.24
   5  -6  -2   23.25    1.51
  -5  -6   2   24.52    1.05
   5   6   2   23.64    1.05
  -5  -6   2   23.17    1.34
  -5  -6   2   24.02    1.35
  -5   7   2   47.43    1.59
   5   7  -2   46.40    1.63
  -5   7   2   50.65    1.68
   5  -7   2   46.99    2.24
  -5  -7  -2   54.02    2.29
   5   7  -2   47.08    1.63
  -5  -7  -2   49.42    2.34
   5  -7   2   49.56    1.85
  -5  -7  -2   45.28    2.23
   5  -7  -2   50.19    2.06
   5  -7  -2   47.43    2.29
  -5  -7   2   50.91    1.85
  -5  -7   2   50.86    2.31
   5  -7  -2   50.67    1.79
   5   7   2   48.53    1.72
  -5   7  -2   50.62    1.99
  -5  -7   2   51.46    1.89
   5   7   2   49.36    1.84
  -5  -7   2   49.86    2.06
  -5  -8  -2    7.30    0.86
   5   8  -2    6.59    0.44
  -5   8   2    7.25    0.47
   5  -8   2    6.85    0.54
   5  -8   2    8.39    1.07
   5  -8   2    7.74    0.53
  -5  -8  -2    6.77    0.58
   5   8  -2    6.96    0.54
   5  -8   2    7.40    0.61
  -5   8   2    7.45    0.56
  -5   8   2    7.31    0.53
   5   8   2    6.69    0.56
  -5   8  -2    7.11    0.66
  -5   8  -2    6.90    0.50
   5   8   2    6.55    0.59
  -5  -8   2    7.19    0.61
   5   8   2    7.16    0.54
   5  -8  -2    6.34    0.61
  -5  -8   2    7.34    0.75
   5   8   2    8.49    0.57
   5  -8  -2    6.20    0.94
   5  -8  -2    6.88    0.69
  -5  -8   2    6.15    0.52
   5  -8  -2    6.68    0.56
   5   8   2    7.65    0.46
  -5   9   2    0.64    0.25
   5  -9   2    1.16    0.30
   5  -9   2    0.81    0.24
  -5  -9  -2    1.32    0.28
  -5  -9  -2    1.96    0.50
  -5   9   2    0.99    0.27
  -5  -9  -2    1.56    0.34
   5   9  -2    1.03    0.27
   5  -9   2    1.04    0.25
  -5   9  -2    1.33    0.28
   5   9   2    1.08    0.29
  -5   9  -2    1.24    0.28
  -5  -9   2    0.59    0.23
   5   9   2    0.53    0.23
  -5  -9   2    0.56    0.27
   5  -9  -2    1.03    0.30
   5   9   2    1.16    0.30
   5   9   2    0.74    0.20
  -5  10   2    0.96    0.23
  -5 -10  -2    1.16    0.30
   5  10  -2    1.30    0.27
  -5 -10  -2    2.05    0.30
   5 -10   2    1.72    0.33
   5 -10   2    1.34    0.24
   5 -10   2    1.24    0.23
  -5  10  -2    1.20    0.25
   5  10   2    1.32    0.28
   5 -10  -2    1.01    0.27
   5 -10  -2    1.51    0.33
  -5 -10   2    0.92    0.23
   5  10   2    1.38    0.23
  -5  10  -2    1.29    0.26
   5  10   2    1.40    0.29
   5 -10  -2    1.55    0.26
  -5 -10   2    1.41    0.34
  -5 -10   2    1.58    0.31
   5  11  -2    2.43    0.28
  -5  11   2    2.58    0.29
  -5 -11   2    2.76    0.34
   5  11   2    2.91    0.27
   5 -11  -2    3.21    0.33
  -5  11  -2    2.32    0.28
  -5 -11   2    2.27    0.27
   5  11   2    2.66    0.30
   5   0   3    0.30    0.17
  -5   0   3    0.38    0.17
  -5   0  -3    0.31    0.11
   5   0  -3    0.15    0.20
   5   0  -3    0.68    0.20
   5   0  -3    0.24    0.14
  -5   0   3    0.41    0.17
   5   0   3    0.17    0.14
   5   0   3    0.40    0.14
  -5   0  -3    0.12    0.09
   5   0   3    0.33    0.17
  -5   0   3    0.12    0.17
   5   0  -3    0.27    0.18
   5   0   3    0.38    0.19
   5   0   3    0.28    0.16
   5   0  -3    0.20    0.20
   5   1  -3   14.96    0.74
   5   1  -3   16.04    0.85
   5   1  -3   14.44    0.88
  -5   1   3   16.24    0.73
  -5   1   3   16.54    0.81
   5  -1   3   17.33    0.94
   5   1  -3   14.89    0.76
  -5   1   3   17.09    0.82
  -5  -1  -3   15.11    0.71
   5  -1   3   15.65    0.67
   5  -1   3   16.93    0.82
   5  -1   3   17.24    0.89
  -5  -1  -3   15.00    0.69
  -5   1   3   16.35    0.84
   5   1  -3   14.56    0.90
  -5  -1  -3   14.82    0.79
   5  -1   3   15.93    0.85
  -5  -1   3   15.88    0.73
   5  -1  -3   14.94    0.82
   5  -1  -3   15.48    0.97
   5   1   3   16.02    0.74
  -5  -1   3   16.64    0.84
   5  -1  -3   15.47    0.85
   5  -1  -3   14.99    0.77
   5   1   3   17.79    0.87
   5   1   3   16.55    0.83
  -5  -1   3   15.94    0.81
   5  -1  -3   16.25    0.95
  -5  -1   3   17.00    0.86
   5   1   3   16.70    0.89
  -5  -1   3   16.39    0.76
  -5  -1   3   16.74    0.82
  -5   2   3   52.09    1.88
  -5  -2  -3   48.70    1.96
   5   2  -3   45.61    1.76
   5   2  -3   46.87    1.99
   5   2  -3   50.94    2.04
  -5   2   3   52.21    1.83
   5   2  -3   46.61    1.80
   5   2  -3   47.93    1.99
  -5  -2  -3   50.57    1.80
   5  -2   3   51.12    1.97
  -5  -2  -3   47.03    1.78
   5  -2   3   51.32    2.01
   5  -2   3   51.24    1.82
   5  -2   3   52.53    2.16
   5  -2   3   48.79    1.66
  -5  -2  -3   49.57    1.76
   5  -2   3   50.60    1.82
  -5  -2   3   49.88    1.70
  -5  -2   3   53.19    1.92
  -5   2  -3   48.35    1.89
   5  -2  -3   48.61    1.86
   5  -2  -3   49.07    2.21
   5  -2  -3   47.56    2.05
  -5  -2   3   50.07    1.99
   5  -2  -3   49.21    2.04
  -5  -2   3   50.85    1.76
   5   2   3   48.10    1.65
  -5  -2   3   50.67    1.87
  -5  -2   3   51.74    1.79
  -5  -2   3   49.24    1.83
   5   2   3   51.59    2.04
   5  -2  -3   48.73    1.98
   5  -2  -3   48.13    1.83
  -5  -3  -3  117.49    3.71
  -5   3   3  110.61    3.68
   5  -3   3  107.90    3.46
   5  -3   3  110.68    3.97
   5  -3   3  108.56    4.28
   5  -3   3  109.72    3.60
  -5  -3  -3  119.67    3.63
  -5   3   3  111.50    3.60
   5   3  -3  112.22    3.64
  -5  -3  -3  114.47    3.59
   5  -3   3  114.36    3.69
   5  -3   3  111.91    3.99
  -5   3  -3  115.37    4.07
  -5  -3   3  114.82    3.70
  -5  -3   3  108.82    4.13
  -5  -3   3  108.87    3.75
  -5  -3   3  112.18    3.69
   5  -3  -3  116.93    3.76
   5  -3  -3  112.90    4.05
   5   3   3  111.24    4.06
   5  -3  -3  115.13    4.06
  -5  -3   3  114.52    3.58
  -5  -3   3  107.98    3.70
   5  -3  -3  115.71    3.77
   5  -3  -3  118.09    4.21
   5  -3  -3  111.33    4.36
  -5  -3   3  109.74    3.52
   5   3   3  105.21    3.43
  -5   4   3    4.56    0.55
   5  -4   3    4.71    0.61
  -5  -4  -3    6.67    0.44
  -5  -4  -3    5.98    0.75
   5  -4   3    5.13    0.70
  -5  -4  -3    5.90    0.58
  -5   4   3    4.74    0.57
   5  -4   3    4.00    0.37
  -5  -4  -3    6.75    0.59
   5  -4   3    4.75    0.56
   5  -4   3    5.29    0.63
   5   4  -3    5.63    0.45
   5  -4   3    4.43    0.36
   5  -4   3    5.08    0.65
   5  -4  -3    6.56    0.63
   5  -4  -3    5.69    0.59
   5  -4  -3    5.99    0.65
  -5   4  -3    5.76    0.51
  -5  -4   3    4.34    0.57
   5  -4  -3    4.37    0.65
  -5  -4   3    4.83    0.63
  -5  -4   3    4.99    0.49
  -5  -4   3    4.76    0.59
  -5  -4   3    4.31    0.41
   5   4   3    4.57    0.39
  -5   4  -3    5.64    0.52
   5  -4  -3    6.06    0.56
   5  -4  -3    5.80    0.56
  -5  -5  -3   30.62    1.38
  -5   5   3   28.12    1.18
   5  -5   3   30.11    1.57
  -5  -5  -3   29.95    1.45
   5  -5   3   27.47    1.13
   5  -5   3   27.66    1.15
   5  -5   3   28.65    1.51
  -5   5   3   28.56    1.42
   5  -5   3   27.48    1.43
   5  -5   3   28.67    1.69
  -5  -5  -3   31.03    1.50
   5  -5   3   28.90    1.37
  -5  -5  -3   29.85    1.66
  -5  -5   3   27.73    1.13
  -5  -5   3   27.75    1.21
   5  -5  -3   29.72    1.64
  -5  -5   3   26.61    1.41
  -5  -5   3   27.58    1.46
   5   5   3   26.54    1.12
  -5  -5   3   27.98    1.29
  -5   5  -3   28.71    1.48
   5  -5  -3   30.48    1.38
   5   5   3   26.43    1.15
   5  -5  -3   29.05    1.50
   5  -5  -3   29.65    1.54
  -5  -5   3   28.45    1.48
   5  -5  -3   28.80    1.50
   5  -5  -3   27.91    1.70
   5  -6   3   18.96    1.43
   5  -6   3   17.74    1.21
  -5  -6  -3   20.46    1.43
   5  -6   3   18.06    0.92
  -5  -6  -3   20.89    1.19
   5  -6   3   20.05    1.28
  -5  -6  -3   19.28    1.27
  -5  -6  -3   20.11    1.26
  -5   6   3   19.46    0.94
   5  -6  -3   20.13    1.30
   5   6   3   19.47    0.93
  -5  -6   3   19.55    0.97
   5  -6  -3   19.65    1.11
  -5  -6   3   18.26    0.90
   5   6   3   18.13    0.93
  -5  -6   3   17.89    1.22
   5  -6  -3   20.56    1.42
   5  -6  -3   17.45    1.38
  -5   6  -3   19.76    1.09
  -5  -6   3   19.73    1.04
  -5  -6   3   18.70    1.23
   5  -6  -3   18.16    1.25
  -5  -6   3   20.19    1.28
  -5   7   3   52.56    1.81
   5   7  -3   49.19    1.74
  -5   7   3   52.50    1.66
  -5   7   3   52.02    1.64
  -5  -7  -3   48.96    2.37
   5  -7   3   53.97    1.95
   5  -7   3   52.17    1.69
   5  -7   3   52.17    1.74
   5   7  -3   49.74    1.74
  -5   7   3   53.73    1.94
   5  -7   3   52.36    2.41
   5   7   3   52.47    1.77
  -5  -7   3   53.78    1.92
  -5  -7   3   51.04    2.41
  -5   7  -3   50.73    2.10
  -5  -7   3   53.40    2.07
   5   7   3   49.90    1.91
   5  -7  -3   48.19    2.38
  -5   7  -3   51.26    1.63
   5   7   3   50.75    1.80
   5   7   3   54.74    1.94
   5   7   3   53.04    1.49
  -5  -7   3   50.57    1.69
   5  -7  -3   49.92    2.14
  -5  -7   3   55.27    2.00
  -5  -8  -3   11.83    0.75
  -5   8   3   10.82    0.69
   5  -8   3   11.20    1.25
   5  -8   3   11.74    0.63
   5   8  -3   10.58    0.61
   5  -8   3   11.33    0.66
  -5  -8  -3   12.87    1.15
  -5   8   3   11.70    0.65
   5  -8   3   11.01    0.76
   5   8  -3   11.70    0.69
  -5  -8   3   12.44    0.68
   5   8   3    9.47    0.65
   5   8   3   11.20    0.56
   5  -8  -3   11.56    0.88
   5   8   3   12.03    0.76
   5  -8  -3   11.09    0.76
   5  -8  -3   11.31    1.29
   5   8   3   11.75    0.72
  -5   8  -3    9.99    0.60
  -5  -8   3   11.66    0.76
  -5  -9  -3    7.81    0.88
  -5  -9  -3    7.93    0.62
  -5   9   3    7.20    0.55
   5  -9   3    7.85    0.53
   5  -9   3    7.19    0.47
   5   9  -3    7.56    0.43
   5   9  -3    6.89    0.53
  -5   9   3    6.99    0.51
   5  -9   3    7.41    0.62
   5   9   3    7.84    0.58
   5  -9  -3    7.58    0.73
   5   9   3    7.78    0.47
   5   9   3    8.28    0.57
  -5  -9   3    7.28    0.61
  -5  -9   3    9.14    0.66
   5   9   3    7.73    0.63
  -5   9  -3    7.58    0.60
  -5  -9   3    7.14    0.55
  -5   9  -3    7.94    0.55
   5  -9  -3    8.17    0.64
  -5  10   3    0.62    0.18
   5  10  -3    0.46    0.21
   5 -10   3    0.58    0.19
   5 -10   3    0.57    0.23
  -5 -10  -3    0.28    0.23
   5 -10   3    0.50    0.14
  -5 -10   3    0.55    0.20
   5  10   3    0.37    0.15
  -5 -10   3    0.55    0.24
   5 -10  -3    0.57    0.19
   5  10   3    0.53    0.19
  -5  10  -3    0.23    0.18
   5  10   3    0.75    0.25
  -5  10  -3    0.76    0.23
  -5 -10   3   -0.13    0.24
   5  10   3    0.33    0.19
   5 -11   3    7.59    0.39
  -5  11   3    7.89    0.39
  -5 -11   3    6.61    0.41
   5 -11  -3    8.03    0.49
  -5 -11   3    7.59    0.43
  -5  11  -3    7.41    0.41
   5  11   3    7.46    0.43
   5  11   3    7.67    0.45
  -5  11  -3    7.63    0.36
   5 -11  -3    7.92    0.43
   5   0   4    0.07    0.17
  -5   0   4    0.09    0.15
   5   0   4    0.66    0.24
   5   0   4    0.07    0.16
   5   0  -4    0.11    0.21
  -5   0   4    0.12    0.18
   5   0  -4    0.11    0.17
  -5   0   4    0.16    0.20
   5   0   4   -0.02    0.18
   5   0   4    0.02    0.15
   5   0  -4    0.19    0.17
   5   0   4    0.91    0.18
   5   0  -4    0.12    0.22
  -5   0  -4    0.09    0.12
  -5   0   4    0.18    0.17
   5   1  -4   10.50    0.78
  -5   1   4   10.04    0.69
  -5   1   4    9.86    0.67
  -5  -1  -4    9.16    0.55
  -5   1   4    9.47    0.66
   5  -1   4   10.88    0.65
   5  -1   4    9.21    0.50
   5   1  -4    8.82    0.76
  -5   1   4    9.99    0.56
   5  -1   4    9.19    0.73
   5   1  -4    7.70    0.58
   5   1  -4    9.13    0.65
   5  -1   4    9.76    0.66
   5  -1   4    9.69    0.65
   5  -1   4   10.05    0.72
   5  -1  -4    8.09    0.59
   5   1   4    9.56    0.63
  -5  -1   4    9.98    0.64
  -5  -1   4    9.54    0.69
   5  -1  -4    8.05    0.62
   5  -1  -4    8.80    0.60
   5  -1  -4    8.56    0.76
   5   1   4    9.08    0.49
  -5  -1   4    9.79    0.52
   5   1   4    9.82    0.69
  -5  -1   4    9.14    0.65
   5  -1  -4    8.96    0.76
   5   1   4    9.81    0.67
  -5  -1   4    9.42    0.63
   5   1   4   10.60    0.64
   5   2  -4   32.74    1.59
  -5  -2  -4   32.30    1.32
   5   2  -4   32.32    1.57
   5   2  -4   28.31    1.30
  -5  -2  -4   31.90    1.35
  -5  -2  -4   31.66    1.36
   5  -2   4   34.96    1.43
   5   2  -4   31.55    1.48
  -5   2   4   33.30    1.46
   5  -2   4   34.45    1.40
   5  -2   4   32.01    1.62
   5  -2   4   34.30    1.55
  -5   2   4   32.60    1.41
   5  -2   4   34.30    1.45
  -5  -2  -4   30.88    1.52
   5  -2   4   34.14    1.23
  -5  -2   4   34.21    1.45
  -5  -2   4   33.68    1.47
  -5  -2   4   34.04    1.37
   5  -2  -4   30.80    1.35
   5  -2  -4   30.34    1.68
  -5  -2   4   33.04    1.24
   5  -2  -4   30.73    1.57
   5  -2  -4   31.59    1.45
   5   2   4   34.44    1.55
   5  -2  -4   30.20    1.44
   5  -2  -4   31.67    1.50
   5   2   4   32.18    1.19
  -5  -2   4   33.59    1.43
  -5  -2   4   32.12    1.18
   5  -3   4   53.49    2.40
   5  -3   4   53.11    2.03
  -5  -3  -4   53.08    1.96
  -5  -3  -4   51.44    1.98
  -5  -3  -4   53.97    2.27
   5   3  -4   52.58    1.96
   5  -3   4   52.49    2.03
   5  -3   4   52.90    2.12
   5   3  -4   51.18    2.21
  -5   3   4   53.68    2.08
   5   3  -4   52.60    2.20
  -5   3   4   51.47    2.01
   5  -3   4   51.85    1.81
  -5  -3  -4   51.70    2.02
   5  -3   4   52.52    1.74
   5  -3   4   55.15    2.25
   5  -3  -4   53.55    2.28
   5  -3  -4   51.02    2.18
  -5  -3   4   51.19    2.10
  -5  -3   4   53.81    1.86
   5  -3  -4   53.45    2.12
   5  -3  -4   50.30    1.99
  -5  -3   4   51.49    1.81
  -5  -3   4   53.88    2.09
  -5   3  -4   50.28    2.09
   5  -3  -4   51.74    2.22
  -5  -3   4   53.61    1.98
   5  -3  -4   51.03    2.44
  -5  -3   4   49.56    2.03
   5   3   4   49.66    1.72
   5   4  -4   17.13    0.86
  -5  -4  -4   16.69    0.99
  -5   4   4   13.98    0.96
   5  -4   4   15.36    1.16
  -5  -4  -4   16.67    1.11
   5  -4   4   15.13    1.06
   5  -4   4   15.81    0.98
   5  -4   4   14.73    0.73
  -5   4   4   13.58    0.75
   5  -4   4   15.13    0.75
   5  -4   4   15.73    0.97
  -5   4   4   14.90    0.95
  -5  -4  -4   16.24    1.00
   5  -4  -4   18.16    1.13
  -5   4  -4   16.13    0.94
  -5   4  -4   16.57    0.90
  -5  -4   4   14.99    0.76
   5  -4  -4   16.07    1.03
   5  -4  -4   16.65    0.93
  -5  -4   4   15.52    1.02
   5  -4  -4   16.05    1.01
   5   4   4   14.69    0.73
  -5  -4   4   13.82    0.95
  -5  -4   4   14.31    0.91
  -5  -4   4   14.58    0.79
  -5  -4   4   14.11    0.97
   5  -4  -4   16.51    1.10
   5  -4  -4   14.85    1.17
   5   4   4   14.57    0.75
   5  -5   4    5.41    0.71
   5  -5   4    8.31    0.89
   5  -5   4    6.17    0.50
   5   5  -4    7.38    0.56
   5  -5   4    5.66    0.83
  -5  -5  -4    8.17    0.60
  -5   5   4    6.39    0.79
   5  -5   4    6.51    0.49
   5  -5   4    6.06    0.80
  -5   5   4    5.30    0.47
  -5  -5  -4    6.33    0.79
  -5  -5  -4    7.90    0.86
  -5  -5  -4    5.69    0.70
  -5   5   4    6.12    0.77
   5  -5  -4    5.61    0.85
  -5   5  -4    6.94    0.64
   5  -5  -4    7.68    0.78
   5   5   4    5.85    0.49
  -5  -5   4    6.52    0.52
   5   5   4    6.58    0.48
  -5  -5   4    4.02    0.62
  -5  -5   4    4.41    0.66
   5  -5  -4    8.07    0.84
   5  -5  -4    6.99    0.72
  -5  -5   4    4.94    0.72
  -5   5  -4    7.38    0.69
   5  -5  -4    7.45    0.68
  -5  -5   4    6.30    0.54
   5  -5  -4    7.21    0.80
   5  -6   4   45.61    2.14
   5  -6   4   44.22    2.17
  -5  -6  -4   47.35    2.07
  -5   6   4   43.83    1.71
   5  -6   4   46.11    1.70
   5  -6   4   43.38    1.69
  -5  -6  -4   43.01    2.11
  -5   6  -4   43.90    2.18
   5   6   4   46.76    1.72
  -5  -6   4   45.30    1.78
   5  -6  -4   42.97    2.12
   5  -6  -4   47.63    1.97
   5   6   4   44.43    1.67
  -5   6  -4   46.17    1.94
  -5  -6   4   41.93    2.10
   5  -6  -4   42.87    2.21
  -5   7   4    4.05    0.45
   5  -7   4    4.00    0.75
   5  -7   4    3.54    0.46
  -5   7   4    3.56    0.44
   5  -7   4    2.98    0.38
  -5   7   4    2.77    0.42
   5  -7   4    3.12    0.37
   5   7  -4    2.61    0.38
   5  -7   4    3.42    0.34
  -5  -7   4    3.53    0.41
  -5  -7   4    3.45    0.46
   5  -7  -4    2.11    0.55
   5  -7  -4    2.41    0.49
   5   7   4    3.94    0.50
   5   7   4    3.03    0.30
   5   7   4    3.16    0.46
  -5   7  -4    3.19    0.49
   5   7   4    3.83    0.47
  -5  -7   4    4.28    0.54
  -5  -8  -4   19.44    1.00
  -5   8   4   20.97    0.89
   5   8  -4   19.25    0.90
   5   8  -4   20.36    0.94
  -5   8   4   22.06    0.99
   5  -8   4   19.71    0.76
   5  -8   4   20.78    0.92
   5  -8   4   20.56    1.04
  -5   8  -4   18.76    0.85
  -5   8  -4   19.26    1.11
  -5  -8   4   20.96    1.08
   5   8   4   22.23    1.08
   5  -8  -4   18.88    1.17
  -5  -8   4   21.70    1.04
   5   8   4   20.90    0.96
   5   8   4   22.02    0.77
   5  -8  -4   20.46    1.06
  -5  -8   4   21.23    0.94
   5   8   4   20.18    0.99
  -5  -9  -4    0.70    0.26
   5   9  -4    0.80    0.23
   5  -9   4    1.20    0.26
  -5   9   4    0.36    0.20
   5   9  -4    0.99    0.21
  -5  -9  -4    0.71    0.46
   5  -9   4    0.88    0.26
  -5   9   4    0.65    0.23
  -5  -9   4    1.03    0.31
   5   9   4    0.59    0.25
   5  -9  -4    0.74    0.36
   5  -9  -4    0.62    0.26
  -5   9  -4    0.69    0.22
   5   9   4    0.59    0.17
   5   9   4    0.80    0.24
  -5   9  -4    0.81    0.29
  -5  -9   4    0.91    0.24
   5   9   4    1.14    0.28
   5 -10   4    5.64    0.52
  -5  10   4    6.59    0.42
   5 -10   4    5.96    0.42
   5  10  -4    6.88    0.47
   5  10   4    6.06    0.47
   5  10   4    6.28    0.36
   5  10   4    6.49    0.53
   5 -10  -4    6.34    0.45
  -5  10  -4    6.15    0.43
  -5  10  -4    6.77    0.50
   5  10   4    6.59    0.48
  -5 -10   4    5.92    0.46
   5 -10  -4    5.69    0.49
  -5 -10   4    6.39    0.44
   5 -11   4    2.01    0.23
  -5  11   4    2.02    0.22
   5 -11  -4    2.39    0.29
   5  11   4    1.93    0.25
   5 -11  -4    2.33    0.25
  -5 -11   4    2.38    0.23
   5  11   4    2.44    0.19
  -5 -11   4    1.77    0.22
  -5  11  -4    2.47    0.26
   5  11   4    2.21    0.25
  -5   0   5    0.14    0.14
   5   0  -5    0.36    0.27
  -5   0   5    0.34    0.19
   5   0   5    0.35    0.26
   5   0  -5    0.29    0.27
   5   0   5    0.37    0.20
   5   0  -5    0.30    0.20
   5   0  -5    0.05    0.16
  -5   0   5    0.29    0.21
   5   0   5    0.23    0.24
  -5   0   5    0.18    0.19
   5   0   5    0.12    0.20
   5   0   5    0.09    0.14
   5   0   5    0.10    0.21
  -5   0   5    0.49    0.22
   5  -1   5   61.34    2.50
  -5  -1  -5   58.33    2.14
  -5   1   5   62.11    2.33
   5   1  -5   60.68    2.54
   5   1  -5   57.70    2.26
   5  -1   5   61.14    2.30
   5   1  -5   62.64    2.61
   5  -1   5   64.76    2.34
   5  -1   5   61.07    2.08
   5  -1   5   63.96    2.41
   5  -1   5   64.20    2.70
  -5   1   5   64.79    2.38
   5   1  -5   61.82    2.72
  -5   1   5   61.99    2.39
   5   1   5   64.03    2.28
   5   1   5   62.15    2.06
   5   1   5   63.22    2.21
   5  -1  -5   58.17    2.25
   5   1   5   62.88    2.46
  -5  -1   5   62.47    2.32
  -5  -1   5   62.73    2.08
   5  -1  -5   59.23    2.60
  -5  -1   5   65.64    2.44
   5   1   5   60.37    2.62
  -5  -1   5   63.95    2.28
   5  -1  -5   58.46    2.50
  -5  -1   5   65.39    2.38
   5   1   5   61.65    2.46
   5  -1  -5   59.01    2.74
   5   2  -5   24.72    1.38
  -5  -2  -5   24.95    1.16
   5  -2   5   21.84    0.92
   5   2  -5   25.79    1.28
  -5  -2  -5   26.05    1.51
   5  -2   5   22.70    1.18
  -5  -2  -5   23.55    1.13
   5  -2   5   21.87    1.28
  -5   2   5   22.74    1.21
   5  -2   5   24.01    1.41
   5   2  -5   25.06    1.41
   5  -2   5   22.69    1.18
   5   2  -5   24.13    1.13
  -5   2   5   22.54    1.23
   5  -2   5   21.32    0.97
  -5   2   5   21.99    1.21
   5   2   5   22.70    1.26
  -5  -2   5   22.93    1.20
   5   2   5   24.66    1.24
  -5  -2   5   22.00    1.16
   5  -2  -5   24.02    1.38
   5   2   5   20.90    0.90
  -5  -2   5   22.78    0.99
   5  -2  -5   22.70    1.12
  -5  -2   5   24.65    1.28
   5  -2  -5   25.61    1.26
   5  -2  -5   23.09    1.46
  -5  -2   5   22.73    1.23
   5   2   5   21.73    0.94
  -5   3   5   51.36    2.06
   5  -3   5   49.89    2.05
   5   3  -5   50.48    2.25
   5  -3   5   50.27    1.79
   5   3  -5   48.67    1.93
  -5  -3  -5   47.14    2.02
  -5  -3  -5   45.74    1.95
   5  -3   5   52.03    2.42
   5  -3   5   51.11    2.22
  -5   3   5   50.37    2.08
   5  -3   5   48.19    1.68
  -5  -3  -5   49.33    2.23
   5   3  -5   45.61    2.15
   5  -3   5   51.02    2.06
   5  -3  -5   49.34    2.26
   5  -3  -5   48.90    1.98
  -5  -3   5   50.75    1.81
   5  -3  -5   46.63    2.16
   5  -3  -5   46.64    2.07
   5  -3  -5   47.06    2.42
  -5   3  -5   46.64    2.04
   5   3   5   49.62    1.68
  -5  -3   5   51.44    2.10
  -5  -3   5   51.93    2.15
   5  -3  -5   51.55    1.86
  -5  -3   5   51.08    2.08
  -5  -3   5   52.08    2.02
  -5   4   5    0.38    0.31
  -5   4   5    0.65    0.22
  -5   4   5    0.47    0.29
  -5  -4  -5    0.47    0.32
  -5  -4  -5    0.76    0.33
   5  -4   5    0.37    0.18
   5   4  -5    0.45    0.27
  -5  -4  -5    0.27    0.32
   5  -4   5    0.09    0.35
   5  -4   5    0.33    0.33
   5  -4   5    0.53    0.22
   5  -4   5    0.42    0.32
   5  -4   5    0.45    0.30
  -5  -4   5    0.27    0.20
  -5  -4   5    0.27    0.29
   5   4   5    0.30    0.17
   5  -4  -5    0.23    0.33
   5  -4  -5    0.31    0.29
  -5  -4   5   -0.03    0.20
   5   4   5    0.50    0.21
  -5  -4   5    0.50    0.31
   5  -4  -5    1.26    0.39
  -5   4  -5    0.48    0.25
   5  -4  -5    0.26    0.33
   5  -4  -5    2.05    0.44
   5  -4  -5    0.17    0.36
  -5  -4   5    0.17    0.29
   5  -5   5    8.19    0.84
   5  -5   5    8.90    0.93
   5  -5   5    9.44    0.63
  -5  -5  -5   10.62    1.05
  -5  -5  -5   10.95    0.95
   5   5  -5    9.99    0.71
   5  -5   5    8.23    0.84
  -5   5   5   10.66    0.94
   5  -5   5    9.19    0.61
  -5   5   5    9.11    0.89
  -5   5   5    8.08    0.59
   5  -5  -5   11.89    0.86
  -5   5  -5   10.49    0.84
   5   5   5    9.35    0.60
   5  -5  -5   10.97    0.95
  -5  -5   5   10.08    0.91
  -5  -5   5    8.78    0.65
   5  -5  -5   10.33    1.00
   5  -5  -5    8.35    0.97
  -5   5  -5    9.76    0.80
   5  -5  -5    9.92    0.86
   5   5   5    8.24    0.58
  -5   6   5   36.88    1.46
  -5  -6  -5   31.40    1.82
   5  -6   5   34.53    1.45
   5  -6   5   33.14    1.81
  -5   6   5   32.84    1.16
   5  -6   5   36.62    1.30
  -5  -6  -5   35.11    1.74
   5  -6   5   36.00    1.43
  -5   6   5   33.13    1.22
  -5   6   5   34.92    1.35
   5  -6   5   35.30    1.21
   5  -6   5   33.10    1.89
   5   6  -5   33.69    1.30
  -5  -6   5   33.90    1.26
   5   6   5   35.19    1.45
   5   6   5   34.70    1.34
  -5  -6   5   36.06    1.92
   5   6   5   34.69    1.01
   5  -6  -5   31.02    1.81
  -5  -6   5   34.41    1.35
   5  -6  -5   35.71    1.69
  -5  -6   5   36.85    1.52
   5   6   5   35.68    1.40
   5   6   5   33.20    1.33
   5  -6  -5   35.11    1.90
  -5   6  -5   34.12    1.68
  -5   6  -5   34.49    1.89
  -5   7   5    9.34    0.58
   5   7  -5    8.09    0.62
  -5   7   5    8.02    0.59
   5  -7   5    7.86    0.52
   5  -7   5    7.76    0.56
   5   7  -5    8.25    0.58
  -5  -7  -5    8.11    0.62
   5  -7   5    7.45    1.01
   5  -7   5    9.25    0.65
  -5   7   5    7.93    0.55
   5  -7   5    8.74    0.65
   5  -7  -5    8.52    0.64
  -5  -7   5    8.62    0.58
   5  -7  -5    5.87    0.87
   5   7   5    8.14    0.59
   5   7   5    8.03    0.41
   5   7   5    9.23    0.68
  -5  -7   5    8.26    0.66
   5  -7  -5    8.63    0.81
   5   7   5    8.69    0.62
  -5   7  -5    7.14    0.73
  -5  -7   5    7.84    0.63
  -5   8   5   33.23    1.17
  -5  -8  -5   32.60    1.34
   5   8  -5   31.52    1.23
   5  -8   5   30.72    1.20
  -5   8   5   31.30    1.27
   5  -8   5   33.80    1.39
  -5   8   5   29.10    1.10
   5   8  -5   31.25    1.24
  -5  -8   5   31.81    1.41
   5   8   5   32.37    1.28
  -5  -8   5   33.16    1.26
   5  -8  -5   33.55    1.41
  -5  -8   5   31.49    1.20
   5   8   5   31.33    1.29
   5   8   5   30.97    1.38
  -5   8  -5   32.34    1.17
  -5   8  -5   30.63    1.49
   5  -8  -5   30.82    1.57
   5   8   5   32.19    0.99
  -5  -9  -5    0.21    0.23
  -5   9   5    0.33    0.20
   5  -9   5    0.23    0.22
  -5   9   5    0.43    0.17
   5  -9   5    0.37    0.18
  -5   9   5    0.00    0.15
   5   9  -5    0.41    0.20
   5   9  -5    0.35    0.16
  -5   9  -5    0.37    0.19
   5   9   5    0.25    0.12
  -5  -9   5    0.46    0.20
   5   9   5    0.28    0.18
  -5   9  -5   -0.26    0.26
   5  -9  -5    0.36    0.21
  -5  -9   5    0.29    0.17
   5   9   5    0.12    0.18
   5   9   5    0.18    0.21
   5 -10   5    0.87    0.20
  -5  10   5    0.45    0.16
  -5  10   5    0.55    0.19
   5 -10  -5    0.52    0.19
   5  10   5    0.65    0.13
  -5  10  -5    0.16    0.15
  -5  10  -5    0.64    0.22
   5  10   5    0.50    0.18
   5  10   5    0.51    0.23
  -5 -10   5    0.63    0.19
   5 -10  -5    0.59    0.17
  -5 -10   5    0.77    0.17
   5  10   5    0.46    0.18
  -5  11   5   13.37    0.52
   5 -11   5   12.64    0.50
   5 -11  -5   13.08    0.54
   5  11   5   13.11    0.54
  -5 -11   5   13.82    0.52
  -5  11  -5   14.32    0.51
   5  11   5   13.32    0.36
   5  11   5   13.61    0.55
   5   0   6    0.24    0.16
   5   0   6    0.14    0.27
  -5   0   6    0.37    0.25
   5   0   6    0.36    0.29
   5   0  -6    0.02    0.28
   5   0  -6    0.24    0.32
  -5   0   6   -0.06    0.22
   5   0   6    0.41    0.30
   5   0  -6   -0.12    0.21
   5   0   6   -0.06    0.24
   5   0  -6    0.13    0.22
  -5   0   6    0.22    0.23
   5  -1   6    7.07    0.69
   5  -1   6    7.62    0.73
   5   1  -6    6.05    0.81
   5   1  -6    6.66    0.90
  -5   1   6    7.31    0.72
   5   1  -6    6.76    0.66
   5  -1   6    7.43    0.50
  -5   1   6    7.66    0.71
   5  -1   6    7.74    0.71
   5  -1   6    7.01    0.81
  -5   1   6    6.89    0.69
   5   1  -6    6.34    0.62
   5  -1  -6    5.52    0.83
   5   1   6    8.22    0.83
   5   1   6    7.39    0.73
   5  -1  -6    6.43    0.63
  -5  -1   6    7.01    0.48
   5  -1  -6    6.95    0.75
  -5  -1   6    6.67    0.66
   5   1   6    7.63    0.72
   5   1   6    6.90    0.64
  -5  -1   6    7.10    0.83
   5   1   6    7.52    0.50
  -5  -1   6    7.46    0.71
   5  -1  -6    6.73    0.64
  -5  -1   6    7.37    0.71
   5   2  -6   42.33    1.82
   5  -2   6   46.33    1.61
   5  -2   6   44.23    1.65
   5  -2   6   45.87    1.97
  -5   2   6   48.79    2.02
   5  -2   6   43.78    2.06
   5  -2   6   47.96    2.31
  -5  -2  -6   40.81    1.81
   5   2  -6   42.56    2.24
   5   2  -6   42.33    2.13
  -5   2   6   45.71    2.02
  -5   2   6   41.99    1.93
   5   2  -6   43.06    2.03
  -5  -2  -6   41.85    2.00
   5   2   6   47.02    2.14
  -5  -2   6   45.64    2.04
   5  -2  -6   44.05    2.15
   5  -2  -6   42.94    1.65
  -5  -2   6   44.21    1.96
  -5  -2   6   47.30    1.96
  -5  -2   6   44.39    1.64
   5  -2  -6   42.54    1.84
   5   2   6   42.42    1.88
   5  -2  -6   43.36    2.00
  -5   2  -6   42.38    1.80
  -5  -2   6   44.54    1.91
   5  -2  -6   42.25    2.30
   5  -3   6   27.20    1.43
   5  -3   6   25.50    1.51
   5   3  -6   23.74    1.43
   5  -3   6   25.91    1.05
  -5  -3  -6   24.13    1.34
  -5   3   6   27.27    1.46
  -5   3   6   26.33    1.43
   5  -3   6   27.36    1.16
   5  -3   6   24.46    1.64
  -5  -3  -6   24.02    1.37
  -5  -3  -6   25.74    1.53
   5   3  -6   23.11    1.49
   5  -3   6   27.38    1.44
   5  -3  -6   25.62    1.55
  -5  -3   6   25.17    1.41
   5  -3  -6   23.40    1.63
  -5  -3   6   24.98    1.43
   5   3   6   26.65    1.09
   5  -3  -6   25.81    1.42
  -5   3  -6   24.31    1.29
   5  -3  -6   25.19    1.10
   5  -3  -6   24.89    1.31
  -5  -3   6   26.45    1.15
   5  -3  -6   24.83    1.44
  -5  -3   6   26.27    1.39
  -5  -3   6   27.14    1.50
   5  -4   6   29.92    1.29
  -5   4   6   26.72    1.56
  -5  -4  -6   30.15    1.77
  -5   4   6   28.94    1.61
   5  -4   6   30.64    1.20
   5  -4   6   29.09    1.58
  -5  -4  -6   28.47    1.56
   5  -4   6   30.35    1.69
  -5  -4  -6   27.11    1.54
   5   4  -6   28.34    1.38
  -5  -4   6   29.74    1.29
  -5   4  -6   27.67    1.50
   5  -4  -6   27.54    1.67
   5   4   6   29.98    1.23
   5  -4  -6   28.64    1.62
   5  -4  -6   28.75    1.23
  -5  -4   6   29.41    1.55
   5  -4  -6   27.45    1.57
  -5  -4   6   29.33    1.64
   5  -4  -6   29.44    1.47
   5  -5   6   10.75    1.05
  -5   5   6   11.68    0.76
  -5   5   6   11.78    0.63
   5  -5   6   12.42    0.70
  -5   5   6   12.01    1.05
   5  -5   6   12.40    0.75
   5   5  -6   12.48    0.84
   5   5  -6   12.68    0.70
   5  -5   6   12.55    0.61
   5  -5   6   12.51    0.78
   5  -5   6   11.68    1.12
  -5   5   6   12.03    0.75
   5  -5   6   12.46    0.73
   5  -5   6   12.08    0.63
  -5   5   6   11.19    0.65
  -5  -5  -6   13.03    1.12
   5   5   6   11.67    0.75
  -5   5  -6   12.24    0.95
   5   5   6   12.03    0.72
   5   5   6   11.88    0.43
  -5  -5   6   12.05    0.66
  -5  -5   6   10.70    1.08
   5   5   6   12.61    0.72
   5  -5  -6   13.51    1.07
  -5  -5   6   12.52    0.79
  -5   5  -6   12.62    1.01
   5  -5  -6   13.18    1.10
   5  -5  -6   13.59    1.00
   5  -6   6   25.44    1.69
  -5   6   6   28.57    1.16
   5  -6   6   27.26    1.13
   5  -6   6   30.02    1.28
  -5   6   6   28.71    1.08
   5  -6   6   28.42    1.07
   5  -6   6   30.32    1.84
  -5   6   6   29.73    1.04
   5  -6   6   30.07    1.04
   5  -6   6   31.15    1.34
  -5   6   6   29.84    1.21
   5   6  -6   27.56    1.16
   5   6  -6   27.68    1.33
   5  -6  -6   27.73    1.52
  -5  -6   6   29.98    1.35
   5   6   6   29.10    1.20
   5   6   6   29.87    1.31
   5   6   6   29.04    0.85
   5  -6  -6   24.43    1.63
  -5  -6   6   30.35    1.16
   5  -6  -6   27.89    1.28
   5   6   6   28.89    1.22
  -5  -6   6   30.40    1.17
  -5   6  -6   28.53    1.52
   5  -7   6   16.43    0.91
   5  -7   6   16.75    0.93
  -5   7   6   16.35    0.85
  -5   7   6   17.59    0.84
   5   7  -6   17.25    0.90
   5  -7   6   17.38    0.84
  -5   7   6   15.98    0.76
   5   7  -6   16.09    0.82
   5  -7   6   16.18    0.77
  -5   7   6   16.40    0.74
  -5  -7   6   16.57    0.96
   5  -7  -6   16.01    0.92
  -5   7  -6   15.85    1.10
  -5  -7   6   17.24    0.79
   5   7   6   16.77    0.94
   5   7   6   16.64    0.58
   5  -7  -6   16.18    1.12
   5   7   6   17.83    0.89
  -5  -7   6   17.92    0.81
   5   7   6   16.66    0.85
   5   8  -6    0.78    0.26
  -5   8   6    0.66    0.21
  -5   8   6    0.65    0.22
  -5   8   6    0.36    0.19
   5   8  -6    0.56    0.23
   5  -8   6    0.42    0.26
   5  -8   6    0.54    0.21
  -5  -8   6    0.51    0.20
   5   8   6    0.52    0.23
  -5   8  -6    0.81    0.22
   5  -8  -6    1.01    0.29
  -5  -8   6    0.37    0.25
   5  -8  -6    1.63    0.41
  -5  -8   6    0.65    0.20
  -5   8  -6    0.80    0.37
   5   8   6    0.30    0.23
   5   8   6    0.58    0.24
  -5   9   6    1.50    0.24
  -5   9   6    1.52    0.25
   5   9  -6    1.39    0.26
   5   9  -6    1.84    0.27
   5  -9   6    1.20    0.24
  -5  -9   6    1.16    0.19
  -5   9  -6    1.51    0.26
   5  -9  -6    1.89    0.33
   5   9   6    1.76    0.30
  -5  -9   6    1.63    0.27
   5   9   6    1.41    0.17
   5   9   6    0.84    0.26
   5   9   6    1.55    0.29
  -5  10   6    0.02    0.13
   5 -10   6   -0.01    0.13
  -5  10   6    0.05    0.11
   5  10   6   -0.22    0.11
  -5  10  -6    0.22    0.20
  -5 -10   6    0.04    0.12
   5 -10  -6    0.03    0.11
  -5  10  -6    0.05    0.13
   5  10   6   -0.05    0.13
   5  10   6    0.06    0.07
  -5   0   7    0.12    0.27
   5   0  -7    0.22    0.27
   5   0   7    0.09    0.31
   5   0  -7   -0.05    0.33
   5   0  -7    0.25    0.28
  -5   0   7    0.47    0.31
   5   0  -7    0.00    0.39
  -5   0   7   -0.02    0.30
   5   0   7    0.29    0.33
   5   0   7   -0.06    0.25
   5   0   7   -0.10    0.39
   5   0   7    0.03    0.16
   5  -1   7   11.38    0.98
  -5   1   7   11.44    0.98
   5  -1   7   10.99    0.69
  -5   1   7    9.94    0.92
   5   1  -7   11.42    1.06
   5   1  -7   10.76    1.12
   5   1  -7   12.03    0.87
  -5  -1  -7   11.95    1.18
  -5   1   7    9.82    0.91
   5  -1   7   11.99    1.03
   5  -1   7   10.70    0.92
   5  -1   7   11.98    1.16
   5   1  -7   12.18    0.95
  -5  -1   7   12.97    1.02
   5  -1  -7   11.34    0.87
  -5  -1   7   11.27    0.94
   5  -1  -7   10.55    1.10
  -5  -1   7   12.14    0.67
  -5  -1   7   10.30    0.94
   5  -1  -7   12.03    1.07
   5   1   7   11.42    0.98
   5   1   7   11.77    0.69
   5   1   7   11.08    0.96
   5  -2   7   16.63    1.18
   5  -2   7   17.32    0.89
  -5   2   7   17.12    1.18
  -5   2   7   17.32    1.20
   5   2  -7   17.39    1.05
   5   2  -7   18.81    1.37
  -5   2   7   17.02    1.18
   5  -2   7   17.59    1.27
   5   2  -7   17.68    1.18
   5  -2   7   17.21    1.17
   5  -2   7   17.29    1.39
   5   2  -7   16.27    1.39
  -5  -2   7   16.58    1.17
   5  -2  -7   16.31    1.10
  -5   2  -7   16.48    0.97
  -5  -2   7   16.73    1.19
  -5  -2   7   17.76    0.89
  -5  -2   7   17.18    1.25
   5  -2  -7   14.68    1.40
   5  -2  -7   18.11    1.09
  -5  -2   7   16.25    1.13
   5  -2  -7   17.58    1.32
  -5  -3  -7   49.49    2.29
   5  -3   7   47.64    1.92
   5  -3   7   51.38    2.48
   5  -3   7   48.40    2.32
   5   3  -7   52.84    2.56
  -5   3   7   50.04    2.33
   5   3  -7   54.26    2.49
   5  -3  -7   52.60    2.54
   5  -3  -7   53.81    1.90
  -5  -3   7   52.06    2.31
  -5  -3   7   54.27    1.97
   5  -3  -7   50.81    2.38
   5  -3  -7   55.38    2.23
   5  -3  -7   51.85    2.37
  -5   3  -7   50.87    2.26
  -5  -3   7   49.73    2.36
  -5   4   7   10.03    1.01
   5  -4   7    9.67    0.69
  -5  -4  -7    8.93    1.04
  -5   4   7    9.49    0.58
  -5   4   7    9.75    0.52
   5  -4   7    9.83    0.59
   5  -4   7   10.03    0.60
   5  -4   7    8.97    0.46
   5  -4   7    8.05    1.00
   5  -4   7    9.17    1.13
   5   4  -7    8.24    0.59
  -5   4   7    9.63    0.62
   5  -4   7    9.21    0.56
   5   4  -7    7.98    0.76
   5  -4  -7    8.80    1.05
   5  -4  -7    9.51    1.04
  -5  -4   7   10.36    1.16
   5  -4  -7    8.59    0.65
  -5  -4   7   10.71    0.70
  -5  -4   7    8.26    0.58
  -5   4  -7    7.96    0.79
   5  -4  -7    8.22    0.86
   5   4   7   10.16    0.68
  -5  -4   7    7.01    0.94
   5  -4  -7    8.76    0.85
   5   4   7    9.52    0.68
   5  -5   7   24.24    1.02
   5  -5   7   24.00    0.95
   5  -5   7   24.24    1.59
   5   5  -7   22.64    1.26
   5  -5   7   24.42    1.19
  -5   5   7   25.43    1.07
  -5   5   7   24.13    0.96
   5  -5   7   23.23    1.63
  -5   5   7   24.57    0.89
   5  -5   7   24.41    0.87
   5  -5   7   24.15    1.00
  -5   5   7   24.59    1.04
   5   5  -7   24.81    1.06
   5  -5  -7   24.65    1.41
   5   5   7   23.24    1.06
   5   5   7   23.96    1.07
  -5  -5   7   23.58    1.03
   5   5   7   24.07    0.64
  -5  -5   7   24.61    1.20
   5  -5  -7   20.40    1.48
   5   5   7   23.58    1.14
   5  -5  -7   23.78    1.15
  -5   5  -7   22.67    1.36
  -5  -5   7   24.29    0.91
   5  -6   7   21.60    1.14
   5   6  -7   22.01    1.18
   5  -6   7   23.69    0.94
  -5   6   7   23.79    1.03
   5  -6   7   23.59    1.68
  -5   6   7   21.29    0.98
  -5   6   7   22.90    0.86
   5  -6   7   22.20    0.86
   5  -6   7   22.43    0.97
  -5   6   7   23.73    0.95
   5  -6   7   22.13    0.98
   5   6  -7   23.16    1.02
   5   6   7   22.61    1.03
   5  -6  -7   24.18    1.39
   5  -6  -7   23.88    1.14
  -5  -6   7   23.27    0.86
   5   6   7   23.16    0.65
   5   6   7   20.86    1.10
   5   6   7   23.84    1.07
  -5  -6   7   23.32    1.17
  -5   6  -7   24.01    1.40
   5   7  -7    3.06    0.39
  -5   7   7    2.86    0.31
  -5   7   7    2.52    0.37
   5  -7   7    2.66    0.36
   5  -7   7    2.24    0.34
  -5   7   7    2.39    0.33
   5   7  -7    3.02    0.45
  -5   7   7    2.40    0.35
   5  -7   7    2.12    0.33
   5  -7   7    2.74    0.44
   5  -7  -7    2.42    0.40
  -5   7  -7    1.98    0.47
  -5  -7   7    1.88    0.39
   5   7   7    2.45    0.19
   5   7   7    2.21    0.37
   5   7   7    1.89    0.36
   5   7   7    2.56    0.38
  -5  -7   7    2.25    0.24
   5  -7  -7    3.34    0.59
  -5   8   7    6.25    0.43
  -5   8   7    7.17    0.49
  -5   8   7    7.37    0.49
   5   8  -7    6.56    0.49
   5   8  -7    7.49    0.57
   5  -8   7    7.32    0.51
   5   8   7    7.41    0.52
   5   8   7    7.38    0.28
   5   8   7    7.29    0.54
   5  -8  -7    7.07    0.57
  -5  -8   7    7.81    0.50
   5   8   7    6.95    0.57
  -5   9   7    0.66    0.18
   5  -9   7    1.39    0.24
  -5   9   7    0.97    0.19
   5   9  -7    1.09    0.21
   5   9   7    0.88    0.21
   5  -9  -7    0.98    0.20
  -5  -9   7    1.04    0.20
   5   9   7    1.26    0.27
   5  -9  -7    0.64    0.21
  -5   9  -7    0.90    0.21
   5   9   7    1.09    0.23
   5 -10   7    3.95    0.28
  -5  10   7    4.16    0.26
   5  10   7    4.08    0.30
  -5  10  -7    3.83    0.34
  -5  10  -7    4.47    0.29
   5  10   7    4.41    0.30
   5 -10  -7    4.60    0.31
   5   0   8    0.04    0.20
   5   0  -8    0.27    0.35
  -5   0   8    0.04    0.35
   5   0   8   -0.04    0.39
   5   0  -8    0.26    0.33
  -5   0   8    0.16    0.28
   5   0   8    0.11    0.39
   5   0  -8    0.07    0.34
  -5   1   8   17.31    0.85
   5   1  -8   16.33    1.37
  -5   1   8   17.16    1.29
   5  -1   8   16.57    1.26
   5   1  -8   17.14    1.23
   5   1  -8   18.54    1.16
  -5   1   8   19.09    1.30
   5  -1   8   18.08    0.95
   5  -1   8   17.14    1.30
  -5  -1   8   16.43    1.26
   5   1   8   17.35    1.33
  -5  -1   8   18.68    0.93
   5  -1  -8   15.93    1.14
   5  -1  -8   16.17    1.19
  -5  -1   8   16.46    1.24
   5   1   8   19.02    1.39
   5  -1  -8   17.65    1.40
  -5   2   8   50.29    1.61
   5  -2   8   50.36    1.71
   5  -2   8   50.41    1.37
   5   2  -8   54.28    2.67
   5  -2   8   52.17    2.56
   5   2  -8   49.45    2.48
   5   2  -8   56.28    2.27
   5  -2   8   49.58    1.59
  -5   2   8   51.58    1.76
   5  -2   8   54.56    2.02
  -5   2   8   51.89    1.49
   5  -2   8   50.16    2.41
   5  -2  -8   56.27    2.31
  -5  -2   8   50.94    1.59
  -5  -2   8   54.04    1.96
  -5  -2   8   51.66    1.77
   5  -2  -8   52.98    2.49
  -5   2  -8   51.55    2.27
  -5  -2   8   54.01    2.48
  -5  -2   8   52.70    2.39
   5  -2  -8   48.49    2.55
  -5  -2   8   52.47    1.75
   5  -3   8   45.76    1.47
  -5   3   8   45.02    1.36
   5  -3   8   45.61    1.56
   5  -3   8   45.27    1.81
   5  -3   8   44.10    2.23
   5   3  -8   42.72    2.40
   5  -3   8   43.83    1.27
   5   3  -8   46.65    2.05
   5  -3   8   45.24    2.36
  -5   3   8   46.21    1.61
   5  -3   8   46.69    1.52
  -5   3   8   45.08    1.47
  -5  -3   8   46.14    1.80
  -5  -3   8   45.42    1.58
  -5  -3   8   45.40    1.61
   5  -3  -8   47.03    1.74
  -5  -3   8   46.34    2.26
   5  -3  -8   48.58    2.10
   5  -3  -8   44.21    2.24
   5  -3  -8   43.21    2.37
   5  -4   8   18.34    1.43
   5  -4   8   18.91    0.71
   5   4  -8   20.30    0.93
  -5   4   8   18.09    0.87
   5  -4   8   18.63    0.87
   5  -4   8   17.98    0.86
   5   4  -8   19.70    1.17
   5  -4   8   18.32    1.45
   5  -4   8   18.45    1.02
   5  -4   8   18.22    0.81
  -5   4   8   19.09    0.74
  -5   4   8   18.20    0.82
   5  -4  -8   19.50    1.28
   5  -4  -8   19.96    1.53
  -5  -4   8   17.38    0.87
   5   4   8   18.66    0.91
   5  -4  -8   18.13    1.38
   5  -4  -8   20.13    0.99
  -5  -4   8   19.07    1.01
   5   5  -8    8.47    0.61
   5  -5   8   10.74    0.61
  -5   5   8    9.72    0.63
   5  -5   8   11.27    0.65
   5  -5   8    7.94    1.07
   5  -5   8    9.98    0.63
   5  -5   8   10.25    0.74
   5  -5   8   10.48    0.53
  -5   5   8    9.97    0.59
   5   5  -8    9.83    0.84
  -5   5   8   10.89    0.53
   5   5   8   10.87    0.67
   5  -5  -8    8.59    0.94
   5  -5  -8    9.21    0.69
  -5  -5   8   10.48    0.75
   5   5   8   10.64    0.72
   5   5   8   11.29    0.75
  -5   5  -8    8.80    0.95
  -5  -5   8   10.74    0.64
  -5   6   8   31.04    1.22
  -5   6   8   31.58    1.16
   5   6  -8   30.93    1.48
   5  -6   8   33.37    1.08
   5  -6   8   33.26    1.18
   5  -6   8   32.70    1.46
  -5   6   8   31.83    1.05
   5   6  -8   33.87    1.28
   5  -6   8   33.91    1.22
   5  -6   8   33.78    1.24
   5   6   8   34.06    1.42
   5  -6  -8   33.24    1.41
  -5  -6   8   31.00    1.43
   5   6   8   31.70    1.27
   5  -6  -8   34.35    1.73
  -5   6  -8   33.29    1.72
   5   6   8   33.09    1.30
  -5   7   8   13.83    0.59
   5  -7   8   14.74    0.65
  -5   7   8   13.85    0.68
  -5   7   8   12.95    0.65
   5  -7   8   13.91    0.70
   5  -7   8   13.16    0.67
   5   7  -8   13.61    0.70
   5   7   8   13.97    0.81
   5   7   8   13.66    0.74
   5  -7  -8   12.88    0.78
   5   7   8   15.64    0.76
  -5  -7   8   12.49    0.83
  -5   8   8    1.11    0.20
  -5   8   8    0.92    0.22
   5  -8   8    1.02    0.23
   5   8  -8    1.37    0.28
  -5   8   8    1.00    0.19
   5  -8   8    1.11    0.22
   5   8   8    1.20    0.25
   5   8   8    0.90    0.27
   5   8   8    0.95    0.23
   5  -8  -8    1.91    0.27
   5  -8  -8    1.19    0.27
  -5   8  -8    1.51    0.25
  -5   9   8    1.99    0.19
   5  -9   8    2.14    0.24
   5   9  -8    1.71    0.23
  -5   9   8    2.22    0.23
   5  -9   8    2.10    0.25
   5   9   8    2.01    0.25
  -5   9  -8    1.87    0.23
   5   9   8    2.30    0.25
   5  -9  -8    1.90    0.25
   5   0  -9   -0.09    0.40
   5   0   9   -0.22    0.21
  -5   0   9   -0.03    0.40
  -5   0   9    0.17    0.18
  -5   0   9   -0.09    0.18
  -5   0   9    0.10    0.20
   5   0   9    0.09    0.19
   5   0   9    0.65    0.55
  -5   0   9   -0.03    0.17
   5   0   9   -0.44    0.37
   5   0  -9    0.22    0.34
  -5   1   9    1.95    0.32
  -5   1   9    1.91    0.27
  -5   1   9    2.71    0.35
   5  -1   9    2.24    0.35
   5  -1   9    2.67    0.71
   5  -1   9    2.00    0.18
  -5   1   9    1.71    0.56
   5  -1   9    2.27    0.61
   5   1  -9    3.00    0.55
   5  -1   9    2.51    0.37
   5   1  -9    3.35    0.78
   5  -1   9    1.62    0.35
  -5   1   9    2.69    0.39
   5  -1  -9    2.09    0.67
  -5  -1   9    1.80    0.57
  -5  -1   9    2.40    0.38
   5   1   9    2.53    0.71
  -5  -1   9    2.41    0.35
   5  -1  -9    1.56    0.52
   5   1   9    2.09    0.34
  -5  -1   9    1.86    0.27
  -5  -1   9    1.55    0.30
   5  -2   9   13.94    0.70
  -5   2   9   13.45    0.62
   5  -2   9   13.88    0.75
   5  -2   9   13.26    1.29
   5  -2   9   12.89    1.25
  -5   2   9   14.01    0.75
  -5   2   9   14.15    0.70
   5   2  -9   15.18    1.41
   5   2  -9   14.88    1.08
   5  -2   9   13.75    0.51
   5  -2   9   14.56    0.87
  -5  -2   9   13.23    1.23
   5  -2  -9   14.42    1.30
  -5  -2   9   15.23    0.72
   5  -2  -9   13.55    1.34
  -5  -2   9   12.77    0.67
  -5  -2   9   12.96    0.74
  -5  -2   9   13.89    0.75
   5  -2  -9   15.20    1.23
   5  -3   9   19.33    1.57
   5   3  -9   22.22    1.34
   5   3  -9   19.95    1.61
  -5   3   9   21.99    0.91
  -5   3   9   23.00    0.82
   5  -3   9   22.99    0.99
   5  -3   9   22.14    0.92
  -5   3   9   22.76    0.98
   5  -3   9   23.50    1.17
   5  -3   9   22.15    0.74
  -5  -3   9   21.90    0.89
  -5  -3   9   23.03    1.00
  -5  -3   9   22.88    1.12
   5  -3  -9   20.57    1.58
  -5   4   9    5.52    0.44
   5  -4   9    5.57    0.50
  -5   4   9    5.21    0.37
   5  -4   9    4.82    0.34
   5  -4   9    3.98    0.42
   5  -4   9    4.84    0.94
  -5   4   9    5.14    0.51
   5   4  -9    4.71    0.69
   5  -4   9    4.00    0.54
   5  -4   9    5.09    0.50
   5   4  -9    5.47    0.49
   5  -4  -9    4.52    0.74
  -5  -4   9    4.08    0.44
  -5  -4   9    4.50    0.53
   5  -5   9    6.85    0.52
   5  -5   9    7.64    0.42
   5  -5   9    7.12    0.66
  -5   5   9    7.85    0.51
  -5   5   9    6.64    0.42
   5  -5   9    7.26    0.52
   5   5  -9    7.15    0.55
   5  -5   9    7.32    0.54
  -5   5   9    7.76    0.55
   5   5  -9    7.33    0.75
   5  -5  -9    6.36    0.83
  -5  -5   9    7.13    0.54
   5   5   9    6.76    0.55
   5  -5  -9    7.28    0.59
  -5  -5   9    7.30    0.64
  -5   5  -9    7.22    0.85
   5  -6   9    9.08    0.55
  -5   6   9    9.41    0.53
  -5   6   9    9.89    0.47
   5  -6   9    9.14    0.49
   5  -6   9    9.78    0.60
   5   6  -9   10.44    0.62
   5  -6   9    8.94    0.56
   5  -6   9    8.68    0.70
  -5   6   9    9.38    0.57
   5   6   9    9.22    0.59
  -5  -6   9    8.84    0.55
   5   6   9   10.03    0.67
   5  -6  -9    8.81    0.63
  -5  -6   9    9.04    0.71
   5  -7   9    9.51    0.50
   5   7  -9    7.31    0.60
   5  -7   9    8.04    0.44
  -5   7   9    8.60    0.50
   5  -7   9    9.03    0.51
  -5   7   9    9.19    0.48
   5  -7   9    8.93    0.51
  -5   7   9    8.35    0.41
   5  -7  -9    9.09    0.52
   5   7   9    9.31    0.53
   5   7   9    8.98    0.53
   5  -7  -9    8.35    0.57
   5   7   9    8.07    0.58
   5   8  -9    5.23    0.42
  -5   8   9    5.04    0.33
   5  -8   9    4.78    0.32
   5  -8   9    5.29    0.35
  -5   8   9    4.93    0.33
  -5   8  -9    5.58    0.35
   5   8   9    4.72    0.36
   5  -8  -9    5.37    0.36
   5   8   9    5.14    0.36
  -5   0  10    0.08    0.19
  -5   0  10    0.14    0.14
   5   0  10    0.49    0.57
   5   0 -10   -0.22    0.36
   5   0  10    0.27    0.20
   5   0  10    0.22    0.21
  -5   0  10    0.24    0.19
  -5   0  10    0.25    0.20
   5   0 -10    0.24    0.48
  -5   1  10   12.27    0.56
   5  -1  10   12.06    1.33
   5  -1  10   11.78    0.68
  -5   1  10   11.50    0.68
   5   1 -10   12.64    1.03
  -5   1  10   12.07    0.64
  -5   1  10   12.48    0.71
   5  -1  10   12.41    0.65
   5   1 -10   13.16    1.32
   5   1  10   12.14    0.65
  -5  -1  10   11.93    0.70
   5  -1 -10   12.14    1.29
  -5  -1  10   11.71    0.63
   5  -1 -10   13.45    1.09
  -5  -1  10   11.75    0.69
  -5  -1  10   12.28    0.58
   5  -2  10   29.51    1.19
   5   2 -10   29.84    1.98
   5  -2  10   30.69    1.39
   5  -2  10   30.74    1.12
  -5   2  10   31.00    1.00
  -5   2  10   31.00    1.21
   5  -2  10   30.17    0.85
   5  -2  10   26.65    1.92
  -5   2  10   31.35    1.11
  -5  -2  10   31.51    1.10
   5  -2 -10   29.33    1.94
  -5  -2  10   29.54    1.20
   5  -2 -10   34.73    1.79
  -5  -2  10   30.45    1.19
  -5  -2  10   32.49    1.06
   5  -3  10    8.76    0.59
  -5   3  10    8.64    0.53
   5  -3  10    8.77    0.56
   5   3 -10    9.30    0.89
   5  -3  10    8.90    0.39
   5  -3  10    8.63    0.71
   5   3 -10    9.60    0.61
  -5   3  10    9.01    0.45
  -5   3  10    9.14    0.60
  -5  -3  10    8.26    0.51
  -5  -3  10    8.98    0.59
  -5  -3  10    8.44    0.51
   5  -4  10    5.32    0.33
   5   4 -10    7.14    0.79
   5  -4  10    5.32    0.48
  -5   4  10    6.23    0.37
  -5   4  10    6.02    0.45
   5  -4  10    4.22    0.52
   5   4 -10    6.58    0.51
   5  -4  10    4.24    0.44
  -5   4  10    4.94    0.46
  -5  -4  10    5.38    0.47
  -5  -4  10    5.99    0.43
  -5  -4  10    6.93    0.62
  -5   5  10   15.76    0.60
  -5   5  10   17.44    0.78
   5  -5  10   16.16    0.73
  -5   5  10   15.67    0.70
   5   5 -10   17.00    0.77
   5  -5  10   16.72    0.79
   5  -5  10   15.99    0.61
  -5  -5  10   15.91    0.74
   5   5  10   16.72    0.77
   5   6 -10   17.44    0.80
   5  -6  10   16.53    0.74
   5  -6  10   17.96    0.74
  -5   6  10   18.13    0.60
   5  -6  10   17.16    0.71
   5  -6  10   16.81    0.61
  -5   6  10   17.62    0.70
  -5   6  10   17.40    0.74
   5   6  10   16.08    0.73
  -5  -6  10   17.06    0.71
   5   7 -10    7.73    0.50
   5  -7  10    7.32    0.43
  -5   7  10    6.85    0.41
   5  -7  10    7.39    0.40
   5  -7  10    7.54    0.40
   5  -7  10    7.26    0.35
  -5   7  10    7.42    0.38
   5   7  10    7.37    0.42
   5  -8  10    0.47    0.13
  -5   8 -10    0.12    0.11
  -5   0  11    0.06    0.17
  -5   0  11   -0.16    0.17
   5   0 -11    0.20    0.41
  -5   0  11   -0.08    0.12
   5   0  11    0.09    0.20
  -5   0  11   -0.01    0.17
   5   0  11   -0.04    0.17
   5  -1  11    9.35    0.59
   5  -1  11    8.06    0.52
  -5   1  11    8.20    0.57
  -5   1  11    8.40    0.55
  -5   1  11    8.35    0.43
  -5   1  11    8.40    0.51
  -5  -1  11    8.70    0.50
  -5  -1  11    8.35    0.56
   5   1  11    7.82    0.52
  -5  -1  11    8.02    0.54
  -5  -1  11    7.89    0.45
  -5   2  11   15.03    0.75
   5  -2  11   16.60    0.74
   5  -2  11   15.92    0.78
  -5   2  11   16.86    0.72
  -5   2  11   16.14    0.60
  -5  -2  11   15.22    0.69
  -5  -2  11   16.21    0.65
  -5  -2  11   15.54    0.76
  -5   3  11    1.98    0.22
  -5   3  11    1.50    0.25
   5   3 -11    1.70    0.28
   5  -3  11    1.47    0.26
  -5   3  11    1.86    0.30
   5  -3  11    1.58    0.14
   5  -3  11    2.13    0.32
  -5  -3  11    2.38    0.29
  -5  -3  11    1.97    0.27
  -5  -3  11    1.71    0.29
   5  -4  11   10.63    0.59
   5  -4  11    9.92    0.55
  -5   4  11   10.55    0.53
  -5   4  11   10.45    0.57
   5   4 -11   10.07    0.56
   5  -4  11   10.25    0.38
  -5   4  11   10.66    0.42
  -5  -4  11   10.42    0.57
  -5  -4  11   10.38    0.51
   5  -5  11   13.31    0.64
  -5   5  11   13.83    0.46
   5  -5  11   13.50    0.59
  -5   5  11   13.88    0.62
   5  -5  11   13.42    0.45
  -5   5  11   13.67    0.58
   5   5 -11   12.69    0.64
  -5  -5  11   12.77    0.55
  -5  -5  11   14.06    0.61
   5  -6  11    3.55    0.29
  -5   6  11    3.02    0.27
   5  -6  11    2.79    0.27
  -5   6  11    3.20    0.17
   5  -6  11    2.63    0.19
  -5   6  11    3.04    0.29
  -5  -6  11    3.32    0.26
  -5  -6  11    2.56    0.25
  -5   0  12   -0.05    0.08
  -5   0  12    0.20    0.16
  -5   0  12    0.08    0.15
  -5   0  12   -0.03    0.13
   5   0  12    0.00    0.19
   5   0  12   -0.08    0.15
  -5   1  12    3.06    0.33
   5  -1  12    3.15    0.35
  -5   1  12    3.37    0.32
   5  -1  12    3.42    0.34
  -5   1  12    3.05    0.23
  -5  -1  12    3.21    0.32
   5   1  12    3.07    0.32
  -5  -1  12    3.40    0.25
  -5  -1  12    2.62    0.30
  -5   2  12    4.26    0.36
  -5   2  12    4.59    0.34
  -5   2  12    4.27    0.24
   5   2 -12    4.35    0.36
   5  -2  12    4.68    0.41
   5  -2  12    4.64    0.36
  -5  -2  12    4.31    0.29
  -5  -2  12    4.49    0.33
  -5  -2  12    3.54    0.35
  -5   3  12    4.28    0.31
   5   3 -12    3.40    0.33
  -5   3  12    3.26    0.33
   5  -3  12    4.55    0.39
   5  -3  12    4.55    0.35
  -5   3  12    3.98    0.22
  -5  -3  12    3.96    0.33
  -5  -3  12    4.03    0.28
  -5   4  12    3.33    0.27
   5  -4  12    3.07    0.30
  -5   4  12    3.65    0.30
   5  -4  12    3.42    0.30
  -5   4  12    3.68    0.16
  -5  -4  12    3.66    0.30
  -5  -4  12    3.48    0.26
   5  -5  12    6.33    0.34
  -5   5  12    6.13    0.31
   5  -5  12    6.05    0.33
  -5   5  12    5.77    0.34
  -5  -5  12    5.74    0.32
  -5  -5  12    5.68    0.28
  -5   0  13    0.10    0.07
  -5   0  13    0.19    0.14
  -5   0  13    0.17    0.11
   5   0 -13    0.05    0.11
   5  -1  13   14.57    0.57
   5  -1  13   14.89    0.54
  -5   1  13   14.97    0.59
  -5   1  13   14.80    0.38
  -5   1  13   14.26    0.53
   5   1 -13   16.04    0.59
  -5  -1  13   14.78    0.45
  -5  -1  13   15.25    0.57
  -5  -1  13   14.87    0.52
  -5   2  13    2.56    0.22
   5  -2  13    3.03    0.25
   5  -2  13    2.88    0.24
  -5   2  13    2.65    0.24
  -5  -2  13    2.68    0.24
  -5  -2  13    2.85    0.17
  -5   3  13    8.16    0.40
  -5  -3  13    8.30    0.28
  -5  -3  13    7.99    0.38
   6   0   0   13.82    0.71
   6   0   0   13.14    0.77
  -6   0   0   14.11    0.71
  -6   0   0   14.23    0.61
   6   0   0   14.92    0.78
  -6   0   0   13.03    0.70
  -6   0   0   14.53    0.62
  -6  -1   0   14.56    0.69
  -6  -1   0   14.97    0.75
   6  -1   0   14.35    0.81
  -6   1   0   14.19    0.59
  -6   1   0   14.67    0.76
  -6   1   0   14.68    0.72
   6  -1   0   15.07    0.83
   6   1   0   15.46    0.64
   6   1   0   15.10    0.83
   6  -1   0   15.11    0.84
   6   1   0   15.16    0.76
   6  -1   0   14.77    0.61
  -6  -1   0   14.70    0.68
  -6   1   0   14.53    0.57
  -6  -1   0   14.09    0.75
  -6  -2   0  122.15    3.87
  -6  -2   0  129.34    3.80
   6  -2   0  122.31    3.80
  -6  -2   0  124.06    3.87
   6   2   0  123.36    4.25
   6  -2   0  125.54    4.51
  -6  -2   0  115.77    3.76
   6  -2   0  125.02    4.25
  -6   2   0  121.95    3.74
  -6  -2   0  122.00    4.38
  -6   2   0  124.41    4.41
   6  -2   0  126.88    4.33
  -6   2   0  119.74    3.96
   6  -3   0    6.15    0.59
  -6   3   0    6.90    0.51
   6  -3   0    7.08    0.64
   6  -3   0    6.79    0.52
  -6   3   0    6.70    0.54
   6   3   0    6.77    0.60
   6  -3   0    6.29    0.40
  -6  -3   0    6.48    0.43
  -6   3   0    6.90    0.47
  -6  -3   0    7.92    0.57
  -6  -3   0    6.43    0.53
  -6  -3   0    7.02    0.52
  -6  -3   0    6.48    0.56
   6  -3   0    6.90    0.63
   6  -4   0  129.65    4.65
   6  -4   0  124.97    4.02
  -6  -4   0  128.71    4.15
  -6   4   0  128.85    4.65
  -6   4   0  128.26    4.16
   6   4   0  122.49    3.77
   6  -4   0  123.94    3.75
  -6  -4   0  125.20    3.94
   6  -4   0  130.48    4.18
  -6  -4   0  129.33    4.68
  -6  -4   0  129.90    4.09
   6  -4   0  128.60    4.88
  -6  -4   0  127.33    4.18
   6  -4   0  122.83    4.46
  -6  -4   0  124.03    4.53
  -6  -4   0  124.67    4.24
   6  -5   0  129.81    4.81
   6  -5   0  128.31    4.09
   6   5   0  123.16    3.84
  -6  -5   0  131.06    4.33
  -6  -5   0  125.46    4.00
  -6   5   0  129.59    4.20
  -6  -5   0  125.74    4.22
   6  -5   0  125.50    5.01
   6  -5   0  124.18    3.82
   6  -5   0  132.63    4.34
  -6  -5   0  124.73    4.20
  -6  -5   0  123.53    4.31
   6  -5   0  131.64    4.59
  -6  -5   0  126.78    4.71
  -6  -5   0  125.03    4.78
   6   6   0   26.75    1.15
  -6   6   0   28.22    1.22
   6   6   0   28.64    1.19
  -6  -6   0   28.94    1.46
   6  -6   0   28.15    1.16
   6  -6   0   27.55    1.52
  -6  -6   0   25.87    1.47
  -6  -6   0   24.90    1.62
  -6  -6   0   26.25    1.45
  -6  -6   0   28.60    1.19
   6  -6   0   28.60    1.73
  -6  -6   0   28.33    1.58
   6  -6   0   28.54    1.54
   6  -6   0   25.99    1.70
  -6  -7   0   11.88    0.95
   6  -7   0   12.81    1.06
  -6  -7   0   12.81    0.78
   6   7   0   12.93    0.69
   6   7   0   12.85    0.69
  -6   7   0   12.08    0.65
  -6  -7   0   11.89    1.02
  -6  -7   0   12.77    1.07
   6   7   0   12.77    0.75
   6  -7   0   13.32    0.76
  -6   8   0    1.98    0.33
   6  -8   0    2.03    0.35
  -6   8   0    2.18    0.35
   6  -8   0    2.31    0.39
   6  -8   0    2.12    0.67
   6   8   0    1.78    0.33
  -6  -8   0    1.79    0.47
  -6  -8   0    2.42    0.41
   6   8   0    2.24    0.36
  -6   9   0   10.37    0.63
   6  -9   0   11.74    0.74
  -6  -9   0   10.94    0.64
   6   9   0   11.53    0.68
  -6  -9   0   10.88    0.76
  -6   9   0   10.91    0.64
  -6  -9   0   10.71    0.93
   6  -9   0   11.08    0.70
  -6  10   0   -0.05    0.13
   6  10   0    0.20    0.17
  -6  10   0    0.18    0.18
  -6 -10   0   -0.03    0.19
   6 -10   0    0.23    0.19
  -6 -10   0    0.05    0.17
   6 -10   0    0.09    0.18
   6 -11   0    8.34    0.42
  -6 -11   0    7.88    0.44
   6  11   0    8.66    0.47
  -6  11   0    7.29    0.42
   6  11   0    7.93    0.48
  -6   0  -1  132.52    4.45
   6   0  -1  128.47    4.50
  -6   0  -1  130.39    3.72
   6   0  -1  130.39    4.35
  -6   0   1  129.40    4.57
   6   0   1  126.38    4.38
  -6   0  -1  130.72    3.81
  -6   0   1  128.46    3.85
  -6   0   1  128.53    3.94
   6   0  -1  130.51    4.36
   6   0   1  124.45    4.28
   6   0   1  129.23    4.48
  -6   0   1  125.96    3.93
  -6   0  -1  126.42    3.94
  -6   1   1   17.38    0.87
  -6   1   1   17.18    0.75
   6   1  -1   16.02    0.74
   6  -1   1   17.81    0.91
  -6  -1  -1   16.96    0.83
  -6  -1  -1   16.68    0.71
   6  -1   1   17.73    0.90
   6   1  -1   16.64    0.86
  -6   1   1   17.17    0.73
  -6   1   1   16.27    0.77
   6   1  -1   16.51    0.87
   6  -1   1   17.45    0.93
  -6   1   1   16.94    0.80
   6  -1   1   18.11    0.74
  -6  -1  -1   16.60    0.73
  -6  -1  -1   16.24    0.74
   6  -1  -1   16.79    0.91
  -6  -1   1   17.32    0.79
  -6   1  -1   17.42    0.81
   6  -1  -1   16.56    0.90
  -6   1  -1   16.52    0.79
   6  -1  -1   15.66    0.78
   6   1   1   17.43    0.92
   6  -1  -1   16.54    0.70
  -6  -1   1   17.21    0.80
   6  -1  -1   16.53    0.91
  -6  -1   1   16.32    0.83
   6   1   1   17.32    0.73
  -6  -1   1   16.59    0.86
   6  -2   1   24.88    1.23
  -6  -2  -1   30.36    1.14
   6   2  -1   29.68    1.26
   6  -2   1   25.43    1.09
  -6  -2  -1   29.43    1.14
  -6  -2  -1   29.71    1.10
   6  -2   1   26.04    1.06
   6   2  -1   29.87    1.18
  -6   2   1   25.38    1.02
  -6   2   1   24.90    1.20
  -6   2   1   24.35    1.09
   6  -2   1   25.99    1.31
  -6   2   1   24.43    1.03
  -6  -2  -1   27.81    1.17
   6  -2   1   24.99    1.27
  -6   2   1   24.83    0.98
   6  -2  -1   31.70    1.35
   6   2   1   23.13    0.98
   6  -2  -1   28.09    1.35
  -6  -2   1   23.78    1.00
  -6   2  -1   30.61    1.22
  -6  -2   1   24.97    1.16
   6  -2  -1   29.88    1.11
   6  -2  -1   29.87    1.33
  -6  -2   1   24.54    1.09
  -6  -2   1   24.60    1.21
  -6  -2   1   24.37    1.13
   6   2   1   24.75    1.25
   6  -2  -1   29.25    1.07
  -6  -2   1   25.13    1.13
   6   3  -1   19.99    1.02
   6  -3   1   16.97    0.87
  -6  -3  -1   18.57    0.92
   6  -3   1   16.16    0.83
  -6   3   1   17.42    0.78
  -6   3   1   16.67    0.93
  -6   3   1   16.98    0.85
   6  -3   1   16.02    0.96
   6  -3   1   17.31    1.04
   6  -3   1   16.27    0.71
  -6  -3  -1   18.82    0.90
  -6  -3  -1   17.15    0.77
  -6  -3  -1   17.84    0.95
  -6  -3  -1   19.57    0.91
   6  -3   1   15.80    1.04
   6  -3  -1   19.10    1.09
  -6  -3   1   16.71    0.96
  -6  -3   1   15.37    0.86
  -6  -3   1   16.44    0.77
   6   3   1   17.21    1.02
   6  -3  -1   19.14    0.84
  -6  -3   1   18.41    0.94
  -6  -3   1   17.78    0.96
   6  -3  -1   19.66    0.97
  -6   3  -1   17.91    0.87
   6  -3  -1   19.79    1.13
   6  -3  -1   18.47    1.02
   6  -3  -1   19.69    0.94
  -6   3  -1   18.30    0.94
  -6  -3   1   15.81    0.89
  -6  -4  -1   10.95    0.59
  -6  -4  -1   11.78    0.76
  -6  -4  -1   11.55    0.73
  -6   4   1    9.94    0.63
   6  -4   1   10.60    0.78
  -6  -4  -1   11.61    0.86
   6  -4   1   10.07    0.86
   6  -4   1   10.40    0.66
   6  -4   1   10.38    0.57
   6  -4   1   11.03    0.72
   6  -4   1    9.92    0.84
   6   4  -1   10.53    0.56
  -6  -4  -1   12.03    0.77
  -6  -4  -1   10.54    0.72
  -6   4  -1   10.98    0.67
   6  -4  -1   12.23    0.77
   6  -4  -1   10.87    0.65
   6  -4  -1   10.35    0.56
   6  -4  -1   11.05    0.81
  -6   4  -1   10.47    0.74
  -6  -4   1   10.54    0.78
   6  -4  -1   11.63    0.89
   6  -4  -1   10.00    0.86
  -6  -4   1   10.83    0.78
  -6  -4   1    9.14    0.69
  -6  -4   1    9.91    0.74
   6   4   1    9.73    0.56
  -6  -4   1   11.14    0.61
  -6  -4   1    9.42    0.76
  -6  -4   1    9.87    0.70
  -6   5   1    9.44    0.58
   6  -5   1    9.78    0.90
   6   5  -1    9.30    0.56
   6  -5   1    9.40    0.78
   6  -5   1    9.07    0.89
  -6  -5  -1    9.00    0.73
  -6  -5  -1   10.07    0.89
  -6  -5  -1    8.97    0.74
  -6  -5  -1    9.24    0.57
  -6  -5  -1    9.11    0.75
  -6  -5  -1    9.31    0.76
   6  -5   1    9.06    0.56
   6  -5   1    8.97    0.79
  -6   5  -1    9.66    0.68
  -6  -5   1   10.02    0.78
   6  -5  -1    9.68    0.83
  -6  -5   1    9.83    0.85
   6  -5  -1    9.89    0.88
  -6  -5   1    9.20    0.78
  -6  -5   1    8.35    0.73
   6  -5  -1    9.15    0.91
  -6   5  -1    9.71    0.78
   6   5   1    8.96    0.56
   6   5   1    9.61    0.58
  -6  -5   1    8.74    0.74
   6  -5  -1    9.83    0.66
   6  -5  -1    9.69    0.78
   6  -5  -1    9.91    0.56
  -6  -5   1    8.68    0.76
  -6  -5   1    8.77    0.59
   6  -6   1   10.86    0.93
   6  -6   1   10.24    1.07
   6  -6   1   11.14    1.07
  -6  -6  -1    9.85    0.87
  -6  -6  -1   10.73    0.90
   6  -6   1   11.33    0.67
   6  -6   1   12.18    1.00
  -6  -6  -1   11.05    1.04
  -6  -6  -1   11.10    0.88
   6   6  -1   10.51    0.67
  -6  -6  -1   11.35    0.91
   6   6   1   11.03    0.67
   6  -6  -1   10.40    0.68
  -6  -6   1   10.37    0.67
  -6  -6   1   10.81    0.90
   6  -6  -1    9.78    1.04
   6  -6  -1   11.29    0.64
   6  -6  -1   11.00    0.94
  -6  -6   1   11.20    0.84
   6  -6  -1   11.92    0.97
  -6   6  -1   10.27    0.75
   6  -6  -1   11.28    1.07
  -6  -6   1   10.95    0.91
  -6  -6   1   10.33    0.90
   6  -6  -1   11.13    0.73
  -6  -6   1   10.62    0.92
   6   6   1   10.52    0.66
  -6   7   1    0.51    0.21
   6  -7   1    0.70    0.26
  -6   7   1    0.27    0.22
   6  -7   1    0.56    0.36
  -6  -7  -1    0.62    0.39
   6   7  -1    1.02    0.27
  -6  -7  -1    0.76    0.40
   6   7  -1    0.44    0.22
   6   7  -1    0.91    0.18
   6  -7   1    0.67    0.23
  -6  -7  -1    0.50    0.40
  -6   7   1    0.01    0.22
   6  -7  -1    0.92    0.42
   6   7   1    0.37    0.25
  -6   7  -1    0.65    0.21
  -6  -7   1    0.77    0.39
   6   7   1    0.32    0.20
   6   7   1    0.26    0.22
   6   7   1    0.38    0.21
   6  -7  -1    0.37    0.22
   6  -7  -1    1.14    0.35
  -6  -7   1    0.45    0.32
   6  -7  -1    0.93    0.35
   6   7   1    0.07    0.20
  -6  -7   1    0.56    0.27
   6  -8   1    7.16    0.57
   6   8  -1    7.06    0.53
   6  -8   1    7.41    0.60
  -6  -8  -1    9.01    0.86
  -6   8   1    7.16    0.54
  -6  -8  -1    7.31    0.62
  -6   8   1    7.55    0.54
   6  -8   1    6.60    0.96
  -6  -8   1    7.95    0.64
  -6  -8   1    8.65    0.79
   6  -8  -1    8.80    1.12
   6   8   1    7.07    0.58
   6   8   1    6.28    0.51
   6   8   1    8.00    0.63
  -6   8  -1    7.73    0.63
   6  -8  -1    8.41    0.60
   6   8   1    6.62    0.54
  -6   8  -1    6.72    0.51
   6   8   1    7.59    0.51
  -6   9   1   17.18    0.81
   6  -9   1   17.12    0.84
  -6   9   1   16.80    0.74
  -6  -9  -1   17.84    0.82
  -6  -9  -1   16.92    0.93
   6  -9   1   17.29    0.93
   6   9  -1   17.65    0.86
  -6  -9  -1   16.14    1.17
  -6   9  -1   16.56    0.84
  -6  -9   1   16.18    0.80
  -6  -9   1   16.33    1.08
   6   9   1   16.59    0.75
  -6  -9   1   16.82    0.94
   6  -9  -1   16.72    0.89
   6  -9  -1   17.98    0.92
   6   9   1   15.99    0.86
  -6   9  -1   17.05    0.80
   6  -9  -1   17.89    0.86
   6   9   1   17.85    0.85
   6  10  -1   11.24    0.62
   6 -10   1   10.60    0.67
   6 -10   1    9.85    0.55
  -6 -10  -1   11.34    0.60
  -6 -10  -1    9.38    0.66
  -6  10   1    9.15    0.55
  -6  10  -1   10.56    0.59
   6 -10  -1   10.99    0.66
   6 -10  -1   10.85    0.63
   6  10   1   10.00    0.61
  -6 -10   1    9.56    0.67
  -6  10  -1   10.70    0.56
  -6 -10   1   10.19    0.59
   6  10   1   10.01    0.55
  -6 -11  -1    2.69    0.27
   6  11  -1    2.97    0.31
  -6  11   1    2.34    0.26
   6  11   1    2.62    0.30
   6  11   1    3.29    0.31
   6 -11  -1    2.97    0.29
  -6  11  -1    2.73    0.28
  -6 -11   1    2.92    0.37
  -6 -11   1    2.44    0.27
  -6   0   2  145.03    4.48
  -6   0  -2  152.98    5.01
  -6   0  -2  153.52    4.26
   6   0  -2  149.51    4.66
   6   0   2  143.99    5.03
   6   0  -2  157.58    5.23
   6   0   2  143.94    4.92
   6   0  -2  157.55    5.06
   6   0   2  135.36    4.43
   6   0   2  150.04    5.19
  -6   0   2  144.88    4.59
  -6   0   2  141.35    4.69
  -6   0   2  144.75    4.50
  -6   0  -2  158.43    4.57
  -6   0   2  146.28    5.25
   6   0  -2  156.33    4.98
   6   1  -2   19.61    0.91
   6  -1   2   18.81    0.99
   6  -1   2   18.99    0.80
   6   1  -2   17.89    0.80
  -6   1   2   20.18    0.97
   6  -1   2   19.55    1.01
   6   1  -2   19.29    0.95
   6   1  -2   18.87    0.99
  -6  -1  -2   19.25    0.80
   6  -1   2   18.14    0.76
  -6   1   2   19.76    0.88
  -6  -1  -2   18.41    0.91
   6  -1   2   19.82    1.00
  -6   1   2   19.47    0.87
  -6   1   2   19.96    0.89
  -6   1   2   20.28    0.87
   6   1  -2   19.82    0.95
   6  -1   2   19.34    0.91
  -6  -1  -2   20.14    0.80
  -6  -1   2   18.52    0.87
   6  -1  -2   19.19    0.86
   6  -1  -2   19.64    1.05
  -6  -1   2   20.07    0.98
  -6  -1   2   20.35    0.91
  -6   1  -2   18.45    0.83
   6  -1  -2   18.97    0.85
   6   1   2   17.43    0.76
   6  -1  -2   20.10    1.00
  -6  -1   2   19.41    0.92
   6  -1  -2   19.70    0.97
  -6  -1   2   19.34    0.93
  -6  -1   2   17.89    0.78
   6   1   2   20.40    1.03
   6  -1  -2   18.84    1.05
   6   1   2   20.55    0.90
  -6   2   2   74.16    2.60
  -6   2   2   74.60    2.90
   6  -2   2   75.24    2.58
  -6  -2  -2   80.47    2.64
   6  -2   2   74.04    2.86
   6   2  -2   79.57    2.52
   6  -2   2   77.33    2.56
   6   2  -2   82.13    2.82
   6   2  -2   80.97    2.82
  -6   2   2   74.08    2.57
  -6   2   2   77.17    2.52
  -6  -2  -2   83.57    2.55
   6  -2   2   74.19    2.88
  -6  -2  -2   82.17    2.60
   6  -2   2   75.51    3.04
  -6   2   2   77.16    2.47
   6  -2   2   73.31    2.44
  -6  -2   2   78.96    2.69
   6  -2  -2   81.13    2.93
   6  -2  -2   76.23    2.63
   6   2   2   76.06    2.92
  -6  -2   2   75.47    2.66
  -6  -2   2   75.46    2.67
  -6  -2   2   77.45    2.97
   6  -2  -2   79.16    2.62
   6  -2  -2   82.60    3.13
  -6   2  -2   79.65    2.87
   6  -2  -2   81.67    2.96
   6  -2  -2   81.62    2.98
   6   2   2   71.74    2.45
  -6  -2   2   77.08    2.62
  -6  -3  -2   59.06    2.14
   6  -3   2   55.58    1.88
  -6   3   2   60.85    2.08
  -6   3   2   59.22    2.03
   6  -3   2   60.11    2.36
   6  -3   2   59.34    2.09
  -6  -3  -2   58.69    2.09
   6   3  -2   59.19    2.29
   6  -3   2   58.59    2.38
   6  -3   2   58.93    2.52
   6  -3   2   60.54    2.12
   6  -3   2   55.97    1.91
  -6  -3  -2   56.66    2.16
  -6   3   2   58.54    2.03
  -6  -3  -2   58.53    2.13
   6  -3  -2   57.65    2.55
  -6  -3   2   61.37    2.21
   6   3   2   53.47    1.90
  -6  -3   2   56.88    2.14
  -6  -3   2   59.50    2.15
   6  -3  -2   58.02    2.15
   6  -3  -2   60.26    2.42
  -6  -3   2   58.09    2.39
   6   3   2   57.34    2.38
  -6  -3   2   57.15    1.98
  -6   3  -2   59.04    2.13
  -6  -3   2   59.65    2.21
   6  -3  -2   57.58    2.38
  -6   3  -2   59.63    2.32
   6  -3  -2   58.93    2.39
   6  -3  -2   56.00    2.10
   6   3   2   57.98    1.95
   6   4  -2   11.45    0.61
   6  -4   2   12.68    0.87
   6  -4   2   12.40    0.92
  -6  -4  -2   12.06    0.63
   6  -4   2   11.62    0.59
   6  -4   2   11.47    0.79
   6  -4   2   12.40    0.96
   6  -4   2   11.62    0.62
  -6  -4  -2   12.70    0.94
  -6  -4  -2   11.68    0.79
   6  -4   2   12.18    0.76
  -6  -4  -2   11.34    0.78
  -6  -4  -2   12.93    0.76
  -6  -4  -2   12.79    0.82
  -6  -4   2   11.78    0.83
   6   4   2   12.38    0.65
   6  -4  -2   12.11    0.96
  -6  -4   2   12.54    0.87
   6  -4  -2   11.70    0.81
  -6   4  -2   11.84    0.74
  -6  -4   2   12.92    0.86
  -6  -4   2   11.82    0.82
   6  -4  -2   12.88    0.95
   6  -4  -2   12.09    0.87
  -6  -4   2   12.82    0.82
  -6   4  -2   12.94    0.81
   6  -4  -2   13.52    0.88
   6  -4  -2   13.23    0.76
  -6  -4   2   11.73    0.77
  -6  -4   2   11.85    0.66
  -6  -5  -2   27.67    1.61
  -6  -5  -2   27.20    1.41
   6   5  -2   28.90    1.15
  -6  -5  -2   27.47    1.43
   6  -5   2   29.87    1.47
  -6  -5  -2   27.16    1.40
   6  -5   2   30.42    1.64
   6  -5   2   29.45    1.52
   6  -5   2   28.12    1.69
   6  -5   2   28.53    1.16
  -6  -5   2   29.40    1.22
  -6   5  -2   28.25    1.48
   6  -5  -2   27.27    1.68
   6  -5  -2   28.25    1.47
   6  -5  -2   28.85    1.64
   6  -5  -2   28.14    1.32
   6  -5  -2   27.21    1.09
  -6  -5   2   29.35    1.55
  -6   5  -2   27.58    1.31
  -6  -5   2   30.35    1.38
   6  -5  -2   27.22    1.18
  -6  -5   2   28.84    1.44
   6   5   2   28.28    1.17
  -6  -5   2   29.97    1.50
  -6  -5   2   29.67    1.48
   6  -5  -2   29.30    1.54
   6   5   2   29.12    1.17
   6  -6   2   83.93    3.88
   6  -6   2   84.78    3.61
   6  -6   2   84.93    3.28
   6  -6   2   87.47    2.82
  -6  -6  -2   81.94    3.27
  -6  -6  -2   82.39    3.62
   6  -6   2   88.45    3.45
  -6  -6  -2   83.08    3.47
   6  -6  -2   84.85    3.32
   6  -6  -2   89.20    2.75
  -6  -6   2   90.23    2.95
  -6  -6   2   83.45    3.28
  -6  -6   2   88.95    2.81
  -6   6  -2   87.07    3.11
   6  -6  -2   85.94    2.87
   6   6   2   89.82    2.84
   6   6   2   88.74    2.86
  -6  -6   2   84.82    3.24
   6  -6  -2   80.09    3.83
  -6  -6   2   90.25    3.19
   6  -6  -2   81.15    3.62
  -6   7   2   18.66    0.85
   6  -7   2   18.17    0.84
   6  -7   2   16.76    0.81
   6   7  -2   17.96    0.86
   6  -7   2   19.71    0.96
  -6  -7  -2   15.59    1.21
  -6   7   2   17.82    0.87
  -6   7   2   18.24    0.82
   6   7  -2   17.86    0.76
   6  -7   2   17.02    1.25
   6   7   2   17.39    0.91
   6  -7  -2   17.65    1.03
   6   7   2   18.30    0.71
   6  -7  -2   17.68    0.89
  -6  -7   2   15.01    1.23
   6   7   2   16.93    0.85
  -6   7  -2   18.78    1.05
   6   7   2   17.66    0.95
   6  -7  -2   18.30    0.96
   6   7   2   17.31    0.89
  -6  -7   2   17.85    0.92
   6   7   2   17.65    0.81
  -6  -7   2   18.51    0.96
   6  -7  -2   15.42    1.25
  -6  -7   2   18.38    1.08
  -6   7  -2   17.23    0.78
   6  -8   2    0.83    0.58
   6  -8   2    1.53    0.29
   6   8  -2    1.20    0.20
  -6   8   2    0.75    0.22
  -6  -8  -2    0.95    0.48
  -6  -8  -2    1.16    0.31
   6  -8   2    1.27    0.28
  -6   8   2    1.27    0.29
   6  -8   2    0.96    0.30
   6   8  -2    0.53    0.24
  -6   8   2    1.05    0.26
  -6  -8   2    1.26    0.29
  -6  -8   2    1.19    0.41
   6  -8  -2    1.11    0.32
  -6   8  -2    1.08    0.26
   6   8   2    0.86    0.22
  -6   8  -2    1.03    0.34
   6  -8  -2    0.76    0.52
   6  -8  -2    0.86    0.36
   6   8   2    1.45    0.31
  -6  -8   2    1.00    0.30
   6   8   2    1.31    0.34
   6   8   2    0.77    0.29
   6   8   2    1.29    0.27
   6  -8  -2    1.26    0.29
  -6   9   2   11.48    0.66
   6  -9   2   11.80    0.77
  -6  -9  -2   11.16    1.05
   6  -9   2   12.69    0.65
  -6  -9  -2   12.14    0.66
   6  -9   2   11.90    0.64
   6   9  -2   12.60    0.71
  -6  -9  -2   12.32    0.79
  -6  -9   2   12.17    0.79
   6  -9  -2   11.73    0.71
   6   9   2   13.71    0.81
  -6  -9   2   12.67    0.69
   6   9   2   13.10    0.63
   6   9   2   12.64    0.72
   6  -9  -2   13.21    0.75
  -6   9  -2   12.70    0.67
  -6   9  -2   13.74    0.77
   6   9   2   13.07    0.75
  -6 -10  -2    5.47    0.53
  -6  10   2    5.60    0.43
   6  10  -2    7.27    0.50
   6 -10   2    5.54    0.53
   6 -10   2    6.58    0.39
  -6 -10  -2    6.31    0.46
   6  10   2    6.68    0.49
  -6 -10   2    5.77    0.45
   6 -10  -2    6.93    0.52
   6  10   2    5.80    0.47
  -6  10  -2    7.08    0.49
  -6  10  -2    5.84    0.44
  -6 -10   2    6.36    0.57
  -6 -10   2    6.41    0.53
   6  10   2    6.05    0.41
   6 -10  -2    6.49    0.48
  -6  11   2   14.19    0.58
   6  11  -2   13.40    0.60
   6  11   2   14.76    0.55
   6  11   2   14.79    0.64
  -6 -11   2   14.62    0.68
  -6 -11   2   14.09    0.59
  -6  11  -2   14.17    0.59
   6 -11  -2   13.96    0.63
  -6   0   3   73.73    2.51
   6   0   3   74.61    2.58
   6   0  -3   79.44    2.73
  -6   0   3   76.13    2.54
   6   0  -3   77.77    2.61
   6   0  -3   80.81    3.03
   6   0  -3   81.27    2.92
  -6   0   3   76.90    2.58
   6   0   3   72.97    2.76
  -6   0   3   73.04    2.53
   6   0   3   70.41    2.40
   6   0  -3   82.64    2.95
  -6   0   3   76.98    2.65
   6   0   3   74.95    2.83
   6   0   3   70.72    2.88
  -6   1   3   36.12    1.51
   6   1  -3   44.55    1.62
   6   1  -3   41.16    1.77
  -6   1   3   39.07    1.44
   6   1  -3   43.11    1.72
   6  -1   3   39.69    1.79
  -6  -1  -3   41.73    1.41
   6   1  -3   43.09    1.78
   6  -1   3   39.41    1.70
  -6   1   3   38.30    1.47
  -6   1   3   40.76    1.59
   6   1  -3   41.84    1.52
  -6  -1  -3   44.32    1.47
   6  -1   3   37.60    1.39
   6  -1   3   38.72    1.47
  -6  -1  -3   43.18    1.60
   6  -1   3   38.51    1.56
   6  -1   3   39.57    1.70
   6  -1  -3   33.74    1.50
  -6  -1   3   38.73    1.56
  -6   1  -3   41.56    1.50
   6   1   3   39.01    1.72
   6  -1  -3   44.09    1.70
  -6  -1   3   38.28    1.56
   6  -1  -3   41.66    1.56
   6  -1  -3   41.73    1.88
  -6  -1   3   38.43    1.60
   6  -1  -3   42.22    1.82
  -6  -1   3   37.94    1.49
   6   1   3   39.10    1.66
   6   1   3   36.92    1.38
  -6  -1   3   39.64    1.68
  -6  -1   3   37.56    1.40
   6   1   3   39.09    1.62
   6  -2   3   22.48    1.21
  -6  -2  -3   29.13    1.22
   6  -2   3   22.86    0.98
  -6  -2  -3   27.58    1.13
  -6   2   3   24.36    1.17
   6   2  -3   29.48    1.34
   6  -2   3   22.66    1.08
   6  -2   3   24.58    1.26
   6  -2   3   24.99    1.16
   6   2  -3   28.15    1.24
   6  -2   3   22.24    1.31
  -6   2   3   23.92    1.13
  -6  -2  -3   28.31    1.12
   6  -2  -3   28.42    1.46
   6  -2  -3   28.89    1.41
   6   2   3   23.68    1.28
  -6  -2   3   23.97    1.19
  -6  -2   3   24.07    1.08
   6   2   3   22.81    0.97
   6  -2  -3   29.97    1.24
   6  -2  -3   29.80    1.32
  -6  -2   3   23.55    1.15
  -6   2  -3   27.16    1.13
   6  -2  -3   29.64    1.31
  -6  -2   3   22.06    1.00
  -6  -2   3   23.32    1.21
   6  -2  -3   27.76    1.15
  -6  -2   3   24.61    1.20
   6  -3   3    6.50    0.68
  -6  -3  -3    8.39    0.63
   6  -3   3    6.36    0.56
  -6  -3  -3    8.00    0.59
  -6   3   3    5.67    0.54
   6  -3   3    6.53    0.65
   6  -3   3    5.07    0.38
   6  -3   3    5.13    0.40
   6  -3   3    6.25    0.60
  -6  -3  -3    7.39    0.58
  -6   3   3    6.58    0.54
   6  -3   3    5.93    0.54
   6   3  -3    7.47    0.49
   6  -3  -3    7.39    0.74
   6   3   3    5.53    0.42
  -6  -3   3    5.84    0.56
  -6  -3   3    5.82    0.45
  -6  -3   3    6.35    0.53
   6  -3  -3    6.61    0.60
   6   3   3    5.69    0.63
   6   3   3    5.65    0.41
   6  -3  -3    8.36    0.64
   6  -3  -3    7.39    0.56
   6  -3  -3    8.09    0.70
  -6  -3   3    6.30    0.60
  -6  -3   3    6.21    0.58
  -6  -3   3    5.89    0.59
  -6   3  -3    6.98    0.53
   6  -3  -3    7.44    0.68
   6  -4   3   10.72    0.85
  -6  -4  -3    9.39    0.84
   6  -4   3   10.57    0.93
  -6  -4  -3    9.00    0.61
   6  -4   3   10.01    0.75
   6  -4   3   10.22    0.83
  -6   4   3   10.03    0.74
  -6   4   3   10.52    0.73
   6   4  -3    9.26    0.55
  -6  -4  -3    9.27    0.74
   6  -4   3    9.66    0.57
  -6  -4  -3    9.61    0.76
  -6  -4  -3   10.66    0.78
   6  -4   3   10.09    0.56
   6  -4   3   10.03    0.73
   6  -4  -3    9.23    0.84
  -6  -4   3   11.19    0.84
  -6  -4   3   10.01    0.78
   6  -4  -3    8.41    0.88
  -6  -4   3   10.18    0.62
   6  -4  -3    9.85    0.77
   6  -4  -3    9.91    0.85
   6   4   3    9.63    0.57
  -6   4  -3    8.96    0.70
  -6  -4   3    9.38    0.66
   6  -4  -3    8.49    0.74
   6  -4  -3    9.77    0.70
  -6  -4   3   10.19    0.80
  -6  -5  -3    1.44    0.41
  -6  -5  -3    0.89    0.40
  -6  -5  -3    1.14    0.36
   6  -5   3    0.93    0.38
   6  -5   3    1.19    0.27
   6  -5   3    1.78    0.46
   6  -5   3    1.34    0.40
   6  -5   3    1.42    0.38
   6  -5   3    1.35    0.48
  -6  -5  -3    1.47    0.35
   6  -5   3    1.52    0.27
  -6  -5   3    1.86    0.49
  -6  -5   3    1.25    0.36
   6  -5  -3    1.28    0.34
  -6  -5   3    1.09    0.38
  -6   5  -3    1.44    0.37
   6   5   3    1.39    0.27
   6  -5  -3    1.09    0.36
  -6   5  -3    1.45    0.35
   6   5   3    1.36    0.28
   6  -5  -3    1.49    0.31
   6  -5  -3    1.39    0.48
   6  -5  -3    1.57    0.43
  -6  -5   3    1.07    0.35
   6  -5  -3    1.07    0.44
   6  -5  -3    1.56    0.43
  -6  -5   3    1.39    0.30
   6  -6   3    8.40    0.61
  -6  -6  -3    7.99    0.97
   6  -6   3    8.24    0.92
  -6  -6  -3    7.03    0.72
   6  -6   3    8.87    0.88
   6  -6  -3    7.87    0.70
   6   6   3    7.30    0.57
  -6  -6   3    8.33    0.63
  -6   6  -3    8.52    0.71
  -6  -6   3    9.08    0.72
   6   6   3    7.31    0.58
   6  -6  -3    7.13    0.88
  -6  -6   3    8.27    0.84
  -6  -6   3    9.23    0.59
   6  -6  -3    7.43    0.59
  -6   7   3    2.47    0.34
   6  -7   3    3.94    0.74
   6   7  -3    3.06    0.42
   6  -7   3    3.41    0.35
  -6   7   3    3.44    0.35
  -6   7   3    2.70    0.37
   6  -7   3    2.71    0.42
   6  -7   3    2.66    0.36
   6   7  -3    3.08    0.36
   6   7   3    3.39    0.46
  -6   7  -3    2.90    0.50
  -6  -7   3    3.38    0.47
  -6  -7   3    3.13    0.44
  -6  -7   3    3.17    0.51
   6   7   3    3.76    0.45
   6   7   3    2.77    0.29
   6  -7  -3    3.01    0.68
   6   7   3    3.32    0.40
  -6  -7   3    2.65    0.36
   6  -7  -3    2.88    0.44
  -6   7  -3    3.44    0.39
   6   7   3    2.83    0.42
   6   7   3    2.69    0.43
   6  -7  -3    3.07    0.51
  -6   8   3   12.69    0.48
  -6   8   3   12.68    0.68
   6   8  -3   11.30    0.61
   6  -8   3   13.58    0.70
   6   8  -3   11.45    0.70
   6  -8   3   13.44    0.82
  -6  -8  -3   13.76    0.82
   6  -8   3   13.76    0.65
  -6   8   3   13.39    0.75
  -6  -8   3   12.83    0.71
   6   8   3   13.11    0.58
  -6  -8   3   12.75    0.80
   6   8   3   12.80    0.74
   6   8   3   13.38    0.82
   6  -8  -3   11.41    0.88
  -6   8  -3   12.92    0.68
  -6  -8   3   11.89    0.80
   6   8   3   13.85    0.70
   6   8   3   11.74    0.74
   6  -8  -3   12.29    0.80
  -6  -9  -3   10.78    1.07
   6  -9   3   13.09    0.67
   6  -9   3   12.09    0.78
  -6   9   3   13.69    0.69
   6   9  -3   13.10    0.71
   6  -9   3   12.70    0.56
  -6  -9   3   13.36    0.84
   6  -9  -3   11.46    0.70
  -6  -9   3   14.06    0.82
   6  -9  -3   12.25    0.77
   6   9   3   13.17    0.59
   6   9   3   13.57    0.75
  -6  -9   3   13.42    0.71
  -6   9  -3   13.38    0.79
  -6   9  -3   11.68    0.65
   6   9   3   14.11    0.73
   6   9   3   12.69    0.79
   6 -10   3    2.17    0.27
  -6  10   3    1.32    0.23
   6 -10   3    2.20    0.36
  -6 -10  -3    1.41    0.30
   6  10  -3    1.85    0.29
  -6 -10   3    2.28    0.31
   6 -10  -3    1.64    0.28
   6  10   3    1.91    0.32
  -6 -10   3    1.72    0.32
   6 -10  -3    1.65    0.29
   6  10   3    1.53    0.23
  -6  10  -3    2.03    0.29
  -6  10  -3    1.54    0.27
   6  10   3    1.71    0.29
   6  10   3    2.14    0.32
  -6  11   3    1.08    0.17
   6  11  -3    0.88    0.19
  -6  11  -3    0.94    0.18
  -6 -11   3    0.93    0.19
   6 -11  -3    0.82    0.19
   6  11   3    0.85    0.18
  -6 -11   3    0.79    0.17
   6  11   3    0.98    0.19
  -6  11  -3    0.80    0.14
   6 -11  -3    1.01    0.19
   6   0   4   64.65    2.16
   6   0   4   68.37    2.56
   6   0  -4   61.71    2.63
  -6   0   4   64.67    2.14
   6   0   4   66.83    2.69
  -6   0   4   65.99    2.39
   6   0  -4   65.22    2.76
   6   0   4   64.70    2.55
   6   0  -4   66.14    2.64
   6   0  -4   63.14    2.35
   6   0   4   66.40    2.37
  -6   0   4   68.19    2.35
  -6   0   4   68.90    2.47
  -6   0   4   66.26    2.30
  -6   1   4    1.07    0.31
   6  -1   4    0.99    0.29
   6  -1   4    1.09    0.30
   6  -1   4    1.37    0.36
   6   1  -4    1.30    0.39
   6   1  -4    0.80    0.26
   6   1  -4    0.71    0.24
  -6   1   4    1.02    0.24
   6  -1   4    1.08    0.20
   6  -1   4    1.15    0.28
   6   1  -4    0.51    0.28
  -6   1   4    0.98    0.29
   6  -1   4    1.26    0.34
  -6  -1  -4    1.05    0.29
  -6   1   4    0.85    0.27
   6  -1  -4    0.73    0.24
  -6  -1   4    1.05    0.29
   6   1   4    1.08    0.30
  -6  -1   4    1.04    0.30
   6   1   4    0.92    0.30
   6  -1  -4    1.02    0.37
   6   1   4    1.81    0.26
  -6  -1   4    1.44    0.35
   6  -1  -4    0.80    0.34
   6  -1  -4    1.01    0.26
  -6  -1   4    1.63    0.25
   6   1   4    1.21    0.32
  -6  -1   4    1.75    0.32
  -6  -1   4    0.97    0.21
   6  -1  -4    0.92    0.27
   6   2  -4   43.94    1.70
   6  -2   4   43.22    2.05
  -6   2   4   45.04    1.78
  -6  -2  -4   41.75    1.65
   6  -2   4   42.66    1.56
  -6  -2  -4   42.27    1.69
   6  -2   4   44.57    1.51
   6  -2   4   44.53    1.75
   6  -2   4   42.27    1.76
   6   2  -4   42.08    1.96
  -6   2   4   44.66    1.82
  -6  -2  -4   43.33    1.74
   6  -2   4   46.57    1.98
   6  -2   4   45.93    1.89
   6   2  -4   42.45    1.90
   6   2   4   44.20    1.55
  -6  -2   4   45.16    1.60
   6  -2  -4   45.43    2.04
   6   2   4   43.22    1.50
  -6  -2   4   46.60    1.85
   6  -2  -4   41.26    1.78
   6  -2  -4   43.00    1.92
  -6  -2   4   44.78    1.57
   6  -2  -4   43.89    2.15
   6   2   4   43.21    1.94
  -6   2  -4   42.01    1.74
   6  -2  -4   41.77    1.72
  -6  -2   4   42.69    1.79
   6  -2  -4   42.38    1.86
  -6  -2   4   45.33    1.86
  -6  -3  -4   21.74    1.12
   6  -3   4   23.37    0.95
   6  -3   4   22.83    1.23
  -6  -3  -4   20.86    1.12
  -6  -3  -4   22.17    1.16
  -6   3   4   23.85    1.21
   6   3  -4   22.10    1.05
   6  -3   4   22.38    1.15
   6  -3   4   23.65    1.21
   6  -3   4   23.35    1.31
  -6   3   4   23.37    1.18
   6  -3   4   23.91    0.98
   6  -3   4   23.18    1.41
  -6  -3   4   23.31    1.21
  -6  -3   4   22.77    1.23
   6  -3  -4   20.38    1.40
   6   3   4   21.55    0.94
  -6   3  -4   20.75    1.10
   6   3   4   22.84    1.32
   6  -3  -4   21.82    1.26
  -6  -3   4   24.47    1.27
   6  -3  -4   23.08    1.13
   6   3   4   23.61    0.95
  -6  -3   4   23.53    1.00
  -6  -3   4   23.39    1.02
   6  -3  -4   22.72    1.35
   6  -3  -4   21.50    1.21
   6  -3  -4   22.37    1.24
   6  -4   4   81.15    2.92
   6  -4   4   80.64    2.64
  -6  -4  -4   79.78    3.30
  -6  -4  -4   78.97    2.96
   6   4  -4   78.81    2.74
  -6   4   4   84.47    3.00
   6  -4   4   80.96    2.57
  -6   4   4   85.95    2.94
  -6  -4  -4   75.69    2.86
   6  -4   4   82.84    3.51
   6  -4   4   80.80    3.20
   6  -4   4   79.42    2.95
   6  -4  -4   76.80    3.21
  -6   4  -4   74.37    3.12
  -6  -4   4   83.01    2.72
   6  -4  -4   76.67    2.62
  -6  -4   4   81.08    2.73
  -6  -4   4   79.01    2.95
   6  -4  -4   75.28    2.99
  -6  -4   4   78.84    2.98
   6   4   4   82.12    2.57
   6  -4  -4   82.00    2.92
  -6  -4   4   80.65    3.04
   6  -4  -4   77.47    3.25
   6  -4  -4   73.71    3.46
   6   4   4   80.25    2.60
   6  -4  -4   76.24    3.20
  -6   4  -4   76.13    2.85
   6  -5   4    9.05    0.83
  -6  -5  -4    8.59    0.84
   6  -5   4    8.04    0.86
  -6  -5  -4    9.22    0.71
   6  -5   4    9.27    0.84
  -6  -5  -4    8.62    0.95
  -6  -5  -4    8.91    0.86
   6  -5   4    8.89    1.02
   6  -5   4    8.87    0.57
   6  -5   4    9.48    0.61
   6  -5  -4    9.80    0.85
   6   5   4    8.11    0.60
   6   5   4    8.35    0.58
   6  -5  -4    9.15    0.75
   6  -5  -4   10.01    0.89
   6  -5  -4    8.61    0.92
  -6   5  -4    8.58    0.78
  -6  -5   4    8.42    0.81
  -6  -5   4    8.12    0.81
  -6  -5   4    9.09    0.63
  -6  -5   4    8.54    0.63
   6  -5  -4    8.32    0.85
   6  -5  -4    8.63    0.98
  -6  -5   4    7.98    0.94
   6  -5  -4    8.90    0.61
  -6   5  -4    9.49    0.78
   6  -6   4   53.86    2.53
   6  -6   4   55.22    2.43
   6   6  -4   50.04    1.78
   6  -6   4   53.12    1.65
   6  -6   4   53.79    1.96
  -6  -6  -4   51.00    2.39
   6  -6   4   55.14    1.97
  -6   6   4   54.06    1.66
  -6   6   4   53.01    1.85
   6  -6   4   51.29    1.71
  -6   6   4   54.02    1.67
  -6  -6  -4   53.31    2.37
   6   6   4   53.21    1.85
   6   6   4   57.11    1.97
  -6  -6   4   54.79    2.06
   6   6   4   52.21    1.84
  -6   6  -4   53.32    2.22
   6  -6  -4   52.05    2.42
   6   6   4   52.68    1.44
   6   6   4   55.94    1.99
  -6   6  -4   52.16    2.50
   6  -6  -4   55.27    2.24
  -6  -6   4   51.29    2.42
   6  -6  -4   53.37    1.99
   6  -7   4    3.10    0.39
   6  -7   4    3.26    0.73
   6  -7   4    2.92    0.27
   6   7  -4    2.37    0.35
   6  -7   4    2.96    0.46
  -6   7   4    2.22    0.36
  -6   7   4    2.77    0.37
  -6  -7   4    2.68    0.45
   6  -7  -4    2.48    0.59
   6   7   4    2.51    0.41
   6   7   4    2.98    0.39
   6  -7  -4    1.87    0.43
   6   7   4    2.60    0.26
  -6  -7   4    3.84    0.53
   6   7   4    3.35    0.47
  -6  -7   4    2.86    0.39
   6  -7  -4    2.74    0.44
   6   7   4    2.67    0.37
  -6   7  -4    2.60    0.49
   6  -8   4    0.69    0.23
   6   8  -4    0.40    0.20
  -6  -8  -4    0.30    0.24
  -6   8   4    0.68    0.23
   6  -8   4    0.22    0.24
   6   8  -4    0.69    0.23
  -6   8   4    0.42    0.20
  -6  -8   4    0.32    0.20
   6   8   4    0.69    0.24
  -6   8  -4    0.67    0.38
   6  -8  -4    0.76    0.26
  -6  -8   4    0.10    0.24
   6   8   4    0.39    0.21
  -6   8  -4    0.33    0.20
   6  -8  -4    0.77    0.34
   6   8   4    0.45    0.15
   6   8   4    0.19    0.23
  -6  -8   4    0.14    0.27
   6   9  -4    3.17    0.31
   6   9  -4    3.72    0.41
   6  -9   4    3.86    0.40
  -6  -9  -4    3.30    0.46
   6  -9   4    3.22    0.44
  -6   9   4    3.53    0.40
   6  -9  -4    3.16    0.42
  -6   9  -4    4.00    0.42
  -6  -9   4    2.80    0.35
   6   9   4    3.69    0.44
   6   9   4    3.96    0.48
   6   9   4    3.25    0.40
   6  -9  -4    2.74    0.37
  -6   9  -4    2.99    0.42
  -6  -9   4    4.01    0.45
   6   9   4    3.55    0.32
   6 -10   4   27.74    0.98
   6  10  -4   30.25    1.06
  -6  10   4   27.87    0.97
   6  10   4   27.94    1.17
  -6  10  -4   29.70    1.00
   6 -10  -4   29.37    1.08
   6 -10  -4   29.03    1.14
  -6  10  -4   28.39    1.10
  -6 -10   4   26.89    1.04
  -6 -10   4   28.13    1.01
   6  10   4   28.02    1.08
   6  10   4   28.17    0.86
   6  10   4   28.93    1.08
  -6  11   4    3.56    0.25
   6  11   4    2.86    0.19
  -6 -11   4    3.20    0.25
   6  11   4    2.82    0.27
  -6  11  -4    2.96    0.26
  -6  11  -4    2.85    0.22
   6  11   4    2.92    0.25
  -6 -11   4    3.16    0.23
   6 -11  -4    3.38    0.27
   6 -11  -4    3.14    0.31
  -6   0   5   12.51    0.69
   6   0   5   13.22    0.67
   6   0  -5   12.49    0.97
   6   0   5   13.53    0.88
   6   0  -5   12.75    0.86
  -6   0   5   12.60    0.78
   6   0   5   12.74    0.90
   6   0   5   12.03    0.62
  -6   0   5   12.68    0.84
  -6   0   5   12.02    0.87
   6   0  -5   13.02    1.03
  -6   0   5   13.12    0.87
   6   0   5   13.34    0.86
   6   0  -5   12.09    0.79
   6   0   5   12.40    0.95
   6   1  -5    8.67    0.75
   6  -1   5   12.30    0.82
  -6   1   5   12.55    0.87
   6   1  -5    9.22    0.88
   6  -1   5   11.28    0.80
   6  -1   5   12.41    0.61
  -6   1   5   12.30    0.84
   6   1  -5    9.79    0.91
   6  -1   5   11.64    0.63
   6  -1   5   12.31    0.90
   6   1  -5    8.60    0.69
  -6  -1  -5    8.60    0.72
  -6   1   5   12.35    0.84
   6  -1   5   12.01    0.96
   6  -1   5   13.27    0.86
  -6  -1   5   11.71    0.62
   6   1   5   12.67    0.88
   6  -1  -5    8.98    0.84
   6  -1  -5    8.48    0.89
  -6  -1   5   12.91    0.83
   6   1   5   11.55    0.62
   6   1   5   12.23    0.60
  -6  -1   5   12.58    0.81
   6   1   5   11.36    0.83
  -6  -1   5   12.42    0.88
  -6  -1   5   12.66    0.86
   6  -2   5    7.26    0.78
   6  -2   5    8.38    0.75
   6   2  -5    9.75    0.87
  -6  -2  -5    9.74    0.73
   6  -2   5    6.92    0.51
   6  -2   5    7.30    0.49
   6   2  -5    9.33    0.66
   6  -2   5    7.87    0.71
   6  -2   5    7.11    0.66
  -6   2   5    8.50    0.74
  -6  -2  -5    8.89    0.68
  -6  -2  -5    9.03    0.67
   6   2  -5    8.49    0.71
  -6   2   5    9.09    0.74
   6  -2  -5    9.00    0.72
  -6  -2   5    7.40    0.70
   6  -2  -5    9.57    0.86
  -6  -2   5    6.70    0.69
  -6   2  -5    9.12    0.57
   6   2   5    7.77    0.76
   6  -2  -5    8.94    0.76
  -6  -2   5    7.55    0.53
  -6  -2   5    7.85    0.66
  -6  -2   5    7.17    0.71
   6  -2  -5    8.72    0.68
   6  -2  -5    9.39    0.91
   6   2   5    7.25    0.50
   6   2   5    6.87    0.46
  -6  -3  -5   21.68    1.29
  -6   3   5   16.38    1.08
   6  -3   5   17.45    1.10
   6  -3   5   17.16    0.85
   6   3  -5   19.21    1.00
   6  -3   5   16.77    1.09
   6  -3   5   17.42    0.83
  -6  -3  -5   17.92    1.07
  -6   3   5   16.48    1.05
  -6  -3  -5   18.77    1.10
   6  -3   5   17.22    1.16
   6  -3   5   16.58    1.27
   6   3  -5   18.79    1.22
   6   3   5   16.82    0.83
  -6   3  -5   19.06    1.02
   6  -3  -5   19.26    1.26
  -6  -3   5   16.68    0.87
   6  -3  -5   18.71    1.03
   6  -3  -5   18.96    1.36
  -6  -3   5   16.62    1.10
   6   3   5   18.46    0.83
  -6  -3   5   17.45    1.11
   6  -3  -5   17.84    1.12
   6  -3  -5   19.26    1.18
  -6  -3   5   17.36    1.14
   6  -3  -5   18.86    0.88
   6   4  -5   19.32    0.99
   6  -4   5   15.79    1.09
   6  -4   5   17.36    1.22
  -6   4   5   17.02    1.15
   6  -4   5   16.92    1.36
   6  -4   5   17.36    0.86
   6  -4   5   17.94    1.17
  -6  -4  -5   20.31    1.36
  -6  -4  -5   17.08    1.13
   6  -4   5   17.22    0.88
  -6  -4  -5   18.10    1.16
  -6   4   5   17.41    1.15
  -6  -4   5   18.07    1.21
   6   4   5   17.49    0.85
  -6  -4   5   18.70    0.93
  -6  -4   5   17.79    1.20
   6  -4  -5   19.83    1.31
  -6   4  -5   17.48    1.07
   6   4   5   16.19    0.87
   6  -4  -5   18.76    1.08
   6  -4  -5   16.90    1.37
   6  -4  -5   19.46    1.22
   6  -4  -5   18.97    1.20
   6  -4  -5   19.27    0.92
  -6  -4   5   16.54    1.15
   6  -5   5   20.17    0.97
   6  -5   5   20.08    1.36
  -6  -5  -5   16.24    1.23
   6  -5   5   19.25    0.94
   6  -5   5   18.80    1.26
  -6   5   5   20.51    1.32
   6   5  -5   18.99    0.99
   6  -5  -5   20.49    1.16
  -6   5  -5   18.48    1.22
   6  -5  -5   18.66    0.95
   6   5   5   19.77    0.94
  -6  -5   5   19.70    1.02
  -6   5  -5   19.79    1.16
   6  -5  -5   17.24    1.30
   6  -5  -5   19.70    1.31
  -6  -5   5   20.62    1.34
   6   5   5   18.85    0.95
   6  -5  -5   19.13    1.29
   6  -6   5   14.90    1.19
   6  -6   5   14.27    0.70
   6   6  -5   13.76    0.76
   6  -6   5   13.53    1.22
   6  -6   5   13.85    0.74
   6   6  -5   14.72    0.82
  -6   6   5   12.09    0.68
   6  -6   5   14.68    0.84
   6  -6   5   15.39    0.84
  -6   6   5   14.29    0.77
   6   6   5   13.39    0.77
  -6   6  -5   14.79    1.02
  -6  -6   5   14.86    0.80
   6  -6  -5   14.56    1.00
   6  -6  -5   12.51    1.12
   6   6   5   15.48    0.84
   6   6   5   13.31    0.78
   6  -6  -5   13.88    0.83
   6   6   5   14.22    0.53
  -6  -6   5   14.61    0.73
  -6  -6   5   15.28    0.89
   6   6   5   14.22    0.84
  -6   7   5   14.34    0.78
   6   7  -5   15.14    0.79
   6  -7   5   13.89    0.85
   6   7  -5   14.12    0.77
   6  -7   5   15.52    0.78
   6  -7   5   14.54    0.70
  -6   7   5   15.33    0.75
   6  -7  -5   13.28    0.84
   6   7   5   14.15    0.78
   6  -7  -5   16.36    1.03
  -6  -7   5   15.44    0.91
  -6  -7   5   14.75    0.75
   6   7   5   14.10    0.86
  -6  -7   5   13.50    0.79
  -6   7  -5   15.68    1.00
   6   7   5   14.46    0.56
   6   7   5   15.43    0.83
   6  -8   5    5.42    0.55
   6   8  -5    6.93    0.50
  -6   8   5    5.99    0.50
   6  -8   5    6.05    0.49
  -6   8   5    5.68    0.47
   6   8  -5    6.20    0.51
  -6  -8  -5    6.11    0.54
  -6   8  -5    7.18    0.49
   6   8   5    5.83    0.57
  -6   8  -5    6.83    0.69
   6  -8  -5    6.58    0.76
  -6  -8   5    5.19    0.51
   6   8   5    5.46    0.34
   6  -8  -5    6.88    0.57
  -6  -8   5    5.57    0.47
  -6  -8   5    5.76    0.56
   6   8   5    6.07    0.53
   6   8   5    4.37    0.51
   6   9  -5    6.98    0.44
  -6  -9  -5    6.97    0.58
  -6   9   5    8.09    0.49
   6   9  -5    7.93    0.52
   6  -9   5    8.42    0.53
   6  -9   5    7.98    0.61
   6   9   5    7.86    0.38
   6   9   5    7.60    0.60
  -6  -9   5    8.56    0.53
  -6   9  -5    7.86    0.51
  -6   9  -5    7.70    0.62
   6   9   5    7.90    0.56
   6   9   5    8.64    0.57
   6  -9  -5    8.20    0.53
  -6  -9   5    8.09    0.51
   6  -9  -5    7.71    0.58
  -6  10   5    6.77    0.40
   6  10  -5    6.31    0.41
   6 -10   5    7.52    0.44
   6 -10  -5    6.16    0.42
   6  10   5    7.41    0.30
   6  10   5    7.31    0.46
  -6 -10   5    7.50    0.43
  -6  10  -5    6.09    0.47
  -6 -10   5    7.34    0.38
   6  10   5    7.63    0.52
   6  10   5    7.08    0.46
  -6  10  -5    6.18    0.40
  -6   0   6    0.85    0.33
   6   0   6    1.25    0.26
   6   0  -6    0.15    0.27
   6   0   6    1.79    0.53
   6   0   6    1.07    0.37
   6   0   6    1.29    0.39
   6   0  -6    0.77    0.29
  -6   0   6    1.34    0.36
  -6   0   6    1.43    0.41
   6   0  -6    0.32    0.25
   6   0   6    1.73    0.30
   6   0  -6    0.83    0.41
  -6  -1  -6   20.51    1.18
   6  -1   6   22.27    1.46
   6  -1   6   19.76    0.87
   6  -1   6   21.04    1.21
   6  -1   6   21.64    1.30
  -6   1   6   22.90    1.26
  -6   1   6   20.32    1.22
   6   1  -6   19.57    1.09
   6  -1   6   22.78    1.24
   6  -1   6   20.08    0.94
   6   1  -6   19.94    1.34
  -6   1   6   20.42    1.24
   6   1  -6   16.92    1.36
   6   1  -6   18.91    1.21
  -6  -1   6   21.33    0.94
  -6  -1   6   19.98    1.21
   6   1   6   19.74    0.87
   6  -1  -6   19.68    1.10
  -6  -1   6   20.04    1.19
  -6  -1   6   20.41    1.15
   6  -1  -6   18.77    1.31
  -6  -1   6   19.44    1.23
   6   1   6   20.64    1.25
   6  -1  -6   17.62    1.36
   6   1   6   21.33    0.94
   6  -2   6   21.71    0.94
   6  -2   6   20.00    0.99
  -6   2   6   20.41    1.28
  -6   2   6   21.66    1.29
   6  -2   6   20.91    1.48
   6   2  -6   22.84    1.33
  -6  -2  -6   22.70    1.38
   6   2  -6   21.97    1.14
   6   2  -6   23.93    1.47
   6  -2   6   21.68    1.28
   6  -2   6   19.96    1.23
   6  -2   6   20.16    1.35
   6   2   6   19.91    0.91
  -6  -2   6   19.59    1.29
   6   2   6   20.89    0.97
   6  -2  -6   23.34    1.18
   6  -2  -6   23.36    1.31
  -6  -2   6   20.72    1.23
   6  -2  -6   23.20    1.46
   6  -2  -6   22.90    1.00
   6  -2  -6   22.97    1.56
   6  -2  -6   23.21    1.33
  -6  -2   6   20.88    0.99
  -6  -2   6   20.76    1.27
  -6   2  -6   21.69    1.08
  -6  -2   6   20.88    1.24
   6  -3   6   18.80    1.44
  -6   3   6   16.04    1.13
   6  -3   6   18.98    1.29
  -6  -3  -6   18.82    1.33
   6  -3   6   17.71    1.18
  -6  -3  -6   17.64    1.15
   6   3  -6   18.20    1.31
   6   3  -6   17.12    1.02
  -6   3   6   17.21    1.18
   6  -3   6   17.96    0.85
   6  -3   6   18.37    0.90
   6  -3  -6   18.17    1.17
  -6  -3   6   16.57    1.18
  -6  -3   6   16.23    1.14
   6   3   6   18.30    0.88
  -6  -3   6   18.47    1.24
   6  -3  -6   15.66    1.35
   6  -3  -6   18.13    1.10
   6  -3  -6   18.44    1.21
   6   3   6   17.63    0.84
   6  -3  -6   18.16    1.28
  -6   3  -6   16.33    1.02
   6  -3  -6   16.85    0.86
  -6  -3   6   18.48    0.93
   6   4  -6    9.55    0.76
   6  -4   6   11.28    1.06
   6  -4   6   11.37    0.71
  -6  -4  -6    9.15    0.95
   6  -4   6   12.59    1.02
   6  -4   6   11.30    0.68
  -6   4   6   12.30    1.05
   6  -4  -6    9.68    1.00
   6  -4  -6    9.83    0.99
   6   4   6   11.35    0.66
  -6  -4   6   11.41    1.01
  -6  -4   6   11.38    0.73
   6   4   6   12.16    0.71
  -6   4  -6    8.66    0.79
   6  -4  -6   10.46    0.68
   6  -4  -6   11.02    0.88
   6  -4  -6    9.56    0.91
   6  -5   6   49.38    2.37
   6  -5   6   52.55    1.97
  -6   5   6   51.65    1.74
  -6   5   6   51.36    1.55
   6  -5   6   51.16    1.87
  -6   5   6   51.17    1.78
   6  -5   6   52.91    1.70
   6  -5   6   51.24    1.68
   6  -5   6   51.60    1.50
   6   5  -6   51.56    1.76
  -6   5   6   49.40    2.36
   6  -5   6   50.94    2.52
   6   5  -6   49.97    2.02
  -6  -5  -6   48.75    2.38
   6  -5   6   51.73    1.61
  -6   5   6   51.39    1.62
   6  -5  -6   51.85    2.19
   6   5   6   50.67    1.80
   6   5   6   53.72    1.88
  -6   5  -6   52.23    2.20
  -6  -5   6   49.15    1.73
  -6  -5   6   52.96    2.01
   6   5   6   52.97    1.30
   6  -5  -6   51.21    2.51
   6   5   6   51.28    1.92
   6  -5  -6   53.17    1.95
   6  -5  -6   49.68    2.38
   6   5   6   51.68    1.77
   6   6  -6   22.57    1.09
   6  -6   6   22.23    1.63
  -6   6   6   22.67    0.92
  -6   6   6   21.63    0.89
  -6   6   6   23.00    1.00
   6  -6   6   21.89    0.87
   6  -6   6   20.89    0.95
  -6   6   6   21.33    0.99
   6  -6   6   21.53    0.95
   6  -6   6   21.71    0.90
   6   6  -6   21.67    0.99
   6  -6   6   24.02    1.09
   6  -6   6   23.39    1.12
   6  -6   6   18.61    1.49
  -6   6  -6   19.57    1.29
   6   6   6   23.12    1.04
   6  -6  -6   22.05    1.28
   6  -6  -6   21.55    1.10
   6   6   6   22.90    1.11
  -6  -6   6   22.66    1.14
  -6  -6   6   22.96    0.98
   6   6   6   23.64    1.04
   6   6   6   23.04    0.69
   6  -6  -6   18.63    1.43
   6   6   6   24.44    1.08
  -6   7   6    1.69    0.30
  -6   7   6    2.45    0.34
   6  -7   6    2.14    0.39
   6  -7   6    2.02    0.31
  -6  -7  -6    2.70    0.40
   6  -7   6    2.88    0.42
   6   7  -6    2.36    0.35
   6  -7   6    2.60    0.37
   6   7  -6    1.66    0.34
  -6   7   6    2.47    0.37
   6   7   6    2.47    0.40
  -6  -7   6    2.34    0.35
   6   7   6    1.82    0.33
  -6  -7   6    2.19    0.42
   6  -7  -6    1.53    0.47
  -6  -7   6    1.97    0.33
   6   7   6    2.27    0.37
  -6   7  -6    1.89    0.48
   6  -7  -6    2.11    0.38
   6   7   6    2.42    0.22
   6   8  -6    4.30    0.45
   6   8  -6    3.57    0.40
   6  -8   6    4.42    0.51
   6  -8   6    3.46    0.38
  -6   8   6    4.67    0.42
  -6   8   6    4.11    0.40
   6   8   6    4.63    0.48
  -6  -8   6    3.54    0.48
   6   8   6    3.73    0.43
   6   8   6    4.18    0.49
  -6  -8   6    3.95    0.37
  -6  -8   6    4.28    0.42
   6  -8  -6    3.51    0.56
  -6   8  -6    2.73    0.52
   6  -8  -6    3.51    0.45
  -6   8  -6    4.63    0.43
  -6   9   6   18.05    0.73
  -6   9   6   17.58    0.70
   6   9  -6   18.30    0.73
   6  -9   6   18.23    0.77
   6   9  -6   19.00    0.79
   6   9   6   18.06    0.81
  -6  -9   6   18.46    0.75
   6  -9  -6   18.16    0.88
   6   9   6   18.71    0.91
  -6  -9   6   18.03    0.67
  -6   9  -6   19.34    0.76
   6   9   6   18.35    0.83
   6   9   6   18.36    0.55
   6  -9  -6   17.82    0.80
  -6  10   6    4.51    0.32
  -6  10   6    4.78    0.30
   6 -10   6    4.68    0.33
   6 -10  -6    4.61    0.33
  -6  10  -6    4.77    0.39
   6  10   6    5.02    0.34
   6  10   6    4.86    0.35
  -6 -10   6    5.54    0.33
  -6  10  -6    5.08    0.33
  -6   0   7   84.48    3.34
   6   0  -7   89.65    3.65
   6   0  -7   86.82    3.54
   6   0   7   82.09    3.20
   6   0   7   79.81    3.74
   6   0   7   86.21    2.88
   6   0  -7   82.24    3.79
   6   0   7   86.44    3.50
  -6   0   7   84.15    3.24
   6   0  -7   89.05    3.19
   6   1  -7   51.34    2.76
   6  -1   7   53.60    2.76
   6   1  -7   55.65    2.62
   6  -1   7   51.41    2.33
   6   1  -7   58.95    2.29
   6  -1   7   54.27    2.37
   6   1  -7   55.50    2.52
   6  -1   7   53.88    2.52
   6  -1   7   54.74    2.01
  -6   1   7   52.99    2.41
  -6   1   7   53.43    2.35
  -6  -1   7   54.40    2.35
   6   1   7   54.68    1.98
   6  -1  -7   56.37    2.52
   6  -1  -7   55.67    2.25
  -6  -1   7   52.79    2.41
  -6  -1   7   56.14    2.03
   6  -1  -7   55.80    2.61
   6  -1  -7   49.46    2.86
   6   1   7   52.97    2.47
   6  -2   7   46.13    2.31
   6   2  -7   46.08    2.26
   6   2  -7   46.92    2.00
   6  -2   7   47.08    1.81
   6  -2   7   46.18    2.15
  -6   2   7   43.21    2.16
   6   2  -7   44.46    2.34
  -6  -2   7   45.61    2.09
   6  -2  -7   46.80    1.72
   6  -2  -7   45.44    2.35
  -6   2  -7   45.35    2.00
  -6  -2   7   48.45    1.78
   6  -2  -7   47.39    2.25
   6  -2  -7   48.63    2.03
  -6  -2   7   45.87    2.21
  -6  -2   7   45.07    2.11
   6  -2  -7   49.50    2.22
   6   3  -7   39.95    1.79
   6  -3   7   37.58    1.37
   6  -3   7   38.05    1.13
   6  -3   7   38.58    1.98
  -6   3   7   39.12    1.97
   6  -3   7   39.95    1.62
   6  -3   7   36.45    2.08
   6   3  -7   38.92    2.15
   6  -3  -7   38.38    1.99
  -6  -3   7   37.78    2.02
   6  -3  -7   36.57    1.95
  -6  -3   7   40.11    1.31
  -6  -3   7   40.13    1.61
  -6  -3   7   41.27    1.48
  -6  -3   7   39.31    1.46
   6  -3  -7   39.11    2.11
   6  -3  -7   39.03    1.54
  -6   3  -7   39.72    1.88
   6  -3  -7   41.03    1.83
  -6   4   7    4.50    0.49
   6  -4   7    4.98    0.80
  -6   4   7    3.77    0.37
  -6   4   7    5.28    0.48
   6  -4   7    4.55    0.48
   6  -4   7    5.50    0.91
   6   4  -7    4.45    0.47
   6  -4   7    5.24    0.52
   6  -4   7    5.19    0.36
   6  -4   7    4.25    0.44
   6   4  -7    4.41    0.62
   6  -4   7    5.09    0.46
   6   4   7    4.64    0.53
   6  -4  -7    4.77    0.49
   6  -4  -7    4.11    0.72
  -6  -4   7    5.18    0.52
   6   4   7    4.92    0.53
  -6  -4   7    4.30    0.53
   6  -4  -7    4.91    0.85
   6  -4  -7    4.67    0.68
  -6  -4   7    4.30    0.37
   6  -5   7    3.76    0.34
  -6   5   7    2.77    0.35
  -6   5   7    4.36    0.42
   6  -5   7    4.41    0.83
   6  -5   7    3.75    0.42
   6  -5   7    4.01    0.45
  -6   5   7    4.63    0.49
   6  -5   7    3.30    0.77
   6   5  -7    4.72    0.51
   6  -5   7    3.30    0.39
   6  -5   7    4.24    0.51
   6   5  -7    3.61    0.54
   6   5   7    3.66    0.47
  -6  -5   7    5.14    0.51
   6   5   7    3.84    0.47
  -6  -5   7    4.02    0.39
   6   5   7    4.15    0.51
   6  -5  -7    4.00    0.49
   6  -5  -7    3.60    0.73
   6  -5  -7    3.30    0.62
  -6  -5   7    4.03    0.51
  -6   5  -7    4.86    0.73
   6  -6   7    2.60    0.33
   6  -6   7    2.49    0.36
   6  -6   7    2.90    0.44
   6   6  -7    2.79    0.40
   6  -6   7    2.36    0.34
   6  -6   7    3.05    0.38
  -6   6   7    3.67    0.37
  -6   6   7    3.01    0.39
   6  -6   7    1.77    0.66
  -6   6   7    3.49    0.39
   6   6   7    2.32    0.36
   6  -6  -7    2.61    0.42
  -6  -6   7    2.91    0.46
  -6   6  -7    2.11    0.54
   6  -6  -7    2.35    0.55
   6   6   7    3.41    0.45
   6   6   7    2.35    0.40
  -6  -6   7    2.79    0.31
   6  -7   7   -0.05    0.23
  -6   7   7   -0.07    0.15
   6  -7   7    0.36    0.20
   6  -7   7    0.34    0.18
  -6   7   7    0.20    0.18
   6   7  -7    0.57    0.27
   6  -7   7   -0.10    0.15
  -6   7   7   -0.03    0.16
   6   7  -7    0.16    0.18
   6  -7  -7    0.23    0.21
  -6   7  -7    0.22    0.34
   6   7   7    0.17    0.20
  -6  -7   7    0.06    0.14
  -6  -7   7    0.10    0.22
   6   7   7   -0.01    0.19
   6  -7  -7    0.21    0.34
   6   7   7    0.11    0.21
   6   8  -7    0.28    0.19
   6  -8   7    0.14    0.17
   6  -8   7    0.13    0.15
  -6   8   7    0.21    0.15
   6   8  -7    0.26    0.19
  -6   8   7    0.18    0.17
   6   8   7    0.66    0.19
   6  -8  -7    0.37    0.16
   6  -8  -7    0.09    0.18
  -6  -8   7    0.20    0.17
  -6   8  -7    0.43    0.17
   6   8   7    0.11    0.18
   6   8   7    0.10    0.21
   6   9  -7    5.77    0.40
   6  -9   7    7.32    0.44
  -6   9   7    7.07    0.40
  -6   9   7    6.78    0.37
   6   9  -7    5.97    0.37
   6   9   7    7.55    0.46
   6   9   7    6.54    0.50
  -6  -9   7    7.21    0.39
   6  -9  -7    6.62    0.47
  -6   9  -7    6.54    0.41
   6  -9  -7    6.45    0.42
   6   9   7    6.37    0.42
   6 -10   7    6.36    0.32
  -6  10   7    5.21    0.30
  -6  10  -7    5.75    0.31
   6  10   7    5.88    0.33
   6 -10  -7    5.71    0.32
   6  10   7    6.28    0.34
  -6   0   8  118.98    3.38
   6   0   8  117.01    3.36
  -6   0   8  116.91    3.44
   6   0   8  122.66    3.90
  -6   0   8  119.41    3.05
   6   0   8  120.36    2.71
   6   0   8  118.71    4.65
   6   0  -8  123.01    4.26
  -6   0   8  117.39    3.14
   6   0  -8  120.11    4.75
  -6   0   8  117.56    4.43
  -6   0   8  116.56    4.33
   6   0  -8  115.06    4.73
   6  -1   8   26.81    1.69
   6   1  -8   24.25    1.60
  -6   1   8   26.40    1.00
   6  -1   8   27.67    1.09
   6  -1   8   26.19    0.75
  -6   1   8   25.87    0.95
   6  -1   8   26.04    1.00
  -6   1   8   27.08    1.08
  -6   1   8   26.06    1.09
  -6   1   8   27.25    1.67
  -6   1   8   27.44    1.63
   6  -1   8   29.36    1.28
   6   1  -8   25.46    1.72
   6   1  -8   26.48    1.43
   6  -1  -8   25.98    1.73
  -6  -1   8   25.62    0.98
   6  -1  -8   25.87    1.45
  -6  -1   8   28.29    1.61
  -6  -1   8   26.70    1.11
  -6  -1   8   27.17    1.09
  -6  -1   8   29.37    1.70
   6   1   8   25.58    1.67
   6  -2   8   25.39    1.19
  -6   2   8   23.22    0.95
   6  -2   8   24.30    1.63
   6  -2   8   23.30    0.94
   6   2  -8   23.40    1.34
  -6   2   8   24.28    1.03
   6  -2   8   24.02    1.57
   6  -2   8   23.88    1.01
  -6   2   8   24.06    0.88
   6   2  -8   21.19    1.59
   6  -2   8   23.73    0.75
  -6  -2   8   25.26    1.03
  -6  -2   8   25.18    1.15
   6  -2  -8   24.57    1.57
  -6  -2   8   25.30    1.05
   6  -2  -8   24.54    1.38
   6  -2  -8   23.09    1.64
   6   3  -8    2.97    0.71
   6  -3   8    3.12    0.71
   6  -3   8    3.06    0.39
   6  -3   8    3.80    0.32
   6  -3   8    3.63    0.44
  -6   3   8    3.88    0.42
   6   3  -8    3.30    0.58
  -6   3   8    4.08    0.40
   6  -3   8    3.33    0.49
   6  -3   8    3.54    0.40
   6  -3   8    2.91    0.74
  -6   3   8    3.49    0.42
  -6  -3   8    4.02    0.46
   6  -3  -8    2.00    0.58
  -6  -3   8    3.67    0.45
   6  -3  -8    3.75    0.46
   6  -3  -8    3.76    0.73
  -6  -3   8    3.77    0.49
   6  -3  -8    3.57    0.62
   6  -4   8    5.27    0.49
   6  -4   8    5.63    0.56
   6   4  -8    4.72    0.51
   6  -4   8    5.46    0.35
  -6   4   8    4.33    0.38
   6  -4   8    5.50    0.94
   6  -4   8    4.91    0.49
   6  -4   8    5.30    0.91
   6  -4   8    4.75    0.49
  -6   4   8    4.16    0.47
   6   4  -8    4.56    0.65
  -6   4   8    4.23    0.41
  -6  -4   8    4.40    0.47
   6  -4  -8    3.98    0.80
   6  -4  -8    5.05    0.50
  -6  -4   8    5.32    0.54
   6  -4  -8    4.91    0.74
   6  -4  -8    3.14    0.75
   6  -5   8    1.98    0.33
  -6   5   8    2.23    0.28
   6   5  -8    1.89    0.34
  -6   5   8    2.69    0.34
   6  -5   8    1.95    0.25
   6  -5   8    1.66    0.60
   6  -5   8    1.96    0.32
   6  -5   8    2.35    0.35
  -6   5   8    2.16    0.36
   6   5  -8    2.40    0.48
   6  -5   8    2.28    0.41
   6   5   8    2.05    0.37
   6  -5  -8    1.76    0.34
  -6  -5   8    2.31    0.34
   6  -5  -8    3.01    0.57
   6   5   8    2.17    0.39
  -6  -5   8    2.84    0.42
   6   5   8    1.97    0.36
  -6   5  -8    1.87    0.54
   6  -6   8    0.99    0.26
   6  -6   8    1.12    0.24
   6  -6   8    0.85    0.21
   6  -6   8    1.21    0.33
  -6   6   8    0.89    0.21
  -6   6   8    1.09    0.25
   6   6  -8    0.70    0.23
  -6   6   8    1.54    0.32
   6  -6   8    1.15    0.27
   6   6   8    1.27    0.30
   6   6   8    1.52    0.36
  -6   6  -8    0.48    0.46
   6   6   8    1.32    0.32
   6  -6  -8    1.26    0.26
  -6  -6   8    0.97    0.32
   6  -6  -8    1.23    0.32
   6  -6  -8    1.47    0.45
   6  -7   8    0.08    0.18
  -6   7   8    0.02    0.16
   6   7  -8    0.29    0.18
  -6   7   8    0.27    0.19
   6  -7   8    0.26    0.17
  -6   7   8    0.18    0.15
   6  -7   8    0.28    0.14
   6   7   8    0.17    0.22
   6   7   8    0.08    0.17
   6  -7  -8    0.18    0.16
   6   7   8    0.06    0.18
   6  -7  -8    0.16    0.18
  -6   8   8    2.10    0.26
   6   8  -8    2.93    0.34
  -6   8   8    2.37    0.25
   6   8  -8    3.18    0.33
   6  -8   8    2.35    0.27
   6  -8   8    2.24    0.29
   6  -8  -8    2.67    0.35
  -6   8  -8    2.58    0.28
   6   8   8    2.49    0.31
   6  -8  -8    2.58    0.31
   6   8   8    2.49    0.32
   6   8   8    1.99    0.32
  -6   9   8    5.97    0.32
   6  -9   8    6.39    0.36
   6  -9   8    5.74    0.34
   6   9  -8    6.16    0.31
   6   9   8    6.41    0.37
  -6   9  -8    5.22    0.34
   6  -9  -8    6.35    0.37
   6   9   8    6.60    0.37
  -6   0   9    2.31    0.66
   6   0   9    2.60    0.45
  -6   0   9    2.44    0.30
   6   0  -9    3.40    0.60
  -6   0   9    2.37    0.35
   6   0   9    2.14    0.67
   6   0  -9    3.53    0.78
   6   0   9    1.87    0.34
  -6   0   9    3.32    0.39
  -6   0   9    2.86    0.41
  -6   1   9    8.60    0.51
   6  -1   9    8.47    0.59
  -6   1   9    8.52    0.58
   6  -1   9    6.30    0.96
   6   1  -9   10.30    0.89
   6  -1   9    9.11    0.57
   6  -1   9    9.75    0.33
   6  -1   9    9.44    0.69
   6   1  -9   10.73    1.19
  -6   1   9    9.85    0.61
  -6   1   9   10.05    0.57
  -6   1   9    9.23    1.10
   6  -1  -9    9.96    1.23
  -6  -1   9    9.50    0.61
  -6  -1   9    9.40    0.57
  -6  -1   9    9.46    0.54
  -6  -1   9    9.75    0.63
   6  -1  -9   11.08    0.94
  -6  -1   9    8.49    1.09
   6  -2   9   16.43    1.48
   6   2  -9   21.21    1.23
   6  -2   9   18.39    0.89
   6  -2   9   19.25    0.62
  -6   2   9   19.31    0.90
   6   2  -9   18.97    1.55
  -6   2   9   19.10    0.76
   6  -2   9   19.90    1.07
  -6   2   9   19.63    0.84
   6  -2   9   18.73    0.83
  -6  -2   9   18.20    0.89
  -6  -2   9   19.88    0.83
   6  -2  -9   20.91    1.28
  -6  -2   9   19.40    0.91
   6  -2  -9   20.79    1.59
  -6   3   9   45.21    1.60
   6  -3   9   45.77    1.26
   6  -3   9   46.36    1.49
  -6   3   9   46.52    1.48
   6  -3   9   47.45    1.61
  -6   3   9   45.02    1.37
   6   3  -9   46.12    2.05
   6  -3   9   45.94    1.86
   6  -3   9   44.57    2.47
   6   3  -9   40.11    2.42
  -6  -3   9   46.41    1.59
   6  -3  -9   46.78    2.11
   6  -3  -9   43.52    2.41
  -6  -3   9   45.04    1.80
   6  -4   9    7.39    0.54
   6  -4   9    5.32    0.92
  -6   4   9    7.24    0.53
   6  -4   9    6.82    0.52
   6   4  -9    7.13    0.75
   6  -4   9    7.03    0.39
  -6   4   9    6.76    0.49
  -6   4   9    6.84    0.42
   6   4  -9    7.01    0.52
   6  -4   9    6.78    0.50
   6  -4   9    6.98    0.64
  -6  -4   9    5.96    0.51
   6  -4  -9    6.72    0.83
  -6  -4   9    6.96    0.63
   6  -4  -9    6.50    1.11
   6  -4  -9    6.79    0.60
   6  -5   9    0.30    0.27
   6   5  -9    0.39    0.34
  -6   5   9    0.72    0.23
  -6   5   9    0.93    0.22
   6  -5   9    0.70    0.17
   6   5  -9    0.78    0.26
  -6   5   9    1.05    0.21
   6  -5   9    0.54    0.24
   6  -5   9    0.91    0.23
   6  -5   9    1.15    0.26
   6  -5  -9    1.17    0.46
  -6  -5   9    0.63    0.27
  -6  -5   9    1.00    0.25
   6  -5  -9    0.74    0.25
  -6   6   9    5.43    0.43
   6  -6   9    5.85    0.37
  -6   6   9    5.53    0.37
  -6   6   9    5.57    0.42
   6  -6   9    6.06    0.47
   6  -6   9    5.77    0.44
   6  -6   9    7.47    0.48
   6   6  -9    5.15    0.46
  -6  -6   9    5.40    0.44
   6   6   9    5.81    0.47
   6   6   9    6.03    0.55
   6  -6  -9    5.48    0.50
   6  -7   9    1.51    0.24
   6   7  -9    1.59    0.32
  -6   7   9    1.60    0.23
   6  -7   9    1.55    0.26
   6  -7   9    2.00    0.27
   6   7  -9    2.22    0.30
   6  -7   9    2.06    0.24
  -6   7   9    2.08    0.27
   6   7   9    1.82    0.27
   6   7   9    2.13    0.29
   6  -7  -9    1.91    0.28
   6   7   9    1.82    0.32
   6  -7  -9    1.72    0.29
   6  -8   9    1.24    0.17
  -6   8   9    1.11    0.17
   6  -8   9    1.15    0.19
   6   8  -9    0.71    0.20
   6  -8  -9    1.19    0.19
  -6   8  -9    0.75    0.17
   6   8   9    1.30    0.21
   6   8   9    1.19    0.20
   6   0 -10   23.94    1.37
   6   0 -10   20.94    1.67
   6   0  10   24.51    1.01
   6   0  10   23.66    0.93
  -6   0  10   23.33    1.00
   6   0  10   19.88    1.76
  -6   0  10   22.89    0.91
  -6   0  10   23.37    0.99
  -6   0  10   24.01    0.86
   6  -1  10    3.04    0.39
  -6   1  10    2.87    0.32
  -6   1  10    2.85    0.40
  -6   1  10    3.14    0.37
  -6   1  10    2.99    0.38
   6  -1  10    2.87    0.37
   6  -1  10    3.14    0.47
   6   1 -10    3.41    0.83
   6   1 -10    3.62    0.62
  -6  -1  10    2.58    0.36
   6  -1 -10    2.87    0.75
  -6  -1  10    3.08    0.37
   6  -1 -10    3.90    0.66
  -6  -1  10    3.31    0.35
  -6  -1  10    2.22    0.34
   6  -2  10    6.02    0.26
  -6   2  10    6.30    0.41
   6   2 -10    6.21    0.78
  -6   2  10    6.29    0.46
   6  -2  10    5.66    0.50
   6  -2  10    6.00    0.59
   6  -2  10    5.86    0.48
  -6   2  10    6.30    0.50
  -6  -2  10    5.59    0.51
  -6  -2  10    5.79    0.51
  -6  -2  10    6.06    0.43
   6  -2 -10    7.35    0.88
   6  -3  10    1.16    0.26
   6  -3  10    1.36    0.32
   6   3 -10    1.52    0.44
   6  -3  10    1.02    0.24
  -6   3  10    1.21    0.21
  -6   3  10    0.94    0.25
   6  -3  10    1.24    0.16
  -6   3  10    1.35    0.23
   6   3 -10    1.88    0.33
  -6  -3  10    1.45    0.28
  -6  -3  10    1.21    0.24
   6  -3 -10    1.53    0.50
  -6   4  10    5.27    0.44
  -6   4  10    4.76    0.41
   6  -4  10    5.55    0.48
   6  -4  10    5.70    0.31
  -6   4  10    5.82    0.36
   6   4 -10    4.08    0.44
   6  -4  10    5.02    0.49
   6  -4  10    5.29    0.59
  -6  -4  10    5.42    0.45
  -6  -4  10    6.13    0.50
  -6   5  10    7.61    0.50
   6  -5  10    7.68    0.48
  -6   5  10    7.75    0.46
   6   5 -10    8.24    0.51
   6  -5  10    7.87    0.53
   6  -5  10    7.59    0.37
  -6   5  10    7.92    0.41
  -6  -5  10    8.36    0.51
  -6   6  10    5.61    0.32
   6  -6  10    5.76    0.42
   6  -6  10    5.86    0.31
  -6   6  10    5.57    0.40
   6  -6  10    5.81    0.39
   6   6 -10    6.76    0.42
   6  -6  10    6.26    0.42
  -6   6  10    5.34    0.36
  -6  -6  10    6.04    0.39
  -6   7  10    0.99    0.16
   6  -7  10    1.08    0.15
  -6   7  10    1.15    0.18
   6  -7  10    0.93    0.18
  -6   7  10    1.09    0.13
  -6   7 -10    0.67    0.17
   6   7  10    1.05    0.18
   6   0  11   35.77    1.18
  -6   0  11   33.94    1.28
  -6   0  11   36.59    1.26
  -6   0  11   35.65    1.10
   6   0  11   36.06    1.28
  -6   0  11   36.06    1.17
   6  -1  11    7.37    0.49
  -6   1  11    7.56    0.50
  -6   1  11    7.48    0.42
  -6   1  11    8.03    0.48
   6  -1  11    7.31    0.56
  -6   1  11    7.59    0.52
  -6  -1  11    7.58    0.47
  -6  -1  11    6.96    0.50
  -6  -1  11    7.73    0.43
  -6  -1  11    7.18    0.51
   6  -2  11   12.55    0.60
   6  -2  11   10.11    0.64
  -6   2  11   11.09    0.56
  -6   2  11   11.76    0.50
  -6   2  11   10.92    0.63
   6   2 -11   12.50    0.66
  -6  -2  11   11.96    0.57
  -6  -2  11   10.34    0.52
  -6  -2  11   11.31    0.63
   6  -3  11    6.14    0.49
  -6   3  11    6.31    0.46
   6   3 -11    6.91    0.46
  -6   3  11    6.22    0.42
  -6   3  11    6.29    0.35
   6  -3  11    6.15    0.44
  -6  -3  11    5.66    0.44
  -6  -3  11    5.57    0.40
   6  -4  11    2.27    0.31
  -6   4  11    2.12    0.21
  -6   4  11    2.36    0.29
  -6   4  11    2.40    0.27
   6  -4  11    2.60    0.30
   6  -4  11    2.38    0.16
   6   4 -11    2.25    0.31
  -6  -4  11    2.14    0.26
  -6  -4  11    2.34    0.29
   6  -5  11    0.95    0.12
  -6   5  11    0.79    0.18
   6  -5  11    1.21    0.22
   6  -5  11    0.94    0.19
  -6   5  11    0.80    0.13
  -6   5  11    0.76    0.17
   6   5 -11    0.77    0.19
  -6  -5  11    1.10    0.19
  -6  -5  11    0.71    0.18
   6  -6  11    0.37    0.15
   6  -6  11    0.50    0.08
  -6   6  11    0.40    0.08
  -6   6  11    0.36    0.12
   6  -6  11    0.29    0.13
  -6   6  11    0.36    0.14
  -6   0  12   28.41    0.85
  -6   0  12   28.79    1.03
  -6   0  12   28.22    0.92
  -6   0  12   27.90    0.98
  -6   1  12    2.31    0.21
   6  -1  12    2.26    0.29
   6   1 -12    2.94    0.32
  -6   1  12    2.67    0.31
   6  -1  12    3.43    0.31
  -6   1  12    2.52    0.27
  -6  -1  12    2.38    0.25
  -6  -1  12    2.76    0.29
  -6  -1  12    2.67    0.24
   6   2 -12    0.73    0.19
   6  -2  12    1.22    0.22
  -6   2  12    0.63    0.16
  -6   2  12    0.90    0.14
   6  -2  12    0.89    0.20
  -6   2  12    0.88    0.20
  -6  -2  12    0.59    0.18
  -6  -2  12    0.79    0.15
   6   3 -12    8.45    0.45
  -6   3  12    8.40    0.45
   6  -3  12    8.67    0.43
   6  -3  12    9.00    0.48
  -6   3  12    8.54    0.41
  -6   3  12    8.06    0.32
  -6  -3  12    8.13    0.44
  -6  -3  12    7.85    0.38
  -6   4  12    4.60    0.31
   6   4 -12    4.00    0.30
   6  -4  12    5.25    0.31
   6  -4  12    4.71    0.32
  -6   4  12    4.53    0.19
  -6   4  12    4.80    0.29
  -6  -4  12    4.24    0.30
  -6  -4  12    4.08    0.27
  -6   5  12   11.04    0.44
   6   0 -13   15.86    0.62
  -6   0  13   17.55    0.48
   6   1 -13   13.06    0.54
  -6   1  13   14.52    0.38
  -6  -1  13   14.10    0.53
  -6  -1  13   14.71    0.43
  -6   2  13    3.55    0.26
  -6  -2  13    3.69    0.19
  -6  -2  13    3.41    0.27
  -7   0   0    0.23    0.16
  -7   0   0    0.15    0.12
   7   0   0    0.13    0.10
  -7   0   0    0.09    0.12
  -7   0   0    0.06    0.11
   7   0   0    0.16    0.15
   7   0   0    0.03    0.14
   7   0   0    0.10    0.16
   7  -1   0  134.20    4.53
   7  -1   0  126.12    3.96
   7   1   0  137.31    4.58
  -7  -1   0  129.01    4.67
   7  -1   0  134.21    4.74
  -7   1   0  125.82    4.22
  -7  -1   0  130.68    4.12
  -7  -1   0  136.53    4.08
   7   1   0  128.93    4.00
   7   1   0  131.44    4.41
  -7   1   0  129.83    4.68
  -7   1   0  134.08    4.07
   7  -1   0  131.14    4.58
  -7  -1   0  132.79    3.97
  -7   2   0  243.31    8.41
  -7   2   0  236.00    7.55
   7  -2   0  243.65    7.13
   7  -2   0  241.39    7.97
  -7  -2   0  246.05    7.31
  -7  -2   0  245.76    7.27
  -7   2   0  247.34    7.14
  -7  -2   0  248.28    7.15
   7  -2   0  241.75    8.07
  -7  -2   0  242.13    8.40
  -7  -2   0  237.87    7.21
   7  -2   0  247.44    8.49
   7   2   0  243.78    8.02
   7  -3   0    1.30    0.38
   7   3   0    2.36    0.32
  -7  -3   0    1.49    0.33
   7  -3   0    1.65    0.39
   7   3   0    1.30    0.34
  -7   3   0    1.00    0.27
  -7  -3   0    1.27    0.25
  -7  -3   0    1.35    0.36
   7  -3   0    1.85    0.33
  -7  -3   0    1.11    0.27
   7  -3   0    0.85    0.31
  -7   3   0    0.91    0.26
  -7  -3   0    1.64    0.35
  -7  -3   0    1.30    0.29
  -7  -4   0    3.97    0.59
  -7  -4   0    3.71    0.37
   7  -4   0    4.16    0.36
  -7  -4   0    3.83    0.54
   7  -4   0    3.79    0.59
  -7  -4   0    3.66    0.52
   7  -4   0    4.73    0.58
  -7  -4   0    2.95    0.44
   7   4   0    3.80    0.41
  -7   4   0    3.39    0.45
   7  -4   0    3.43    0.62
  -7  -4   0    3.18    0.49
   7  -4   0    4.64    0.68
  -7   4   0    4.13    0.48
   7   4   0    3.61    0.56
  -7  -5   0   18.26    1.23
   7  -5   0   18.78    1.20
   7   5   0   18.94    0.89
  -7  -5   0   20.28    1.19
   7  -5   0   18.35    1.31
   7   5   0   18.37    0.87
  -7  -5   0   20.04    1.18
   7  -5   0   19.36    1.36
  -7   5   0   18.17    0.98
   7  -5   0   19.39    0.87
   7  -5   0   17.10    1.11
  -7  -5   0   19.13    1.15
  -7  -5   0   17.88    0.90
  -7  -5   0   20.13    1.13
  -7  -5   0   18.17    1.11
  -7  -6   0   11.82    1.12
   7  -6   0   12.79    1.04
   7  -6   0   12.59    0.72
  -7   6   0   11.82    0.78
  -7  -6   0   14.34    0.78
   7  -6   0   13.49    1.08
   7   6   0   12.91    0.73
  -7  -6   0   13.18    0.98
  -7  -6   0   11.88    0.95
   7   6   0   13.12    0.74
  -7  -6   0   13.31    1.05
  -7   7   0   39.84    1.54
   7   7   0   39.76    1.41
  -7   7   0   39.73    1.34
  -7  -7   0   38.19    1.85
   7   7   0   39.49    1.58
   7  -7   0   38.84    1.50
   7  -7   0   39.52    1.50
   7   7   0   38.02    1.28
   7   7   0   39.47    1.44
   7  -7   0   40.71    1.56
   7  -7   0   40.41    2.07
   7   8   0    3.37    0.41
  -7  -8   0    4.08    0.52
   7   8   0    3.92    0.41
  -7   8   0    3.22    0.40
   7  -8   0    3.09    0.44
   7   8   0    3.92    0.47
  -7   8   0    3.19    0.41
   7  -8   0    3.45    0.41
  -7  -8   0    2.98    0.54
   7  -9   0    0.89    0.26
   7   9   0    1.12    0.28
  -7  -9   0    0.83    0.37
  -7  -9   0    1.16    0.26
  -7   9   0    1.11    0.27
  -7   9   0    1.46    0.30
  -7  -9   0    1.14    0.32
   7   9   0    1.31    0.25
   7  -9   0    1.37    0.32
   7  10   0    2.48    0.32
  -7  10   0    3.10    0.35
  -7 -10   0    2.33    0.37
   7 -10   0    2.56    0.31
  -7 -10   0    3.39    0.37
   7 -10   0    2.63    0.39
   7  10   0    3.08    0.35
  -7  10   0    2.98    0.26
  -7  11   0   10.41    0.48
   7  11   0   11.37    0.53
  -7 -11   0   10.95    0.50
   7  11   0   10.89    0.49
  -7   0  -1    0.45    0.13
  -7   0   1    0.26    0.16
   7   0   1    0.38    0.16
   7   0   1    0.19    0.12
  -7   0   1    0.47    0.17
   7   0  -1    0.29    0.12
  -7   0   1    0.67    0.23
   7   0  -1    0.29    0.21
  -7   0   1    0.79    0.22
  -7   0   1    0.24    0.16
   7   0  -1    0.34    0.19
  -7   0  -1    0.53    0.17
   7   0   1    0.29    0.18
  -7   0  -1    0.23    0.17
   7   0   1    0.42    0.20
   7   0  -1    0.47    0.18
  -7  -1  -1   13.90    0.66
   7  -1   1   13.02    0.84
   7  -1   1   12.96    0.61
   7  -1   1   13.68    0.83
   7  -1   1   13.77    0.83
  -7   1   1   14.38    0.75
  -7  -1  -1   14.30    0.71
  -7   1   1   15.13    0.68
   7   1  -1   14.76    0.85
   7   1  -1   14.15    0.81
  -7  -1  -1   13.99    0.68
  -7   1   1   15.46    0.70
  -7  -1  -1   12.90    0.77
  -7   1   1   13.07    0.79
  -7   1   1   13.24    0.74
  -7  -1   1   13.96    0.73
  -7  -1   1   13.02    0.76
  -7   1  -1   14.43    0.76
  -7  -1   1   13.09    0.64
   7  -1  -1   14.54    0.88
   7  -1  -1   15.34    0.89
  -7   1  -1   14.44    0.75
   7   1   1   12.93    0.63
   7  -1  -1   13.61    0.85
  -7  -1   1   14.20    0.75
   7   1   1   14.36    0.77
  -7  -1   1   14.18    0.81
   7   1   1   14.01    0.87
  -7  -1   1   13.92    0.80
   7  -2   1   64.90    2.50
  -7  -2  -1   64.81    2.22
  -7  -2  -1   64.39    2.16
  -7  -2  -1   63.58    2.41
  -7   2   1   64.54    2.16
  -7   2   1   64.02    2.26
   7  -2   1   60.53    2.58
   7  -2   1   61.28    2.05
   7  -2   1   63.80    2.54
  -7  -2  -1   61.80    2.28
  -7   2   1   65.07    2.53
   7   2  -1   65.16    2.48
   7  -2  -1   61.55    2.13
   7  -2  -1   65.64    2.18
   7   2   1   62.95    2.10
  -7  -2   1   64.81    2.22
   7  -2  -1   65.36    2.55
   7   2   1   61.94    2.50
  -7   2  -1   63.73    2.47
  -7   2  -1   65.30    2.22
  -7  -2   1   63.88    2.31
  -7  -2   1   65.21    2.27
   7  -2  -1   62.33    2.62
  -7  -2   1   61.22    2.28
  -7  -2   1   62.12    2.51
  -7  -2   1   63.60    2.12
  -7   2  -1   61.99    2.23
   7  -2  -1   65.61    2.52
   7   3  -1   91.72    3.41
  -7  -3  -1   87.64    2.94
  -7  -3  -1   91.39    3.04
  -7  -3  -1   89.48    3.14
  -7   3   1   96.45    3.51
  -7  -3  -1   90.40    3.12
   7  -3   1   94.88    3.66
  -7  -3  -1   90.69    3.42
   7  -3   1   95.19    3.52
  -7   3   1   92.01    3.11
   7  -3   1   93.24    2.87
   7  -3   1   89.65    2.80
   7  -3   1   95.29    3.44
   7  -3  -1   90.46    3.49
  -7   3  -1   91.98    3.47
   7  -3  -1   93.16    3.46
  -7  -3   1   94.22    3.10
  -7  -3   1   91.56    3.50
  -7  -3   1   94.44    3.17
  -7  -3   1   92.65    3.17
   7  -3  -1   94.35    3.10
   7   3   1   95.31    3.49
   7  -3  -1   87.34    3.01
  -7  -3   1   88.07    3.15
  -7  -3   1   90.37    2.96
  -7   3  -1   86.48    3.10
   7   3   1   88.40    2.81
  -7   3  -1   92.49    3.03
   7  -4   1   69.67    2.98
   7   4  -1   66.16    2.18
   7  -4   1   71.29    2.53
  -7  -4  -1   67.91    2.47
   7  -4   1   69.15    2.86
  -7  -4  -1   66.00    2.28
  -7  -4  -1   65.72    2.50
   7  -4   1   66.67    2.19
  -7  -4  -1   66.97    2.70
  -7   4   1   67.03    2.41
   7  -4   1   67.69    2.74
  -7  -4  -1   70.60    2.56
   7  -4  -1   67.28    2.36
  -7   4  -1   68.35    2.47
   7  -4  -1   70.67    2.55
  -7   4  -1   70.26    2.76
   7  -4  -1   68.07    2.76
  -7  -4   1   66.91    2.79
  -7  -4   1   66.87    2.56
  -7  -4   1   65.42    2.49
   7  -4  -1   67.51    2.86
  -7  -4   1   64.52    2.53
   7  -4  -1   66.57    2.15
   7   4   1   69.05    2.82
   7   4   1   64.79    2.19
  -7  -4   1   65.70    2.31
   7  -4  -1   67.21    2.99
  -7  -4   1   67.24    2.53
  -7  -4   1   64.60    2.72
   7  -5   1   59.66    2.07
   7   5  -1   61.80    2.09
  -7  -5  -1   60.82    2.41
  -7  -5  -1   63.08    2.45
   7  -5   1   62.68    2.64
  -7  -5  -1   61.77    2.49
  -7  -5  -1   61.61    2.62
   7  -5   1   60.09    2.88
  -7  -5  -1   63.01    2.17
  -7   5   1   61.01    2.19
  -7  -5  -1   60.10    2.71
   7   5  -1   63.04    2.09
   7  -5   1   60.10    2.75
   7  -5   1   64.65    2.49
  -7  -5   1   60.27    2.17
   7  -5  -1   61.62    2.21
   7  -5  -1   64.44    2.65
  -7  -5   1   62.49    2.49
  -7  -5   1   57.28    2.39
   7   5   1   61.75    2.10
  -7   5  -1   63.73    2.33
   7  -5  -1   60.74    2.03
   7  -5  -1   62.20    2.48
   7  -5  -1   58.84    2.88
  -7  -5   1   60.60    2.67
   7  -5  -1   61.38    2.12
  -7  -5   1   59.60    2.66
  -7  -5   1   60.32    2.40
   7   5   1   58.23    2.08
  -7  -5   1   57.24    2.43
   7   6  -1   20.81    0.98
   7  -6   1   19.90    0.96
  -7  -6  -1   19.24    1.26
  -7  -6  -1   19.50    1.27
  -7  -6  -1   20.85    1.24
   7  -6   1   20.31    1.32
   7  -6   1   19.05    1.31
  -7  -6   1   18.78    1.30
  -7  -6   1   20.70    1.01
   7  -6  -1   21.39    1.01
   7  -6  -1   20.20    1.31
   7   6   1   18.78    0.95
   7  -6  -1   19.78    0.98
   7  -6  -1   20.47    1.33
   7  -6  -1   20.38    0.93
   7   6   1   19.61    0.98
  -7   6  -1   18.98    1.05
  -7  -6   1   20.22    1.19
  -7  -6   1   20.39    1.29
  -7  -6   1   21.00    1.33
   7  -7   1   35.82    1.90
   7  -7   1   35.00    1.33
   7   7  -1   34.13    1.32
  -7  -7  -1   36.20    1.76
   7   7  -1   32.26    1.26
  -7   7   1   34.67    1.38
  -7   7   1   33.10    1.21
   7  -7   1   36.49    1.45
   7   7   1   34.54    1.14
   7   7   1   36.19    1.37
   7   7   1   34.11    1.27
   7   7   1   35.54    1.45
   7   7   1   35.86    1.48
   7  -7  -1   32.42    1.40
  -7  -7   1   34.64    1.48
   7  -7  -1   34.47    1.39
   7  -7  -1   31.62    1.86
  -7   7  -1   35.01    1.23
  -7  -7   1   37.23    1.47
   7  -7  -1   34.57    1.38
  -7  -7   1   35.79    1.73
   7   7   1   33.68    1.32
  -7   8   1    6.38    0.50
   7  -8   1    5.51    0.54
   7   8  -1    6.92    0.52
  -7   8   1    5.59    0.51
  -7  -8  -1    6.42    0.60
   7   8  -1    6.21    0.52
  -7  -8  -1    6.18    0.81
   7  -8   1    5.68    0.49
   7  -8  -1    7.30    0.58
   7   8   1    5.83    0.44
  -7  -8   1    7.18    0.75
   7   8   1    5.27    0.47
  -7   8  -1    6.28    0.59
   7  -8  -1    7.22    0.60
   7   8   1    6.15    0.54
   7  -8  -1    6.71    0.55
  -7  -8   1    7.08    0.59
   7   8   1    4.91    0.52
   7   8   1    6.33    0.57
  -7   8  -1    7.35    0.51
  -7  -9  -1    0.98    0.30
   7  -9   1    0.80    0.26
   7   9  -1    1.57    0.32
   7  -9   1    1.08    0.25
  -7  -9  -1    0.94    0.47
  -7  -9  -1    1.15    0.26
  -7   9   1    1.05    0.27
  -7   9   1    1.12    0.24
  -7  -9   1    1.27    0.34
   7   9   1    1.18    0.31
  -7  -9   1    1.47    0.46
   7   9   1    1.27    0.30
  -7   9  -1    1.10    0.30
   7  -9  -1    1.84    0.34
   7  -9  -1    1.86    0.34
   7  -9  -1    1.31    0.29
   7   9   1    0.97    0.22
  -7   9  -1    1.02    0.25
  -7  -9   1    0.82    0.24
  -7 -10  -1    0.20    0.21
  -7 -10  -1    0.16    0.16
   7 -10   1    0.04    0.15
   7  10  -1    0.31    0.18
   7 -10   1    0.29    0.22
  -7  10   1    0.49    0.17
   7 -10  -1    0.43    0.18
  -7  10  -1    0.01    0.17
   7 -10  -1    0.17    0.24
  -7 -10   1    0.06    0.15
  -7 -10   1    0.35    0.20
   7  10   1   -0.06    0.15
  -7  10  -1    0.07    0.17
   7  10   1    0.15    0.15
  -7  11   1    1.27    0.19
   7  11  -1    1.52    0.23
  -7 -11  -1    1.42    0.21
  -7 -11   1    1.48    0.28
   7  11   1    1.71    0.25
  -7 -11   1    1.26    0.21
  -7  11  -1    1.41    0.20
   7 -11  -1    1.15    0.18
   7  11   1    1.37    0.19
  -7   0   2    0.48    0.19
  -7   0   2    0.45    0.21
   7   0   2    0.58    0.20
   7   0   2    0.42    0.22
  -7   0   2    0.64    0.23
   7   0   2    0.51    0.15
   7   0  -2    0.51    0.25
   7   0  -2    0.65    0.17
   7   0  -2    0.58    0.22
  -7   0   2    0.36    0.15
   7   0   2    0.62    0.24
  -7   0  -2    0.54    0.14
  -7   0   2    0.32    0.18
  -7   0  -2    0.53    0.20
  -7   0   2    0.63    0.21
   7   0  -2    0.46    0.23
   7   1  -2   12.86    0.63
  -7  -1  -2   13.45    0.64
   7  -1   2   14.25    0.89
  -7   1   2   14.99    0.84
  -7  -1  -2   14.16    0.66
   7   1  -2   13.96    0.86
  -7   1   2   13.98    0.76
  -7  -1  -2   13.42    0.67
   7   1  -2   13.65    0.83
   7  -1   2   13.55    0.64
   7  -1   2   14.52    0.88
  -7   1   2   14.65    0.78
  -7   1   2   15.86    0.76
   7  -1   2   14.65    0.89
  -7   1   2   15.98    0.79
  -7  -1  -2   14.52    0.82
   7  -1  -2   13.39    0.89
   7  -1  -2   13.81    0.90
   7   1   2   14.13    0.66
  -7  -1   2   14.52    0.78
   7   1   2   15.51    0.92
  -7   1  -2   14.10    0.73
   7   1   2   14.62    0.80
  -7  -1   2   14.26    0.68
  -7  -1   2   14.42    0.76
   7  -1  -2   13.75    0.86
   7  -1  -2   13.02    0.69
  -7  -1   2   14.73    0.83
  -7  -1   2   15.20    0.82
  -7  -1   2   15.10    0.85
  -7   1  -2   13.49    0.78
  -7   2   2   32.45    1.30
  -7   2   2   31.17    1.25
  -7   2   2   31.95    1.30
  -7   2   2   32.67    1.48
   7  -2   2   28.04    1.12
   7  -2   2   31.54    1.52
  -7  -2  -2   31.47    1.26
   7  -2   2   31.47    1.56
  -7  -2  -2   31.59    1.29
   7   2  -2   32.77    1.44
  -7   2   2   33.03    1.27
   7  -2   2   31.63    1.49
   7  -2   2   31.75    1.35
   7   2  -2   29.39    1.39
   7  -2   2   31.14    1.16
  -7  -2  -2   31.60    1.26
  -7  -2  -2   32.24    1.40
  -7  -2   2   30.45    1.39
   7  -2  -2   31.42    1.53
  -7  -2   2   32.57    1.40
  -7  -2   2   30.69    1.33
  -7  -2   2   32.70    1.37
  -7   2  -2   32.70    1.39
   7  -2  -2   30.89    1.30
   7   2   2   31.09    1.19
   7  -2  -2   31.15    1.51
   7   2   2   32.47    1.54
   7  -2  -2   30.75    1.26
   7  -2  -2   30.85    1.60
  -7  -2   2   31.50    1.47
   7  -3   2   85.03    2.78
  -7   3   2   88.74    2.96
   7  -3   2   85.23    2.72
   7  -3   2   89.03    2.98
   7  -3   2   87.98    3.55
  -7  -3  -2   91.53    3.05
   7  -3   2   87.81    3.38
  -7  -3  -2   89.59    3.05
   7   3  -2   90.72    3.28
   7  -3   2   86.83    3.32
   7  -3   2   87.29    2.98
  -7  -3  -2   91.33    3.23
  -7  -3  -2   87.57    2.96
   7  -3  -2   88.76    3.38
  -7   3  -2   90.31    3.35
  -7  -3   2   83.19    3.06
   7   3   2   86.07    3.38
  -7  -3   2   87.76    3.07
  -7  -3   2   88.50    3.43
   7  -3  -2   88.23    3.39
   7  -3  -2   91.63    3.05
   7  -3  -2   85.17    2.98
  -7  -3   2   86.87    3.09
   7   3   2   87.11    2.83
  -7  -3   2   88.35    3.04
   7   3   2   83.55    2.72
   7  -3  -2   88.15    3.60
  -7   3  -2   85.58    3.02
   7  -4   2   17.04    1.16
  -7  -4  -2   16.64    1.01
  -7  -4  -2   17.34    1.01
   7  -4   2   16.34    1.19
   7  -4   2   17.91    0.99
   7  -4   2   15.64    0.79
   7  -4   2   16.72    0.99
  -7   4   2   17.77    0.81
   7   4  -2   16.70    0.78
  -7  -4  -2   17.79    0.97
  -7  -4  -2   16.98    1.03
   7  -4   2   17.55    0.78
  -7  -4  -2   17.20    0.83
   7  -4   2   16.09    1.07
   7  -4  -2   17.14    0.91
  -7  -4   2   17.16    0.97
  -7  -4   2   17.48    1.03
  -7  -4   2   18.08    1.11
   7   4   2   16.35    0.80
  -7   4  -2   16.93    0.94
   7  -4  -2   16.31    1.20
   7  -4  -2   18.87    1.07
  -7  -4   2   16.95    1.05
   7   4   2   15.71    0.79
  -7   4  -2   18.08    1.04
   7  -4  -2   17.93    1.15
   7  -4  -2   19.05    1.22
  -7  -4   2   17.36    0.85
  -7  -4   2   16.03    1.06
   7   5  -2    7.98    0.53
   7  -5   2    7.67    0.80
   7  -5   2    8.21    0.76
   7  -5   2    8.11    0.88
   7  -5   2    7.34    0.53
  -7  -5  -2    7.75    0.84
  -7  -5  -2    8.24    0.75
  -7  -5  -2    7.30    0.69
  -7  -5  -2    6.17    0.72
   7  -5   2    7.90    1.03
   7   5   2    7.34    0.53
   7  -5  -2    7.51    0.89
   7  -5  -2    6.66    0.61
   7  -5  -2    8.72    0.90
  -7  -5   2    7.31    0.76
   7   5   2    6.83    0.51
  -7   5  -2    7.98    0.65
  -7  -5   2    6.96    0.70
  -7  -5   2    7.12    0.54
   7  -5  -2    7.46    0.80
   7  -5  -2    7.85    0.57
   7  -5  -2    8.68    0.78
  -7  -5   2    6.06    0.77
  -7  -5   2    7.60    0.70
  -7   5  -2    8.07    0.75
  -7  -5   2    7.09    0.74
   7  -6   2   51.35    2.45
  -7  -6  -2   54.23    2.43
   7  -6   2   51.56    2.32
   7  -6   2   53.34    1.93
  -7  -6  -2   53.47    2.37
  -7  -6   2   52.46    1.90
  -7   6  -2   54.38    2.15
   7  -6  -2   53.67    2.10
  -7  -6   2   52.20    2.17
  -7  -6   2   50.02    2.33
   7   6   2   53.07    1.94
   7  -6  -2   52.87    1.85
   7  -6  -2   56.78    2.52
   7  -6  -2   55.67    1.98
  -7  -6   2   52.72    2.00
   7   6   2   51.20    1.93
   7  -6  -2   52.83    2.38
   7   7  -2    3.74    0.35
   7  -7   2    3.99    0.42
  -7   7   2    3.74    0.43
   7  -7   2    3.75    0.74
   7   7  -2    3.54    0.43
   7   7  -2    3.77    0.45
   7  -7   2    3.65    0.39
  -7   7   2    3.45    0.42
   7  -7   2    3.86    0.49
   7  -7  -2    3.67    0.48
  -7  -7   2    3.71    0.48
   7   7   2    4.65    0.54
   7   7   2    4.54    0.51
   7  -7  -2    3.61    0.70
   7   7   2    4.19    0.51
  -7  -7   2    4.63    0.54
  -7  -7   2    3.97    0.58
   7   7   2    3.30    0.34
  -7   7  -2    3.82    0.42
  -7   7  -2    3.75    0.52
   7   7   2    3.79    0.44
   7  -7  -2    3.91    0.54
   7   7   2    3.37    0.43
   7  -7  -2    3.87    0.46
   7  -8   2   12.06    0.76
  -7   8   2   10.85    0.59
   7   8  -2   11.68    0.69
  -7  -8  -2   11.42    0.77
  -7  -8  -2   11.10    1.04
   7  -8   2   11.20    0.61
  -7   8   2   10.06    0.62
   7  -8   2   11.25    0.63
   7  -8  -2   11.66    0.76
   7  -8  -2   10.95    0.69
   7   8   2   11.44    0.65
  -7  -8   2   10.53    0.64
  -7  -8   2   12.05    0.77
   7   8   2   11.91    0.76
   7   8   2   11.17    0.71
  -7   8  -2   12.06    0.79
  -7  -8   2   12.28    0.90
   7   8   2   10.06    0.65
   7  -8  -2   10.60    0.67
   7   8   2   11.35    0.57
  -7   8  -2   12.44    0.66
  -7   9   2    1.56    0.27
  -7  -9  -2    1.15    0.43
   7   9  -2    1.08    0.26
   7  -9   2    1.19    0.23
   7  -9   2    0.85    0.27
  -7  -9  -2    1.08    0.31
   7  -9   2    1.36    0.23
  -7  -9   2    1.51    0.26
   7   9   2    1.40    0.33
   7  -9  -2    0.67    0.25
   7   9   2    1.23    0.30
   7   9   2    0.82    0.24
  -7   9  -2    1.13    0.27
   7  -9  -2    1.68    0.31
   7   9   2    1.44    0.24
  -7   9  -2    1.05    0.30
  -7  -9   2    1.14    0.31
   7  10  -2    0.10    0.17
  -7  10   2    0.14    0.15
   7 -10   2    0.00    0.19
  -7 -10  -2    0.00    0.19
  -7 -10  -2    0.33    0.18
   7 -10  -2    0.34    0.20
   7 -10  -2    0.12    0.17
   7  10   2    0.08    0.12
  -7 -10   2   -0.07    0.23
  -7  10  -2    0.28    0.19
   7  10   2    0.19    0.18
  -7  10  -2    0.27    0.17
  -7 -10   2    0.04    0.14
   7  10   2    0.22    0.15
   7  11  -2    2.09    0.25
  -7  11   2    1.87    0.21
  -7 -11   2    2.07    0.29
   7  11   2    1.96    0.19
  -7 -11   2    1.76    0.21
   7  11   2    2.24    0.26
  -7  11  -2    1.77    0.22
   7 -11  -2    1.90    0.22
  -7   0   3    0.26    0.18
  -7   0  -3   -0.03    0.18
  -7   0   3    0.53    0.19
   7   0  -3   -0.04    0.17
  -7   0   3    0.20    0.18
  -7   0   3    0.59    0.25
  -7   0   3    0.06    0.21
   7   0   3    0.09    0.18
   7   0  -3    0.29    0.23
   7   0   3    0.32    0.22
  -7   0  -3    0.27    0.10
   7   0  -3    0.20    0.16
   7   0   3    0.13    0.12
   7   0   3    0.10    0.15
   7   0   3    0.23    0.19
   7   0  -3    0.16    0.19
   7   0  -3    0.07    0.21
   7  -1   3   11.55    0.59
  -7   1   3   12.09    0.63
   7   1  -3   11.74    0.73
   7  -1   3   12.06    0.75
  -7   1   3   12.07    0.73
  -7   1   3   12.67    0.71
   7  -1   3   11.53    0.80
   7   1  -3   11.32    0.64
   7  -1   3   12.84    0.82
   7   1  -3   11.77    0.86
   7   1  -3   10.69    0.81
  -7  -1  -3   11.17    0.74
   7  -1   3   11.79    0.59
  -7   1   3   12.28    0.75
   7  -1   3   12.40    0.85
  -7  -1   3   12.19    0.79
   7   1   3   11.00    0.57
   7  -1  -3   11.74    0.78
   7  -1  -3   10.79    0.86
   7   1   3   11.87    0.84
   7  -1  -3   11.68    0.78
  -7  -1   3   11.98    0.77
   7  -1  -3   12.16    0.89
  -7  -1   3   11.56    0.68
  -7  -1   3   11.17    0.61
   7   1   3   11.34    0.74
   7   1   3   11.56    0.59
  -7  -1   3   12.39    0.76
   7  -1  -3   10.66    0.66
  -7   1  -3   10.92    0.60
  -7  -1   3   11.99    0.78
  -7   2   3   32.83    1.42
  -7   2   3   32.46    1.21
   7  -2   3   32.47    1.56
   7  -2   3   32.96    1.43
  -7   2   3   33.79    1.39
  -7  -2  -3   30.49    1.42
   7  -2   3   34.27    1.58
  -7  -2  -3   30.91    1.29
   7   2  -3   30.21    1.51
   7  -2   3   30.99    1.21
   7   2  -3   30.44    1.25
   7  -2   3   33.95    1.66
  -7  -2  -3   30.68    1.31
   7  -2   3   32.00    1.19
   7   2   3   31.10    1.18
  -7  -2   3   33.24    1.52
   7   2   3   33.27    1.23
  -7  -2   3   31.31    1.32
  -7   2  -3   30.54    1.38
   7  -2  -3   30.72    1.34
   7  -2  -3   31.71    1.70
  -7  -2   3   33.22    1.44
   7  -2  -3   32.70    1.55
   7  -2  -3   31.32    1.53
   7   2   3   32.57    1.59
  -7  -2   3   34.02    1.48
  -7  -2   3   33.70    1.49
   7  -2  -3   30.84    1.60
  -7  -2   3   33.90    1.27
   7   3  -3   87.69    2.85
   7  -3   3   88.52    3.61
   7  -3   3   84.30    2.80
  -7  -3  -3   87.41    2.98
  -7  -3  -3   90.19    3.06
   7  -3   3   88.41    3.37
  -7   3   3   85.86    2.95
   7  -3   3   87.93    3.02
   7  -3   3   85.24    2.73
   7  -3   3   88.35    3.36
  -7   3   3   85.47    3.02
  -7  -3  -3   87.11    3.05
   7  -3   3   89.33    3.05
   7  -3  -3   83.13    3.63
   7   3   3   88.80    3.44
   7  -3  -3   87.55    3.09
   7  -3  -3   88.11    3.39
  -7   3  -3   86.60    3.32
  -7  -3   3   84.78    3.07
   7  -3  -3   92.29    3.47
   7  -3  -3   87.24    3.04
  -7  -3   3   84.72    2.86
   7  -3  -3   88.15    3.43
  -7  -3   3   87.64    3.15
   7   3   3   84.76    2.73
   7   3   3   87.06    2.83
  -7  -3   3   90.62    3.05
  -7  -3   3   84.70    3.10
   7  -4   3   22.82    1.33
   7  -4   3   23.52    1.21
  -7  -4  -3   20.37    1.17
  -7  -4  -3   21.95    1.21
   7  -4   3   21.78    0.94
  -7  -4  -3   20.30    1.07
  -7  -4  -3   21.51    1.19
   7  -4   3   22.65    1.33
  -7  -4  -3   20.46    0.96
   7  -4   3   22.47    1.21
   7  -4   3   21.88    1.43
   7  -4   3   22.74    0.98
  -7  -4  -3   22.37    1.38
  -7  -4   3   21.58    1.28
  -7   4  -3   21.03    1.12
  -7  -4   3   20.78    1.22
   7  -4  -3   21.64    1.35
   7  -4  -3   21.44    1.23
  -7  -4   3   22.57    1.03
   7  -4  -3   22.75    1.00
  -7  -4   3   22.65    1.13
  -7   4  -3   21.45    1.20
   7   4   3   21.36    0.96
  -7  -4   3   22.59    1.27
   7   4   3   21.66    0.96
   7  -4  -3   21.05    1.33
   7  -4  -3   19.62    1.42
   7  -4  -3   21.41    1.11
   7  -4  -3   20.19    1.25
   7  -5   3   15.05    1.20
   7  -5   3   15.83    1.10
   7  -5   3   16.41    0.85
   7  -5   3   16.03    1.34
   7  -5   3   16.82    0.82
  -7  -5  -3   15.08    1.10
  -7  -5  -3   16.71    1.12
  -7  -5  -3   17.83    1.30
  -7  -5  -3   16.77    1.03
   7  -5   3   17.28    1.10
   7  -5   3   16.81    1.18
  -7  -5   3   16.01    1.13
  -7  -5   3   18.52    1.21
  -7  -5   3   18.11    0.93
   7   5   3   16.66    0.84
  -7  -5   3   17.78    1.17
  -7   5  -3   16.99    1.01
   7  -5  -3   17.20    0.88
   7  -5  -3   15.84    1.12
   7  -5  -3   17.20    1.21
   7  -5  -3   16.89    1.34
   7  -5  -3   16.04    1.25
  -7   5  -3   16.52    1.12
   7   5   3   16.60    0.85
   7  -5  -3   17.25    0.99
  -7  -5   3   17.10    0.97
  -7  -6  -3   63.27    2.69
   7   6  -3   60.73    2.04
   7  -6   3   62.95    2.82
  -7   6   3   60.39    2.07
   7  -6   3   63.33    2.68
   7  -6   3   66.25    2.24
   7   6  -3   59.45    2.02
   7  -6   3   64.23    1.95
  -7  -6  -3   61.78    2.71
  -7   6   3   62.18    2.02
   7  -6  -3   57.51    2.64
   7   6   3   60.66    1.67
  -7  -6   3   64.33    2.32
  -7  -6   3   60.46    2.40
   7   6   3   66.35    2.26
  -7  -6   3   57.67    2.66
   7   6   3   64.62    2.21
   7  -6  -3   62.23    2.43
   7  -6  -3   64.26    2.25
   7   6   3   59.83    2.06
  -7   6  -3   64.38    2.48
   7  -6  -3   64.91    3.00
  -7   7   3   27.48    1.08
  -7   7   3   27.93    1.05
   7   7  -3   28.64    1.07
   7  -7   3   28.26    1.10
   7  -7   3   27.93    1.26
   7  -7   3   28.46    1.71
   7  -7   3   27.82    1.01
   7   7  -3   30.01    1.18
   7   7   3   27.92    1.20
   7   7   3   26.48    0.92
   7   7   3   26.77    1.24
  -7  -7   3   28.48    1.39
   7   7   3   27.02    1.14
   7  -7  -3   30.22    1.30
  -7   7  -3   28.06    1.40
   7   7   3   28.21    1.26
   7   7   3   27.96    1.08
  -7  -7   3   28.22    1.31
   7  -7  -3   27.10    1.71
  -7   7  -3   27.82    1.05
   7  -7  -3   28.00    1.37
  -7   8   3   18.85    0.82
  -7   8   3   17.86    0.63
  -7  -8  -3   16.19    0.92
   7  -8   3   17.97    0.96
   7  -8   3   18.65    0.82
   7   8  -3   15.87    0.84
   7   8  -3   15.99    0.68
   7  -8   3   18.12    0.70
   7  -8  -3   16.36    0.87
   7   8   3   17.91    0.97
   7  -8  -3   16.11    0.98
   7   8   3   17.36    0.68
   7   8   3   17.96    0.90
   7   8   3   17.26    0.86
  -7  -8   3   17.03    0.96
  -7   8  -3   18.07    0.80
   7  -8  -3   16.89    0.94
  -7  -8   3   17.16    0.83
   7   8   3   17.73    0.81
   7  -9   3    1.42    0.26
   7   9  -3    1.46    0.29
  -7   9   3    2.00    0.30
   7  -9   3    2.17    0.40
  -7  -9  -3    1.86    0.29
  -7  -9  -3    1.35    0.30
   7   9   3    2.01    0.36
  -7   9  -3    1.87    0.34
  -7  -9   3    1.87    0.40
   7  -9  -3    2.09    0.35
   7  -9  -3    1.39    0.27
   7   9   3    1.89    0.32
  -7  -9   3    1.78    0.30
   7   9   3    1.77    0.35
   7   9   3    1.67    0.24
  -7   9  -3    1.68    0.28
   7  10  -3    1.71    0.28
  -7  10   3    1.44    0.23
   7 -10   3    1.68    0.26
   7  10   3    1.83    0.28
   7 -10  -3    1.60    0.26
  -7  10  -3    1.26    0.27
  -7 -10   3    1.76    0.27
   7 -10  -3    2.34    0.32
  -7  10  -3    1.93    0.26
  -7 -10   3    2.05    0.33
   7  10   3    1.74    0.27
   7  10   3    1.71    0.22
   7  10   3    1.70    0.31
   7  11  -3    0.56    0.15
  -7  11   3    0.69    0.14
  -7  11  -3    0.37    0.13
  -7 -11   3    0.38    0.16
  -7 -11   3    0.66    0.14
   7  11   3    0.31    0.14
   7 -11  -3    0.14    0.14
   7   0   4    0.18    0.16
  -7   0   4    0.20    0.15
   7   0  -4    0.15    0.20
   7   0   4    0.16    0.15
  -7   0   4    0.19    0.22
   7   0  -4    0.31    0.22
   7   0   4    0.06    0.25
   7   0  -4    0.21    0.24
   7   0   4    0.08    0.19
   7   0  -4    0.04    0.24
   7   0   4    0.02    0.22
  -7   0   4    0.29    0.23
  -7   0   4    0.24    0.22
  -7  -1  -4   30.48    1.42
   7  -1   4   33.67    1.48
   7   1  -4   33.35    1.54
   7  -1   4   31.87    1.55
   7  -1   4   33.50    1.58
   7  -1   4   32.19    1.23
   7   1  -4   31.06    1.33
  -7   1   4   30.21    1.42
   7  -1   4   31.80    1.64
  -7   1   4   32.30    1.47
   7   1  -4   33.05    1.75
   7   1  -4   29.73    1.59
   7  -1   4   31.25    1.18
  -7   1  -4   31.56    1.28
   7   1   4   30.58    1.21
  -7  -1   4   33.92    1.52
   7  -1  -4   31.37    1.64
  -7  -1   4   31.05    1.22
   7  -1  -4   31.29    1.71
  -7  -1   4   31.64    1.43
   7  -1  -4   27.03    1.36
   7  -1  -4   30.86    1.36
   7   1   4   31.41    1.18
   7   1   4   32.35    1.50
   7  -1  -4   33.24    1.57
  -7  -1   4   31.95    1.23
   7   1   4   32.15    1.58
  -7  -1   4   31.49    1.47
  -7  -2  -4   50.00    2.04
   7   2  -4   49.89    2.25
   7  -2   4   53.65    1.83
  -7   2   4   52.29    2.03
   7  -2   4   51.05    1.74
   7  -2   4   52.63    2.22
   7  -2   4   52.56    2.25
   7  -2   4   49.31    2.35
  -7   2   4   54.27    2.10
   7  -2   4   50.90    2.06
   7  -2  -4   49.14    2.16
  -7  -2   4   52.16    2.08
   7  -2  -4   50.30    2.05
   7   2   4   51.30    1.75
   7   2   4   54.31    2.30
   7  -2  -4   46.61    2.40
  -7  -2   4   54.51    1.87
   7  -2  -4   49.75    2.24
  -7   2  -4   48.07    2.02
  -7  -2   4   54.50    2.12
   7   2   4   50.91    1.81
   7  -2  -4   49.67    2.31
   7  -2  -4   49.60    1.98
  -7  -2   4   52.39    1.84
  -7  -2   4   55.44    2.17
   7  -3   4   24.38    1.03
   7  -3   4   24.98    1.06
   7  -3   4   24.98    1.43
   7   3  -4   24.98    1.12
  -7   3   4   26.03    1.30
  -7   3   4   24.06    1.25
   7  -3   4   24.61    1.37
   7  -3   4   24.99    1.26
   7  -3   4   24.28    1.52
  -7  -3  -4   24.17    1.27
  -7  -3  -4   22.36    1.22
   7  -3   4   24.85    1.29
  -7  -3  -4   23.02    1.21
   7   3   4   25.29    1.06
  -7  -3   4   26.60    1.12
  -7  -3   4   24.63    1.31
   7  -3  -4   24.62    1.58
   7  -3  -4   25.39    1.38
  -7  -3   4   24.67    1.35
   7  -3  -4   25.54    1.40
  -7  -3   4   25.85    1.11
   7  -3  -4   24.62    1.31
   7   3   4   24.13    1.44
   7   3   4   24.86    1.04
   7  -3  -4   24.56    1.20
  -7   3  -4   24.78    1.24
   7   3   4   24.24    1.03
  -7  -3   4   23.80    1.32
   7  -3  -4   24.43    1.06
   7  -3  -4   26.06    1.50
   7   4  -4    9.68    0.61
   7  -4   4    7.79    0.91
   7  -4   4    8.10    0.55
  -7  -4  -4    9.36    0.83
   7  -4   4    8.46    0.78
  -7  -4  -4    8.57    0.90
   7  -4   4    8.38    0.57
   7  -4   4    8.92    0.79
   7  -4   4    7.82    0.81
  -7  -4  -4    9.13    0.82
   7  -4  -4    8.99    0.81
  -7  -4   4    6.44    0.78
  -7  -4   4    7.82    0.59
  -7  -4   4    6.82    0.84
  -7  -4   4    6.04    0.77
   7  -4  -4    8.54    0.81
   7   4   4    7.09    0.54
  -7   4  -4    9.05    0.77
   7  -4  -4    6.75    0.94
   7  -4  -4   10.74    0.94
  -7  -4   4    7.97    0.62
   7   4   4    8.11    0.56
  -7   4  -4    9.33    0.73
   7  -4  -4    9.54    0.91
   7  -4  -4    8.55    0.57
   7  -4  -4    9.13    0.71
   7  -5   4   23.56    1.40
  -7  -5  -4   27.22    1.35
   7  -5   4   25.67    1.47
   7  -5   4   24.98    1.57
  -7  -5  -4   24.65    1.45
   7  -5   4   25.43    1.15
   7  -5   4   25.95    1.14
   7  -5  -4   25.96    1.58
  -7  -5   4   26.43    1.22
  -7   5  -4   28.04    1.38
   7  -5  -4   28.69    1.37
   7  -5  -4   26.03    1.18
   7  -5  -4   26.09    1.52
  -7  -5   4   24.20    1.49
  -7   5  -4   28.27    1.53
  -7  -5   4   26.99    1.21
   7   5   4   24.19    1.13
   7   5   4   25.68    1.13
   7  -6   4   17.19    0.83
  -7   6   4   18.49    0.81
   7   6  -4   18.40    0.88
   7  -6   4   17.08    1.28
   7  -6   4   19.16    1.36
   7  -6   4   16.91    0.77
   7   6  -4   17.17    0.87
   7  -6   4   18.24    0.95
   7  -6   4   17.75    0.91
  -7  -6  -4   17.74    1.34
  -7   6   4   17.61    0.88
  -7   6   4   17.94    0.73
   7   6   4   18.51    0.96
  -7   6  -4   17.97    1.11
   7   6   4   17.73    0.87
  -7  -6   4   18.30    0.83
   7   6   4   17.91    0.63
   7  -6  -4   16.60    1.05
   7   6   4   16.98    0.88
   7  -6  -4   16.88    1.29
   7   6   4   17.96    0.82
   7  -6  -4   16.64    0.93
   7   6   4   18.47    0.95
  -7  -6   4   18.45    0.99
   7   7  -4    6.98    0.55
   7  -7   4    8.01    0.63
   7  -7   4    9.55    1.16
   7  -7   4    8.35    0.56
  -7   7   4    7.83    0.53
   7  -7  -4    6.12    0.95
   7   7   4    7.24    0.57
  -7  -7   4    7.87    0.66
  -7   7  -4    5.76    0.72
   7  -7  -4    6.57    0.70
  -7  -7   4    8.40    0.57
   7  -7  -4    6.84    0.61
   7   7   4    7.73    0.41
   7   7   4    9.02    0.66
   7   7   4    8.03    0.63
   7   7   4    7.79    0.57
  -7   7  -4    6.30    0.47
  -7  -7   4    8.37    0.68
  -7  -8  -4   17.73    0.96
   7  -8   4   18.31    0.99
  -7   8   4   19.15    0.83
   7  -8   4   19.22    0.86
   7   8  -4   18.80    0.79
   7   8  -4   19.67    0.91
  -7   8  -4   18.59    1.07
   7   8   4   19.38    0.69
   7   8   4   19.38    1.00
   7  -8  -4   18.31    0.91
   7  -8  -4   18.27    0.96
   7   8   4   18.54    0.92
  -7  -8   4   18.37    1.01
  -7  -8   4   18.16    0.86
  -7   8  -4   17.89    0.82
   7   8   4   18.51    0.89
  -7  -8   4   18.91    0.98
   7  -8  -4   18.22    1.05
  -7  -9  -4    0.48    0.25
   7  -9   4    0.10    0.21
   7  -9   4    0.41    0.18
  -7   9   4    0.28    0.18
   7   9  -4    0.69    0.22
  -7   9  -4    0.48    0.27
   7   9   4    0.36    0.20
  -7   9  -4    0.56    0.20
  -7  -9   4    0.57    0.20
   7  -9  -4    0.62    0.21
   7   9   4    0.66    0.26
   7   9   4    0.72    0.15
  -7  -9   4    0.93    0.26
   7   9   4    0.70    0.24
   7  -9  -4    0.78    0.25
  -7  10   4    1.31    0.21
   7 -10   4    1.09    0.21
   7  10  -4    1.75    0.26
   7 -10  -4    1.31    0.23
   7  10   4    1.22    0.16
  -7  10  -4    1.32    0.22
  -7  10  -4    1.30    0.26
   7  10   4    1.32    0.24
  -7 -10   4    1.37    0.22
   7 -10  -4    1.06    0.28
   7  10   4    1.02    0.22
   7  10   4    1.56    0.29
  -7 -10   4    1.40    0.23
  -7  11   4    9.66    0.40
   7  11   4   10.25    0.46
  -7  11  -4   10.50    0.42
   7 -11  -4    9.96    0.48
  -7 -11   4    9.78    0.42
   7   0   5    0.37    0.18
  -7   0   5    0.00    0.24
  -7   0   5    0.15    0.24
   7   0   5    0.46    0.28
   7   0   5    0.29    0.24
   7   0  -5    0.30    0.29
   7   0   5    0.06    0.23
   7   0  -5    0.27    0.22
   7   0   5    0.27    0.17
  -7   0   5    0.17    0.23
   7   0  -5    0.27    0.23
   7   0  -5    0.08    0.28
   7   0   5    0.10    0.31
  -7   1   5   29.89    1.50
   7  -1   5   30.83    1.53
  -7  -1  -5   30.17    1.46
   7  -1   5   29.31    1.21
  -7   1   5   28.60    1.46
   7   1  -5   30.12    1.65
   7   1  -5   29.92    1.55
   7   1  -5   30.01    1.35
   7  -1   5   30.36    1.17
   7  -1   5   30.40    1.69
   7  -1   5   28.56    1.44
   7  -1   5   30.53    1.57
  -7  -1   5   30.48    1.54
  -7  -1   5   30.31    1.21
   7   1   5   28.85    1.55
   7  -1  -5   29.40    1.73
   7   1   5   29.00    1.20
   7   1   5   30.17    1.52
   7   1   5   29.04    1.15
  -7  -1   5   29.87    1.49
  -7  -1   5   28.66    1.41
   7  -1  -5   30.14    1.37
   7  -1  -5   31.82    1.59
   7  -1  -5   31.93    1.69
  -7   2   5   70.60    2.74
   7  -2   5   70.23    2.40
  -7  -2  -5   70.02    2.67
   7  -2   5   69.21    2.30
   7   2  -5   72.33    2.59
   7   2  -5   73.00    2.99
  -7   2   5   69.49    2.67
   7  -2   5   71.53    3.13
   7  -2   5   71.34    2.93
   7  -2   5   68.12    2.68
  -7  -2   5   68.05    2.75
  -7  -2   5   67.52    2.66
   7   2   5   67.32    2.27
  -7   2  -5   71.47    2.72
   7   2   5   68.59    2.38
   7  -2  -5   72.73    2.72
  -7  -2   5   70.61    2.42
   7   2   5   70.76    2.38
   7  -2  -5   72.39    2.98
  -7  -2   5   67.42    2.71
   7  -2  -5   72.44    3.02
   7  -2  -5   71.40    2.63
   7   2   5   68.32    2.93
   7  -2  -5   69.60    3.20
   7  -2  -5   72.54    2.36
   7  -3   5    9.32    0.89
   7  -3   5    8.04    0.55
   7  -3   5    8.86    0.78
  -7   3   5    7.80    0.87
   7   3  -5    8.24    0.65
   7  -3   5    7.90    0.93
   7  -3   5    8.49    0.58
  -7   3   5    8.35    0.79
   7  -3   5    8.56    0.94
  -7  -3  -5    8.51    0.90
  -7  -3   5    6.61    0.82
   7  -3  -5    8.61    0.88
   7  -3  -5    8.48    0.69
  -7  -3   5    8.87    0.82
   7  -3  -5    9.81    0.81
   7  -3  -5    7.43    0.55
   7   3   5    8.18    0.54
   7  -3  -5    8.35    1.11
   7  -3  -5    8.18    0.79
  -7  -3   5    8.38    0.59
   7   3   5    8.15    0.55
  -7   3  -5    8.46    0.67
  -7  -3   5    8.68    0.83
   7   4  -5   63.27    2.33
   7  -4   5   63.85    2.68
  -7  -4  -5   59.99    2.53
  -7  -4  -5   61.75    2.58
   7  -4   5   65.45    2.27
  -7   4   5   64.69    2.63
  -7  -4  -5   62.08    2.91
   7  -4   5   62.62    2.80
   7  -4   5   64.34    2.61
   7  -4   5   62.81    2.17
   7  -4  -5   61.33    2.83
   7   4   5   64.88    2.17
  -7   4  -5   61.38    2.67
   7  -4  -5   61.50    2.79
  -7  -4   5   64.78    2.31
   7   4   5   64.78    2.22
   7  -4  -5   62.61    2.47
   7  -4  -5   63.14    2.22
   7  -4  -5   62.35    2.64
  -7  -4   5   62.33    2.68
   7  -5   5   40.76    1.57
   7   5  -5   38.68    1.45
   7  -5   5   42.47    1.62
   7  -5   5   38.88    2.09
   7  -5   5   44.41    1.52
   7  -5   5   38.95    1.31
  -7   5   5   41.77    1.25
  -7   5   5   40.22    1.48
   7  -5   5   39.46    1.40
   7  -5   5   40.93    2.00
  -7  -5  -5   37.00    1.97
  -7   5   5   38.02    1.33
   7  -5   5   39.35    1.28
  -7   5  -5   38.44    2.00
  -7   5  -5   40.16    1.87
   7  -5  -5   39.37    1.80
   7  -5  -5   38.26    1.57
   7   5   5   41.84    1.57
  -7  -5   5   39.50    1.49
   7  -5  -5   37.36    1.97
   7   5   5   39.75    1.48
   7  -5  -5   38.47    2.10
   7   5   5   39.65    1.59
   7   5   5   39.72    1.07
  -7  -5   5   41.45    1.67
  -7  -5   5   35.74    1.97
   7  -6   5   27.37    1.22
   7  -6   5   25.54    1.70
   7  -6   5   25.11    1.06
   7  -6   5   25.65    1.00
   7  -6   5   24.39    1.59
   7  -6   5   26.07    0.97
   7  -6   5   24.66    1.18
   7   6  -5   24.29    1.09
   7   6  -5   26.48    1.14
  -7   6   5   26.62    1.04
  -7  -6   5   25.45    1.25
   7   6   5   27.02    1.20
   7  -6  -5   25.87    1.37
   7  -6  -5   26.27    1.64
  -7  -6   5   24.61    1.14
   7   6   5   26.81    1.15
   7  -6  -5   28.27    1.25
   7   6   5   24.64    0.78
   7   6   5   27.73    1.23
   7   6   5   25.22    1.11
  -7   6  -5   27.49    1.45
  -7  -6   5   26.33    1.02
   7  -7   5   16.77    0.93
   7   7  -5   15.24    0.80
   7  -7   5   15.81    0.80
   7   7   5   16.67    0.93
   7   7   5   15.84    0.85
   7   7   5   16.35    0.84
   7  -7  -5   15.89    1.03
   7  -7  -5   16.05    0.90
  -7  -7   5   15.67    0.93
  -7  -7   5   15.77    0.85
   7   7   5   16.23    0.90
  -7  -7   5   16.42    0.80
  -7   7  -5   16.10    1.07
   7   7   5   15.98    0.58
  -7  -8  -5    4.34    0.51
   7   8  -5    4.47    0.41
   7   8  -5    4.03    0.44
  -7   8   5    4.56    0.43
   7  -8   5    4.02    0.48
   7  -8   5    4.11    0.44
   7   8   5    3.69    0.43
   7   8   5    3.68    0.48
   7   8   5    4.35    0.28
  -7   8  -5    4.12    0.40
  -7  -8   5    4.88    0.46
   7   8   5    3.69    0.45
   7  -8  -5    4.09    0.44
  -7  -8   5    3.43    0.46
   7  -8  -5    4.31    0.57
  -7   8  -5    3.47    0.58
  -7  -8   5    4.31    0.48
   7  -8  -5    5.19    0.55
   7  -9   5    2.18    0.30
   7   9  -5    1.95    0.30
   7  -9   5    2.69    0.39
  -7  -9  -5    2.16    0.35
  -7   9   5    2.23    0.29
   7   9  -5    2.32    0.22
  -7  -9   5    2.39    0.31
   7  -9  -5    1.76    0.29
  -7  -9   5    2.60    0.32
  -7   9  -5    2.46    0.32
   7   9   5    2.61    0.37
   7   9   5    2.29    0.32
   7   9   5    2.29    0.32
   7   9   5    2.28    0.21
   7  -9  -5    2.67    0.37
   7  10  -5    2.77    0.29
   7 -10   5    2.74    0.27
  -7  10   5    2.74    0.27
  -7  10  -5    2.26    0.29
  -7 -10   5    2.65    0.27
  -7 -10   5    2.90    0.24
   7  10   5    2.71    0.29
   7  10   5    2.52    0.29
   7  10   5    2.88    0.17
   7 -10  -5    1.92    0.30
   7 -10  -5    2.38    0.29
  -7  10  -5    2.19    0.26
   7   0  -6   -0.47    0.35
   7   0   6    0.17    0.26
   7   0  -6    0.28    0.26
   7   0   6    0.24    0.17
   7   0  -6   -0.10    0.29
   7   0  -6    0.08    0.22
   7   0   6    0.21    0.18
  -7   0   6    0.17    0.30
  -7   0   6    0.05    0.25
  -7   0   6    0.09    0.31
   7   0   6   -0.16    0.26
   7  -1   6    1.55    0.42
   7   1  -6    2.71    0.63
  -7   1   6    1.57    0.43
   7  -1   6    1.46    0.28
   7   1  -6    1.81    0.39
  -7   1   6    1.27    0.42
  -7   1   6    1.30    0.40
   7  -1   6    1.26    0.44
   7  -1   6    1.39    0.54
   7  -1   6    1.57    0.29
  -7  -1  -6    2.26    0.51
   7   1  -6    2.04    0.48
  -7  -1   6    1.36    0.40
   7  -1  -6    1.87    0.33
   7   1   6    2.01    0.32
  -7  -1   6    1.30    0.41
   7  -1  -6    2.48    0.63
  -7  -1   6    1.94    0.32
   7  -1  -6    1.63    0.48
   7  -1  -6    1.63    0.37
   7   1   6    2.15    0.33
   7  -1  -6    2.29    0.50
  -7  -1   6    1.26    0.42
   7   1   6    1.58    0.46
   7  -2   6   29.55    1.83
   7   2  -6   30.15    1.42
  -7   2   6   28.72    1.57
   7  -2   6   29.17    1.19
   7  -2   6   30.49    1.29
  -7   2   6   29.43    1.61
   7  -2   6   30.18    1.61
   7  -2   6   31.25    1.72
   7   2  -6   30.08    1.74
  -7  -2   6   30.42    1.26
  -7  -2   6   29.07    1.60
   7  -2  -6   28.70    1.21
   7  -2  -6   29.77    1.74
   7  -2  -6   25.28    1.79
   7  -2  -6   29.64    1.44
  -7  -2   6   28.66    1.62
   7  -2  -6   28.01    1.55
  -7  -2   6   29.76    1.55
   7   2   6   28.71    1.18
   7   2   6   31.00    1.26
  -7   2  -6   29.38    1.40
  -7   3   6   41.58    1.99
   7   3  -6   41.86    1.77
   7  -3   6   41.32    1.63
   7  -3   6   41.83    2.14
   7  -3   6   41.12    1.96
   7   3  -6   40.59    2.11
   7  -3   6   39.27    1.54
  -7  -3  -6   41.59    2.18
   7   3   6   42.03    1.55
   7  -3  -6   41.21    2.18
   7   3   6   42.03    1.59
  -7  -3   6   38.74    2.03
   7  -3  -6   43.22    2.10
  -7  -3   6   41.57    1.64
   7  -3  -6   40.51    1.98
  -7   3  -6   38.80    1.86
   7  -3  -6   40.19    1.58
   7  -3  -6   41.38    1.82
   7   4  -6    1.14    0.34
   7  -4   6    1.03    0.21
   7  -4   6    2.44    0.36
   7  -4   6    1.80    0.33
  -7   4   6    0.60    0.46
  -7   4   6    1.77    0.28
   7   4  -6    1.66    0.32
   7  -4   6    1.73    0.32
   7  -4   6    1.90    0.35
   7  -4   6    2.03    0.33
   7  -4   6    1.49    0.53
   7  -4   6    1.81    0.59
   7   4   6    2.32    0.39
  -7  -4   6    2.06    0.38
   7  -4  -6    1.72    0.35
  -7   4  -6    2.23    0.50
   7  -4  -6    1.85    0.42
  -7  -4   6    1.56    0.53
   7  -4  -6    1.88    0.51
  -7  -4   6    1.89    0.36
   7  -4  -6    2.00    0.55
   7   4   6    2.15    0.39
   7   4   6    1.76    0.33
   7  -4  -6    1.23    0.47
  -7  -4   6    1.68    0.28
   7  -4  -6    1.75    0.33
   7   5  -6    6.25    0.53
   7  -5   6    6.30    0.56
   7  -5   6    6.29    0.94
   7  -5   6    6.39    0.47
  -7   5   6    6.58    0.47
   7  -5   6    6.35    0.93
   7  -5   6    6.43    0.50
   7  -5   6    6.27    0.43
   7  -5   6    6.75    0.56
   7  -5   6    6.49    0.57
   7  -5  -6    6.63    0.79
   7   5   6    5.96    0.53
  -7  -5   6    6.46    0.51
   7   5   6    6.09    0.54
  -7  -5   6    7.32    0.62
   7   5   6    6.29    0.55
  -7   5  -6    5.32    0.71
   7   5   6    6.24    0.55
   7  -5  -6    5.70    0.54
   7  -5  -6    5.66    0.94
   7  -5  -6    5.56    0.84
   7   5   6    6.87    0.28
   7  -6   6   17.04    0.79
   7  -6   6   18.51    0.96
   7  -6   6   18.47    0.84
   7  -6   6   18.58    0.86
   7  -6   6   19.51    1.00
   7   6  -6   18.30    0.94
   7  -6   6   18.00    1.46
  -7   6   6   19.00    0.82
   7   6  -6   17.39    0.88
   7  -6   6   18.26    0.77
   7   6   6   16.11    0.86
   7   6   6   18.29    0.98
   7   6   6   18.39    0.91
   7  -6  -6   18.12    0.97
   7   6   6   18.27    0.57
   7  -6  -6   18.30    0.90
  -7  -6   6   17.85    0.84
   7  -6  -6   17.26    1.12
  -7  -6   6   18.57    1.01
  -7   6  -6   16.46    1.16
   7   6   6   18.65    0.95
  -7   7   6    8.89    0.55
   7  -7   6    9.39    0.56
   7   7  -6    9.94    0.63
   7   7  -6   10.76    0.64
   7  -7   6    9.80    0.61
  -7  -7  -6   10.42    0.70
   7  -7   6    8.06    0.64
   7  -7   6    8.93    0.69
  -7  -7   6    9.76    0.60
   7  -7  -6    9.43    0.60
   7   7   6    9.07    0.69
  -7   7  -6    9.65    0.80
   7  -7  -6   10.73    0.70
   7   7   6    9.67    0.66
  -7  -7   6    9.21    0.59
   7  -7  -6    9.07    0.78
   7   7   6    9.05    0.37
  -7  -7   6    9.03    0.70
   7   7   6    9.19    0.61
   7  -8   6    1.09    0.26
   7   8  -6    1.68    0.28
   7  -8   6    1.09    0.30
  -7  -8  -6    1.44    0.32
  -7   8   6    0.79    0.21
  -7   8   6    0.87    0.23
   7   8  -6    1.89    0.31
  -7   8  -6    1.55    0.27
  -7  -8   6    1.07    0.23
   7   8   6    0.98    0.28
   7  -8  -6    1.34    0.28
   7   8   6    0.92    0.26
   7  -8  -6    1.08    0.26
  -7  -8   6    0.86    0.22
   7   8   6    0.84    0.23
   7   9  -6    3.54    0.35
  -7   9   6    3.22    0.31
   7   9  -6    3.49    0.26
  -7   9   6    4.36    0.35
   7  -9   6    2.92    0.33
   7  -9  -6    3.06    0.36
   7  -9  -6    2.84    0.33
   7   9   6    3.14    0.36
  -7   9  -6    2.75    0.31
  -7  -9   6    3.78    0.26
   7   9   6    3.65    0.42
  -7  -9   6    3.53    0.34
   7   9   6    2.86    0.35
  -7  10   6    1.94    0.20
   7 -10   6    2.41    0.24
  -7 -10   6    2.10    0.21
  -7  10  -6    2.15    0.27
   7  10   6    2.12    0.24
  -7  10  -6    2.30    0.23
   7  10   6    2.08    0.24
   7 -10  -6    2.28    0.25
   7   0  -7   -0.47    0.28
   7   0  -7    0.31    0.27
   7   0  -7    0.41    0.33
  -7   0   7    0.11    0.33
   7   0   7    0.01    0.19
   7   0   7    0.59    0.41
   7  -1   7    5.90    0.88
   7   1  -7    6.69    0.97
  -7   1   7    4.72    0.76
  -7   1   7    5.97    0.83
   7   1  -7    6.56    0.65
   7   1  -7    7.06    0.85
   7  -1   7    5.07    0.50
   7  -1  -7    6.19    0.95
   7  -1  -7    6.23    0.85
   7  -1  -7    5.91    0.71
  -7  -1   7    4.48    0.74
   7   1   7    5.33    0.80
   7   1   7    5.26    0.49
   7   2  -7    5.97    0.91
   7  -2   7    6.08    0.88
   7  -2   7    4.96    0.31
   7   2  -7    5.34    0.68
  -7   2   7    5.82    0.81
   7  -2   7    4.68    0.47
   7  -2   7    6.27    0.56
  -7   2  -7    5.46    0.62
   7  -2  -7    5.66    0.80
  -7  -2   7    6.00    0.53
  -7  -2   7    5.97    0.57
  -7  -2   7    5.98    0.41
   7  -2  -7    6.08    0.74
  -7  -2   7    5.07    0.50
   7  -2  -7    5.03    0.82
   7  -2  -7    6.36    0.52
   7  -2  -7    6.11    0.81
  -7  -2   7    5.04    0.83
   7  -3   7   87.84    2.51
  -7   3   7   87.09    2.40
  -7   3   7   81.48    3.38
  -7   3   7   86.23    2.32
   7   3  -7   77.87    3.57
   7  -3   7   90.75    3.73
   7  -3   7   85.87    2.97
   7   3  -7   84.51    3.16
  -7   3   7   87.85    2.61
   7  -3   7   88.26    2.39
   7  -3   7   84.33    2.55
   7  -3   7   87.73    2.80
   7  -3   7   84.58    2.18
  -7  -3   7   86.64    2.59
  -7  -3   7   87.56    2.96
  -7  -3   7   86.91    2.57
   7  -3  -7   80.36    3.64
   7  -3  -7   85.58    3.24
   7  -3  -7   83.51    3.39
   7  -3  -7   84.80    2.85
   7  -4   7   29.31    1.22
   7  -4   7   29.24    1.33
   7  -4   7   27.25    1.11
   7  -4   7   27.26    1.04
   7  -4   7   25.58    1.70
   7   4  -7   29.53    1.18
  -7   4   7   27.38    1.05
   7  -4   7   26.76    1.11
   7  -4   7   25.80    1.78
   7  -4   7   28.75    0.94
  -7   4   7   27.40    1.01
   7   4  -7   28.63    1.39
  -7   4   7   29.26    1.16
  -7  -4   7   28.15    1.04
   7   4   7   26.67    1.17
   7  -4  -7   27.15    1.75
   7  -4  -7   28.53    1.49
  -7  -4   7   28.52    1.14
   7  -4  -7   28.50    1.26
   7   4   7   30.13    1.27
   7  -4  -7   26.51    1.65
  -7  -4   7   28.95    1.32
   7  -5   7   14.45    0.78
  -7   5   7   15.35    0.74
  -7   5   7   14.07    0.77
  -7   5   7   14.49    0.70
   7  -5   7   14.53    0.85
   7  -5   7   14.14    1.32
   7  -5   7   13.27    0.62
   7  -5   7   14.65    0.77
   7   5  -7   16.96    0.83
   7  -5   7   14.40    0.88
   7  -5   7   14.41    0.71
   7  -5  -7   15.98    0.79
  -7  -5   7   14.69    0.89
  -7   5  -7   17.52    1.22
   7   5   7   14.26    0.79
  -7  -5   7   15.57    0.78
   7  -5  -7   15.38    1.04
   7   5   7   14.18    0.80
   7   5   7   14.87    0.88
  -7  -5   7   14.26    0.68
   7  -5  -7   15.09    0.87
   7  -5  -7   15.88    1.37
  -7   6   7   33.98    1.27
   7  -6   7   32.46    1.10
   7   6  -7   33.62    1.30
  -7   6   7   32.53    1.13
   7  -6   7   33.03    1.26
   7  -6   7   32.38    1.23
   7  -6   7   33.34    1.47
  -7   6   7   33.05    1.18
   7  -6   7   31.79    1.17
   7  -6   7   28.42    1.99
   7  -6   7   31.74    1.37
   7   6  -7   35.45    1.40
   7   6   7   33.69    1.30
   7   6   7   33.45    1.32
   7  -6  -7   34.81    1.65
   7  -6  -7   34.14    1.30
  -7  -6   7   33.27    1.47
  -7  -6   7   33.64    1.17
   7   6   7   32.23    1.42
   7  -6  -7   35.79    1.44
  -7   6  -7   33.66    1.70
   7   7  -7    2.37    0.35
   7  -7   7    1.57    0.25
   7  -7   7    0.97    0.30
  -7   7   7    1.55    0.26
   7  -7   7    1.33    0.27
  -7   7   7    1.27    0.25
   7   7   7    1.74    0.32
   7  -7  -7    1.56    0.44
   7   7   7    0.95    0.27
   7  -7  -7    2.05    0.33
   7  -7  -7    2.07    0.32
  -7  -7   7    1.26    0.20
  -7  -7   7    1.93    0.36
   7   7   7    1.24    0.31
  -7   7  -7    2.48    0.47
   7  -8   7   11.77    0.61
  -7   8   7   11.75    0.55
  -7   8   7   12.64    0.58
   7   8  -7   10.25    0.58
   7   8  -7    9.81    0.58
   7  -8   7   12.79    0.58
   7   8   7   12.45    0.62
   7  -8  -7   11.57    0.62
   7  -8  -7   10.39    0.65
   7   8   7   11.34    0.63
   7   8   7   11.42    0.70
  -7   8  -7   11.33    0.57
   7   9  -7    5.29    0.36
  -7   9   7    5.88    0.34
  -7   9   7    5.80    0.34
   7   9  -7    5.19    0.27
   7  -9   7    5.70    0.37
   7   9   7    5.28    0.37
   7   9   7    5.18    0.38
   7  -9  -7    5.48    0.38
  -7   9  -7    5.22    0.35
   7   0  -8    0.15    0.38
   7   0   8    0.44    0.23
   7   0  -8   -0.14    0.26
   7   0   8    0.57    0.44
   7   0   8    0.27    0.24
  -7   0   8    0.12    0.19
  -7   0   8    0.09    0.19
   7  -1   8    3.54    0.47
   7  -1   8    5.00    0.51
  -7   1   8    3.61    0.42
  -7   1   8    4.33    0.43
   7   1  -8    3.74    0.78
  -7   1   8    4.50    0.40
   7   1  -8    4.06    0.62
   7  -1   8    3.66    0.22
   7  -1   8    3.43    0.72
  -7   1   8    4.36    0.47
   7  -1  -8    4.79    0.89
   7  -1  -8    4.62    0.67
  -7  -1   8    4.60    0.49
   7  -1  -8    3.37    0.70
  -7  -1   8    4.03    0.48
   7  -2   8    2.27    0.36
   7   2  -8    1.66    0.57
   7  -2   8    2.28    0.33
  -7   2   8    1.90    0.33
   7  -2   8    1.67    0.35
   7  -2   8    1.66    0.20
   7  -2   8    1.23    0.55
  -7   2   8    1.29    0.25
  -7   2   8    2.03    0.34
  -7   2   8    1.97    0.32
   7  -2   8    1.61    0.31
   7  -2  -8    1.76    0.47
   7  -2  -8    2.18    0.59
   7  -2  -8    2.88    0.73
  -7  -2   8    1.70    0.32
  -7  -2   8    1.52    0.33
  -7  -2   8    2.16    0.39
   7  -3   8   16.79    0.83
   7   3  -8   15.15    1.41
   7   3  -8   16.32    1.07
  -7   3   8   18.97    0.87
   7  -3   8   17.70    0.64
   7  -3   8   16.58    0.77
  -7   3   8   18.15    0.75
   7  -3   8   16.75    1.43
   7  -3   8   17.41    1.00
  -7   3   8   18.30    0.79
   7  -3   8   17.64    0.83
  -7  -3   8   17.12    0.84
  -7  -3   8   18.42    0.98
   7  -3  -8   18.47    1.16
   7  -3  -8   16.62    0.89
   7  -3  -8   15.68    1.39
   7  -3  -8   15.81    1.32
  -7   4   8    5.09    0.43
   7  -4   8    5.75    0.55
   7  -4   8    3.32    0.78
   7  -4   8    4.52    0.58
  -7   4   8    4.29    0.42
  -7   4   8    5.25    0.48
   7   4  -8    4.82    0.64
   7  -4   8    3.99    0.43
   7  -4   8    4.95    0.35
   7   4  -8    4.40    0.47
   7  -4   8    4.97    0.47
   7  -4  -8    5.13    0.68
  -7  -4   8    4.02    0.50
   7  -4  -8    4.65    0.87
   7  -4  -8    4.67    0.52
  -7  -4   8    4.56    0.47
   7   5  -8   10.60    0.66
   7  -5   8    8.20    1.12
  -7   5   8    9.91    0.57
  -7   5   8    9.43    0.61
   7  -5   8   10.12    0.76
   7  -5   8   10.23    0.64
   7  -5   8    9.08    0.57
   7  -5   8   10.05    0.62
   7  -5   8    9.60    0.49
  -7   5   8    9.53    0.54
  -7  -5   8    9.42    0.62
   7   5   8    9.55    0.64
   7  -5  -8    9.42    0.67
  -7  -5   8   10.65    0.73
   7   5   8    9.12    0.69
   7  -5  -8    9.24    0.88
   7  -6   8   19.91    1.07
   7   6  -8   21.78    1.02
  -7   6   8   20.36    0.88
   7  -6   8   20.01    0.88
  -7   6   8   20.80    0.79
  -7   6   8   20.30    0.83
   7   6  -8   21.06    0.94
   7  -6   8   21.07    0.89
   7  -6   8   20.09    0.76
   7  -6   8   20.02    0.85
  -7  -6   8   18.51    1.03
   7   6   8   19.78    0.93
   7   6   8   19.70    0.90
   7  -6  -8   20.42    0.91
   7  -6  -8   21.11    1.01
   7   6   8   19.61    1.00
   7  -6  -8   19.69    1.19
  -7   7   8    2.88    0.30
   7  -7   8    1.90    0.29
  -7   7   8    2.99    0.33
   7   7  -8    2.40    0.32
   7  -7   8    2.59    0.28
   7   7   8    2.55    0.39
   7  -7  -8    2.26    0.34
   7   7   8    2.41    0.32
   7  -7  -8    2.46    0.32
   7   7   8    2.07    0.32
   7  -8   8    1.26    0.20
  -7   8   8    1.35    0.20
   7   8  -8    0.90    0.21
   7  -8   8    1.42    0.23
   7   8  -8    1.01    0.22
  -7   8   8    1.06    0.18
   7  -8  -8    1.03    0.23
   7   8   8    1.25    0.22
   7   8   8    1.07    0.25
  -7   8  -8    0.73    0.19
   7  -8  -8    1.01    0.20
   7   8   8    1.16    0.23
  -7   9   8    0.67    0.12
  -7   9   8    0.49    0.12
   7  -9   8    0.49    0.13
  -7   9  -8    0.55    0.14
   7   9   8    0.59    0.15
   7  -9  -8    0.56    0.15
  -7   0   9    0.14    0.18
  -7   0   9    0.07    0.19
   7   0  -9    0.13    0.46
  -7   0   9    0.00    0.17
   7   0   9   -0.57    0.41
   7   0  -9    0.07    0.31
   7   0   9    0.23    0.23
  -7   0   9   -0.01    0.18
   7   0   9   -0.03    0.22
   7   1  -9    0.68    0.51
   7  -1   9    0.21    0.51
  -7   1   9    0.63    0.24
  -7   1   9    0.48    0.20
   7  -1   9    0.18    0.21
   7   1  -9    0.36    0.35
   7  -1   9    0.31    0.27
  -7   1   9    0.17    0.20
  -7   1   9    0.26    0.21
  -7  -1   9    0.36    0.22
   7  -1  -9    0.71    0.38
  -7  -1   9    0.12    0.20
   7  -1  -9    0.48    0.52
  -7  -1   9    0.61    0.22
   7  -2   9   34.66    2.13
   7  -2   9   37.31    1.60
   7   2  -9   37.67    1.77
   7   2  -9   36.27    2.18
  -7   2   9   37.95    1.39
   7  -2   9   37.12    1.00
   7  -2   9   37.49    1.28
  -7   2   9   39.00    1.21
  -7   2   9   37.35    1.26
   7  -2  -9   37.06    1.80
  -7  -2   9   37.33    1.40
   7  -2  -9   35.63    2.12
  -7  -2   9   36.86    1.37
   7  -3   9   10.13    0.44
   7  -3   9    9.97    0.62
   7  -3   9    8.63    1.15
  -7   3   9   10.87    0.65
   7  -3   9   10.77    0.76
   7   3  -9   11.48    0.68
   7   3  -9   12.04    0.89
  -7   3   9   11.17    0.59
  -7   3   9   10.40    0.56
   7  -3   9    9.80    0.59
   7  -3   9   10.40    0.66
   7  -3  -9    9.16    1.14
   7  -3  -9   10.34    0.92
  -7  -3   9    9.79    0.74
  -7  -3   9    9.54    0.62
  -7   4   9   27.87    1.03
  -7   4   9   27.10    0.95
   7   4  -9   29.75    1.16
  -7   4   9   26.36    1.10
   7  -4   9   27.33    1.04
   7  -4   9   26.31    1.29
   7  -4   9   28.41    1.14
   7  -4   9   27.00    1.05
   7  -4   9   27.74    0.87
   7   4  -9   28.16    1.38
   7  -4  -9   30.53    1.24
   7  -4  -9   26.67    1.47
  -7  -4   9   26.17    1.26
  -7  -4   9   26.69    1.10
   7  -5   9    7.67    0.54
  -7   5   9    7.89    0.53
  -7   5   9    7.82    0.49
   7  -5   9    6.83    0.40
   7  -5   9    7.37    0.50
  -7   5   9    7.39    0.42
   7  -5   9    7.02    0.50
   7  -5   9    7.26    0.64
   7   5  -9    6.87    0.53
  -7  -5   9    7.27    0.49
   7  -5  -9    6.44    0.54
  -7  -5   9    7.26    0.63
   7   6  -9    0.35    0.26
   7   6  -9    0.13    0.19
  -7   6   9    0.11    0.16
   7  -6   9    0.22    0.19
  -7   6   9    0.11    0.15
   7  -6   9    0.19    0.12
   7  -6   9    0.21    0.17
   7  -6   9    0.50    0.20
  -7   6   9    0.26    0.14
   7  -6  -9    0.21    0.19
  -7  -6   9    0.40    0.19
   7  -7   9   17.60    0.68
  -7   7   9   17.08    0.65
   7   7  -9   15.49    0.69
  -7   7   9   17.02    0.66
   7   7  -9   14.86    0.72
   7  -7   9   17.05    0.60
   7  -7   9   17.21    0.68
   7   7   9   16.78    0.70
   7  -7  -9   14.33    0.75
  -7   7  -9   14.89    0.65
   7   7   9   16.35    0.68
  -7   8   9    0.23    0.10
   7   8  -9    0.17    0.14
  -7   8   9    0.23    0.11
   7  -8   9    0.15    0.13
   7  -8   9    0.37    0.11
  -7   8  -9    0.19    0.11
  -7   0  10    0.21    0.17
  -7   0  10   -0.02    0.16
   7   0  10   -0.24    0.22
  -7   0  10   -0.03    0.17
  -7   0  10   -0.12    0.16
   7   0 -10   -0.12    0.31
  -7   1  10   16.65    0.69
   7   1 -10   17.58    1.11
  -7   1  10   17.92    0.81
   7  -1  10   14.86    0.92
   7  -1  10   17.40    0.86
  -7   1  10   16.56    0.73
  -7   1  10   16.61    0.83
  -7  -1  10   18.06    0.85
   7  -1 -10   17.02    1.12
  -7  -1  10   16.75    0.81
  -7  -1  10   17.53    0.73
  -7   2  10    0.16    0.16
   7  -2  10    0.82    0.27
   7   2 -10    0.56    0.36
  -7   2  10    0.44    0.18
   7  -2  10    0.27    0.26
  -7   2  10    0.40    0.20
   7  -2  10    0.88    0.25
   7  -2 -10    0.93    0.41
  -7  -2  10    0.61    0.21
  -7  -2  10    0.60    0.23
   7  -3  10    4.56    0.53
   7   3 -10    5.31    0.71
   7  -3  10    5.97    0.45
   7   3 -10    5.65    0.47
  -7   3  10    5.34    0.46
   7  -3  10    4.69    0.47
  -7   3  10    5.82    0.38
   7  -3  10    6.16    0.27
  -7   3  10    5.82    0.42
  -7  -3  10    5.79    0.47
   7  -3 -10    5.85    0.82
  -7  -3  10    5.46    0.44
   7  -4  10    2.15    0.34
   7  -4  10    2.04    0.20
   7  -4  10    2.91    0.34
  -7   4  10    2.85    0.35
  -7   4  10    2.28    0.28
   7   4 -10    1.96    0.31
  -7   4  10    2.35    0.26
  -7  -4  10    2.40    0.30
   7   5 -10    0.64    0.21
  -7   5  10    0.36    0.16
   7  -5  10    0.23    0.18
   7  -5  10    0.77    0.19
  -7   5  10    0.53    0.13
   7  -5  10    0.54    0.13
   7  -5  10    0.72    0.21
  -7   5  10    0.61    0.19
  -7  -5  10    0.41    0.18
   7  -6  10    1.40    0.17
   7   6 -10    1.51    0.28
   7  -6  10    1.86    0.25
  -7   6  10    1.47    0.22
   7  -6  10    1.46    0.24
  -7   6  10    1.50    0.17
  -7   6  10    1.39    0.20
   7   6 -10    1.69    0.24
   7  -6  10    1.56    0.23
  -7  -6  10    1.51    0.22
  -7   7  10    0.71    0.11
  -7   7  10    0.62    0.12
   7   7 -10    1.01    0.19
   7  -7  10    0.49    0.10
  -7   7 -10    0.93    0.16
  -7   0  11    0.00    0.16
  -7   0  11    0.17    0.17
   7   0  11    0.14    0.20
  -7   0  11    0.24    0.17
  -7   0  11   -0.04    0.13
   7  -1  11    4.08    0.42
  -7   1  11    4.00    0.32
  -7   1  11    4.04    0.36
  -7   1  11    4.52    0.40
  -7   1  11    3.89    0.36
  -7  -1  11    3.53    0.38
  -7  -1  11    3.84    0.41
  -7  -1  11    4.15    0.35
   7   2 -11    2.27    0.32
   7  -2  11    2.65    0.31
  -7   2  11    2.53    0.31
  -7   2  11    2.51    0.29
   7  -2  11    2.56    0.33
  -7   2  11    2.77    0.27
  -7  -2  11    2.38    0.29
  -7  -2  11    2.66    0.28
   7   3 -11   17.02    0.75
  -7   3  11   17.15    0.67
   7  -3  11   17.30    0.76
  -7   3  11   15.89    0.73
  -7   3  11   16.42    0.60
   7  -3  11   16.90    0.69
  -7  -3  11   16.10    0.65
  -7  -3  11   16.46    0.72
   7  -4  11    3.10    0.33
   7  -4  11    2.93    0.31
  -7   4  11    3.87    0.30
  -7   4  11    4.19    0.26
  -7   4  11    3.12    0.32
   7   4 -11    4.69    0.37
  -7  -4  11    3.32    0.31
  -7  -4  11    3.15    0.31
  -7   5  11   12.24    0.55
   7  -5  11   11.92    0.52
  -7   5  11   12.40    0.50
   7  -5  11   12.41    0.56
   7   5 -11   12.72    0.56
  -7   5  11   12.46    0.43
  -7  -5  11   12.29    0.56
  -7  -5  11   12.53    0.53
  -7   6  11   21.47    0.55
  -7   6  11   21.10    0.65
  -7   6 -11   19.41    0.66
  -7   0  12    0.05    0.14
  -7   0  12    0.10    0.10
  -7   0  12    0.13    0.14
   7   1 -12    2.59    0.30
   7  -1  12    2.71    0.28
  -7   1  12    2.30    0.28
  -7   1  12    2.62    0.25
  -7   1  12    3.02    0.23
  -7  -1  12    2.82    0.25
  -7  -1  12    2.31    0.26
   7   2 -12    9.59    0.48
   7  -2  12    9.13    0.45
  -7   2  12    8.53    0.41
  -7   2  12    8.39    0.35
  -7   2  12    7.81    0.44
   7  -2  12    8.72    0.46
  -7  -2  12    8.58    0.38
  -7  -2  12    8.34    0.45
   7  -3  12    9.35    0.42
  -7   3  12    9.62    0.41
   7   3 -12    9.06    0.46
  -7   3  12    8.84    0.34
  -7   3  12    9.82    0.46
   7  -3  12    9.69    0.47
  -7  -3  12    8.53    0.44
  -7  -3  12    9.46    0.40
  -7   4  12    0.81    0.16
  -7   4  12    0.99    0.10
  -7   4  12    0.72    0.14
   7  -4  12    0.71    0.16
  -7  -4  12    0.73    0.14
  -7  -4  12    0.85    0.16
  -7   0  13   -0.04    0.07
   8   0   0    3.33    0.50
   8   0   0    2.92    0.44
  -8   0   0    2.95    0.43
   8   0   0    3.17    0.41
  -8   0   0    3.15    0.36
  -8   0   0    2.66    0.40
   8   0   0    2.97    0.28
  -8  -1   0    3.97    0.44
   8   1   0    3.71    0.48
  -8  -1   0    3.55    0.47
  -8   1   0    3.06    0.41
  -8  -1   0    3.47    0.40
   8   1   0    3.27    0.36
  -8  -1   0    3.67    0.41
  -8  -1   0    3.06    0.47
  -8   1   0    2.95    0.41
   8  -1   0    3.32    0.50
   8   1   0    3.80    0.54
   8  -1   0    3.43    0.49
   8  -1   0    3.08    0.29
  -8   1   0    3.44    0.45
   8  -1   0    2.53    0.43
   8   2   0   -0.02    0.13
  -8   2   0    0.36    0.19
  -8  -2   0    0.19    0.13
  -8  -2   0    0.21    0.16
   8  -2   0    0.12    0.20
  -8  -2   0    0.20    0.18
  -8  -2   0   -0.17    0.22
   8  -2   0    0.25    0.21
  -8  -2   0    0.05    0.19
  -8  -2   0    0.03    0.16
   8  -2   0    0.17    0.13
  -8   2   0    0.14    0.17
  -8   2   0    0.09    0.19
   8  -2   0    0.35    0.23
   8   2   0    0.38    0.24
  -8  -3   0    0.35    0.18
  -8   3   0    0.56    0.22
  -8  -3   0    0.43    0.21
   8  -3   0    0.18    0.25
  -8   3   0    0.37    0.21
  -8  -3   0    0.49    0.26
   8  -3   0    0.18    0.25
   8   3   0    0.20    0.23
   8  -3   0    0.30    0.15
   8  -3   0    0.13    0.26
   8   3   0    0.28    0.18
  -8  -3   0    0.42    0.26
  -8   3   0    0.37    0.22
  -8  -3   0    0.35    0.22
  -8  -3   0    0.29    0.22
  -8   4   0    1.67    0.35
  -8  -4   0    1.84    0.40
   8  -4   0    1.84    0.30
  -8  -4   0    1.74    0.42
   8   4   0    1.84    0.45
  -8  -4   0    1.57    0.37
   8  -4   0    2.93    0.61
   8  -4   0    1.52    0.40
   8   4   0    2.07    0.31
  -8  -4   0    1.40    0.39
   8  -4   0    2.09    0.45
  -8  -4   0    2.06    0.44
   8  -4   0    1.74    0.51
  -8  -4   0    1.51    0.29
   8   4   0    1.71    0.29
  -8   4   0    1.39    0.36
  -8  -5   0    9.32    0.83
  -8  -5   0   10.04    0.95
   8   5   0    9.51    0.62
  -8  -5   0    8.80    0.62
  -8  -5   0    8.43    0.81
   8  -5   0    9.02    0.88
  -8  -5   0    9.96    0.92
   8  -5   0    9.05    0.82
   8  -5   0    8.90    0.57
   8  -5   0    8.27    0.95
  -8  -5   0    9.74    0.81
   8  -5   0    8.98    0.97
   8  -5   0   10.00    0.62
  -8  -5   0    8.68    0.80
   8   5   0    9.48    0.60
  -8   5   0    9.48    0.72
  -8  -6   0   11.39    0.94
   8   6   0   10.34    0.68
   8  -6   0   10.95    1.02
   8  -6   0   10.35    0.96
  -8  -6   0   10.24    0.95
  -8  -6   0   10.44    0.96
   8   6   0    9.93    0.65
  -8  -6   0   11.17    0.72
  -8   6   0   10.06    0.74
   8  -6   0   10.39    0.66
   8  -7   0    5.70    0.88
   8   7   0    8.61    0.58
   8  -7   0    7.47    0.56
   8   7   0    7.92    0.51
   8   7   0    7.80    0.55
   8   7   0    8.11    0.65
  -8   7   0    7.89    0.66
  -8   7   0    7.62    0.52
  -8  -7   0    6.42    0.83
   8  -7   0    7.83    0.59
   8   7   0    7.28    0.61
   8  -7   0    6.17    0.55
  -8  -8   0   25.66    1.20
   8   8   0   27.36    1.13
  -8  -8   0   25.32    1.46
   8   8   0   26.76    1.08
   8   8   0   28.54    1.02
  -8   8   0   26.63    1.04
   8  -8   0   26.25    1.10
   8  -8   0   26.70    1.20
  -8   9   0    0.34    0.22
  -8  -9   0    0.05    0.16
   8   9   0   -0.10    0.17
  -8  -9   0    0.34    0.36
   8  -9   0    0.44    0.24
  -8  -9   0    0.18    0.21
  -8   9   0    0.36    0.20
   8   9   0    0.14    0.19
   8  -9   0    0.21    0.19
  -8 -10   0    8.82    0.51
   8  10   0    8.70    0.49
   8  10   0    8.91    0.53
   8 -10   0    8.69    0.47
  -8  10   0    8.92    0.50
  -8  10   0    9.06    0.39
   8  11   0    0.16    0.13
   8  11   0    0.15    0.12
  -8  11   0    0.22    0.12
  -8 -11   0    0.24    0.12
  -8   0   1   55.51    1.82
   8   0   1   55.94    2.09
   8   0  -1   46.45    2.08
  -8   0  -1   47.28    2.01
  -8   0   1   54.83    2.14
   8   0  -1   45.78    1.71
   8   0  -1   45.81    2.04
  -8   0   1   52.16    1.92
  -8   0   1   52.89    1.93
   8   0  -1   46.38    2.03
   8   0   1   51.78    1.74
   8   0   1   52.97    2.18
  -8   0   1   57.63    1.88
  -8   0  -1   45.78    1.88
  -8  -1  -1   55.95    1.83
  -8  -1  -1   59.12    1.95
  -8   1   1   49.23    1.93
  -8  -1  -1   55.51    2.11
  -8   1   1   51.72    2.19
  -8  -1  -1   56.93    2.06
   8   1  -1   55.52    2.14
   8  -1   1   51.13    2.16
   8   1  -1   57.82    2.24
   8  -1   1   49.48    2.20
   8  -1   1   49.13    1.78
  -8   1   1   48.39    1.95
   8  -1   1   50.89    2.22
  -8   1  -1   54.66    1.99
   8  -1  -1   55.30    2.24
  -8  -1   1   51.81    2.19
   8   1   1   50.88    2.05
  -8  -1   1   49.36    1.81
  -8  -1   1   50.45    1.93
   8  -1  -1   56.61    2.27
   8  -1  -1   58.65    1.81
   8   1   1   49.24    2.20
   8   1   1   48.68    1.80
  -8   1  -1   55.83    2.15
  -8   1  -1   57.48    2.02
  -8  -1   1   50.16    2.01
   8  -1  -1   57.00    2.24
  -8  -1   1   51.28    1.89
  -8  -1   1   50.57    1.99
  -8  -2  -1   75.39    2.56
  -8   2   1   74.47    2.53
  -8   2   1   74.17    2.93
  -8  -2  -1   74.54    2.67
  -8   2   1   74.92    2.64
   8  -2   1   73.44    2.40
   8  -2   1   74.34    3.03
   8  -2   1   70.00    2.32
   8  -2   1   72.78    2.88
  -8  -2  -1   75.78    2.85
  -8  -2  -1   75.17    2.51
   8  -2   1   74.22    2.96
   8   2  -1   77.07    2.90
   8   2   1   71.28    2.91
   8   2   1   69.29    2.33
   8  -2  -1   75.68    2.38
  -8  -2   1   75.68    2.64
   8  -2  -1   75.75    3.07
  -8   2  -1   76.20    2.90
   8  -2  -1   76.79    2.97
  -8   2  -1   76.76    2.59
  -8  -2   1   74.94    2.69
   8  -2  -1   75.55    2.93
  -8   2  -1   75.85    2.63
  -8  -2   1   70.36    2.65
   8   2   1   71.46    2.44
  -8  -2   1   74.86    2.58
  -8  -2   1   74.17    2.47
  -8  -2   1   72.86    2.93
   8  -3   1   40.16    1.95
  -8   3   1   40.73    1.79
   8  -3   1   40.42    1.90
   8  -3   1   38.05    1.38
  -8  -3  -1   36.47    1.45
  -8   3   1   40.14    1.59
   8   3  -1   37.08    1.78
   8  -3   1   38.00    1.80
   8   3  -1   37.67    1.37
  -8  -3  -1   38.25    1.71
  -8  -3  -1   37.45    1.70
  -8  -3  -1   37.91    1.61
   8  -3   1   40.06    1.39
  -8  -3  -1   35.83    1.56
  -8  -3   1   38.51    1.62
  -8  -3   1   38.92    1.47
   8  -3  -1   37.43    1.94
   8   3   1   38.72    1.40
  -8   3  -1   36.57    1.56
  -8   3  -1   37.66    1.74
  -8  -3   1   38.13    1.76
  -8  -3   1   40.07    1.68
   8  -3  -1   37.00    1.82
  -8   3  -1   36.59    1.57
   8   3   1   40.62    1.88
   8  -3  -1   34.11    1.32
  -8  -3   1   39.86    1.63
  -8  -3   1   39.20    1.70
   8  -3  -1   37.53    1.87
  -8  -4  -1   30.05    1.45
   8  -4   1   25.05    1.54
   8  -4   1   27.14    1.11
  -8  -4  -1   28.09    1.17
  -8   4   1   26.69    1.23
  -8  -4  -1   29.76    1.42
   8  -4   1   26.79    1.52
   8   4  -1   29.38    1.55
  -8  -4  -1   28.33    1.42
   8  -4   1   24.69    1.58
   8   4  -1   27.49    1.11
   8   4  -1   27.72    1.10
   8  -4   1   27.62    1.35
  -8  -4  -1   28.05    1.37
   8  -4  -1   28.59    1.39
   8  -4  -1   27.48    1.14
   8   4   1   28.07    1.58
   8  -4  -1   28.52    1.63
  -8  -4   1   26.19    1.46
   8  -4  -1   28.52    1.54
  -8  -4   1   24.51    1.32
  -8  -4   1   24.79    1.36
  -8   4  -1   29.64    1.32
   8  -4  -1   28.23    1.09
   8   4   1   26.16    1.12
  -8   4  -1   29.42    1.47
  -8  -4   1   26.53    1.18
  -8  -4   1   25.54    1.32
   8   4   1   25.63    1.11
  -8  -4   1   27.05    1.43
   8  -5   1   62.57    2.72
  -8  -5  -1   60.86    2.52
  -8  -5  -1   58.42    2.19
   8   5  -1   61.05    2.11
   8  -5   1   61.68    2.98
  -8  -5  -1   59.33    2.78
  -8   5   1   65.32    2.27
   8  -5   1   62.68    2.87
   8  -5   1   62.54    2.11
   8  -5   1   62.92    2.51
   8   5  -1   61.24    2.11
  -8  -5  -1   56.68    2.44
  -8  -5  -1   56.50    2.48
  -8  -5  -1   59.51    2.66
  -8  -5   1   61.89    2.56
  -8  -5   1   63.41    2.76
   8  -5  -1   63.43    2.74
  -8  -5   1   57.77    2.45
   8  -5  -1   61.06    2.06
   8   5   1   63.47    2.14
  -8  -5   1   62.68    2.22
   8  -5  -1   58.35    2.81
   8  -5  -1   61.77    2.16
   8   5   1   61.39    2.14
  -8  -5   1   62.87    2.47
  -8   5  -1   62.39    2.38
  -8  -5   1   63.78    2.58
   8  -5  -1   64.22    2.55
  -8  -6  -1   31.72    1.63
   8   6  -1   30.20    1.29
   8  -6   1   30.77    1.67
   8  -6   1   30.38    1.28
  -8  -6  -1   28.95    1.63
   8   6  -1   30.86    1.27
   8   6  -1   30.17    1.19
  -8  -6  -1   29.15    1.67
   8  -6   1   31.07    1.78
  -8  -6   1   29.90    1.76
   8   6   1   30.96    1.32
  -8   6  -1   32.06    1.46
   8   6   1   31.01    1.30
  -8  -6   1   29.44    1.33
   8  -6  -1   30.38    1.24
  -8  -6   1   29.11    1.54
   8  -6  -1   33.14    1.79
  -8  -6   1   28.45    1.64
   8  -6  -1   30.11    1.30
   8  -6  -1   29.96    1.67
   8  -7   1   12.33    0.68
   8  -7   1   12.99    1.15
   8   7  -1   12.20    0.71
  -8   7   1   12.04    0.76
   8  -7   1   13.47    0.79
  -8   7   1   11.60    0.65
  -8  -7  -1   12.73    1.05
   8   7  -1   12.51    0.70
   8  -7  -1   12.13    0.74
  -8   7  -1   11.86    0.65
  -8  -7   1   13.54    0.84
   8  -7  -1   13.02    1.17
   8  -7  -1   12.06    0.74
  -8  -7   1   11.95    0.78
   8   7   1   12.97    0.81
   8   7   1   12.81    0.61
   8  -7  -1   11.39    0.71
   8   7   1   12.64    0.73
   8   7   1   11.93    0.68
   8   7   1   14.26    0.84
   8   7   1   12.42    0.73
  -8  -7   1   13.30    0.99
   8  -8   1    0.21    0.20
  -8  -8  -1    0.15    0.22
   8  -8   1    0.28    0.21
  -8   8   1    0.08    0.20
   8   8  -1    0.44    0.21
  -8   8   1    0.05    0.18
  -8  -8  -1    0.48    0.39
   8   8  -1    0.30    0.21
   8   8   1    0.45    0.23
   8  -8  -1    0.42    0.23
  -8  -8   1    0.43    0.31
  -8   8  -1    0.28    0.24
   8  -8  -1    0.24    0.22
   8   8   1    0.04    0.18
   8   8   1    0.46    0.24
   8  -8  -1    0.51    0.23
   8   8   1    0.20    0.20
  -8   8  -1    0.09    0.18
  -8  -8   1    0.27    0.20
   8   8   1    0.11    0.15
  -8   9   1   20.86    0.82
  -8  -9  -1   19.36    1.01
  -8   9   1   20.14    0.86
   8  -9   1   20.61    0.83
  -8  -9  -1   19.27    1.25
   8  -9   1   21.58    1.01
   8   9  -1   18.88    0.90
   8   9   1   21.26    0.95
  -8   9  -1   18.68    0.83
   8   9   1   21.63    0.81
  -8  -9   1   20.90    0.90
  -8  -9   1   20.36    1.02
   8  -9  -1   18.81    0.89
   8  -9  -1   19.46    0.91
   8   9   1   22.32    0.94
  -8  -9   1   19.60    1.17
   8  -9  -1   18.07    0.94
   8 -10   1    0.24    0.11
   8  10  -1    0.51    0.18
  -8 -10  -1    0.28    0.16
  -8  10   1    0.44    0.16
  -8  10  -1    0.50    0.17
   8 -10  -1    0.28    0.16
  -8 -10   1    0.44    0.17
  -8  10  -1    0.67    0.19
   8  10   1    0.44    0.16
   8  10   1    0.47    0.18
   8  11  -1    5.89    0.35
  -8  11   1    5.39    0.32
  -8 -11  -1    4.45    0.30
  -8 -11   1    5.93    0.41
   8  11   1    5.44    0.30
  -8  11  -1    4.86    0.31
  -8 -11   1    5.27    0.32
   8  11   1    5.51    0.35
  -8   0  -2   58.02    2.22
  -8   0   2   57.25    2.13
  -8   0  -2   58.03    2.17
   8   0  -2   59.15    2.39
   8   0   2   59.20    2.32
   8   0   2   57.43    1.96
   8   0   2   56.39    2.40
  -8   0   2   59.50    2.40
  -8   0   2   59.69    2.16
   8   0  -2   60.93    2.37
   8   0  -2   58.03    2.39
   8   0   2   53.51    1.87
  -8   0   2   58.43    1.97
   8   0  -2   56.88    1.95
  -8   0   2   59.21    2.09
  -8   0   2   59.09    2.14
   8  -1   2   14.44    0.92
   8   1  -2   13.11    0.89
  -8   1   2   14.40    0.82
  -8   1   2   15.33    0.89
   8   1  -2   12.68    0.87
  -8  -1  -2   13.35    0.84
  -8   1   2   14.04    0.77
   8  -1   2   13.39    0.66
   8  -1   2   15.23    0.68
   8  -1   2   14.85    0.96
  -8   1   2   13.34    0.78
  -8  -1  -2   13.52    0.72
  -8   1   2   13.68    0.66
  -8   1   2   14.48    0.80
   8  -1   2   16.22    0.95
  -8  -1   2   14.47    0.83
  -8  -1   2   15.00    0.89
   8   1   2   13.83    0.66
  -8   1  -2   13.75    0.78
  -8  -1   2   14.10    0.83
   8   1   2   13.24    0.93
  -8  -1   2   15.01    0.88
  -8  -1   2   14.29    0.70
   8  -1  -2   13.82    0.94
   8   1   2   14.00    0.68
   8   1   2   15.63    0.87
  -8   1  -2   12.87    0.81
   8  -1  -2   13.12    0.90
  -8  -1   2   14.09    0.80
   8  -1  -2   12.75    0.68
   8  -1  -2   13.82    0.94
  -8  -2  -2   10.89    0.69
   8  -2   2   10.64    0.58
   8  -2   2    9.96    0.84
   8   2  -2   13.28    0.85
  -8  -2  -2   11.39    0.66
   8  -2   2   12.15    0.87
  -8   2   2   11.65    0.71
  -8  -2  -2   11.99    0.69
   8  -2   2   10.68    0.59
  -8  -2  -2   10.91    0.79
   8  -2   2   11.69    0.86
   8  -2  -2   12.01    0.88
  -8  -2   2   11.01    0.62
  -8   2  -2   11.95    0.79
   8  -2  -2   11.91    0.90
  -8  -2   2   11.40    0.79
  -8  -2   2   11.11    0.73
  -8   2  -2   11.82    0.74
   8  -2  -2   10.67    0.88
   8  -2  -2   10.54    0.63
  -8  -2   2   11.40    0.81
   8   2   2   11.03    0.60
   8   2   2   10.85    0.85
  -8  -2   2   11.57    0.78
   8   2   2   10.66    0.61
  -8  -2   2   11.20    0.75
   8  -3   2   12.10    0.92
   8  -3   2    9.93    0.59
   8  -3   2   10.97    0.93
   8  -3   2   10.51    0.59
  -8  -3  -2   11.77    0.83
  -8  -3  -2   12.02    0.77
  -8  -3  -2   13.30    0.82
   8  -3   2   10.36    0.88
   8   3  -2   11.75    0.87
  -8   3   2   10.76    0.69
  -8  -3  -2   11.16    0.72
   8   3   2   10.61    0.62
  -8  -3   2   10.52    0.79
   8  -3  -2   11.55    0.67
  -8  -3   2    9.49    0.63
   8   3   2   11.00    0.62
   8  -3  -2   11.97    0.97
  -8  -3   2   10.64    0.74
  -8  -3   2   11.07    0.81
  -8  -3   2   10.57    0.82
  -8   3  -2   10.48    0.72
  -8  -3   2   10.12    0.81
   8  -3  -2   11.24    0.92
   8   3   2   11.23    0.92
   8  -3  -2   11.70    0.91
  -8   3  -2   12.16    0.80
  -8  -4  -2    3.09    0.49
   8  -4   2    4.10    0.46
   8  -4   2    3.71    0.56
   8  -4   2    3.81    0.41
  -8  -4  -2    3.77    0.58
   8  -4   2    2.80    0.55
   8  -4   2    3.50    0.55
   8   4  -2    2.65    0.35
  -8   4   2    3.18    0.39
   8   4  -2    3.28    0.40
  -8  -4  -2    3.68    0.56
   8  -4   2    3.94    0.68
  -8  -4  -2    3.02    0.55
   8  -4   2    3.81    0.69
  -8  -4  -2    2.97    0.39
  -8  -4   2    3.80    0.53
   8  -4  -2    4.77    0.72
   8  -4  -2    3.30    0.43
  -8  -4   2    2.84    0.50
  -8  -4   2    2.77    0.52
   8  -4  -2    3.38    0.44
   8   4   2    3.59    0.36
  -8  -4   2    2.89    0.39
   8  -4  -2    3.35    0.68
   8  -4  -2    4.13    0.61
  -8   4  -2    3.35    0.54
  -8  -4   2    3.54    0.58
   8  -4  -2    3.98    0.70
  -8   4  -2    3.94    0.52
   8   4   2    3.89    0.44
   8   4   2    3.41    0.62
  -8  -4   2    3.14    0.55
  -8  -5  -2    2.70    0.55
  -8  -5  -2    2.92    0.40
   8  -5   2    2.85    0.69
   8   5  -2    3.61    0.42
   8  -5   2    3.04    0.42
  -8  -5  -2    3.03    0.66
   8  -5   2    3.25    0.59
  -8  -5  -2    2.54    0.53
   8  -5   2    3.11    0.61
   8  -5   2    2.96    0.64
  -8  -5  -2    2.94    0.54
  -8  -5   2    2.54    0.49
   8   5   2    2.29    0.35
  -8  -5   2    2.26    0.36
   8  -5  -2    2.84    0.44
   8  -5  -2    3.75    0.67
   8   5   2    2.74    0.39
  -8  -5   2    1.75    0.46
   8  -5  -2    3.42    0.60
  -8  -5   2    1.85    0.45
  -8   5  -2    3.07    0.50
  -8  -5   2    3.42    0.61
  -8   5  -2    2.74    0.52
   8  -5  -2    2.82    0.39
   8  -5  -2    3.37    0.76
   8  -5  -2    2.79    0.69
  -8  -5   2    2.46    0.58
   8  -6   2    9.53    1.06
   8  -6   2    9.72    1.01
   8   6  -2   11.02    0.54
  -8   6   2    9.55    0.67
  -8   6   2    9.99    0.60
   8   6  -2   10.96    0.63
   8   6  -2   11.03    0.65
  -8  -6  -2   11.45    0.97
  -8  -6  -2   10.14    0.98
   8  -6   2   10.55    0.69
   8  -6   2   10.03    0.56
   8  -6  -2   10.59    1.01
  -8  -6   2   10.44    0.97
   8  -6  -2   11.56    0.76
  -8   6  -2   10.41    0.81
  -8  -6   2   10.25    0.68
   8   6   2    9.46    0.49
   8   6   2    9.89    0.69
   8  -6  -2   10.91    0.70
   8  -6  -2   11.20    0.67
  -8  -6   2    9.86    0.70
  -8  -6   2    9.76    0.84
   8  -6  -2   11.62    1.08
   8   6   2    9.65    0.63
   8   6   2   10.62    0.69
  -8   6  -2   10.60    0.59
   8   6   2    9.87    0.64
   8   6   2    9.81    0.62
   8  -7   2    1.63    0.27
   8   7  -2    2.12    0.34
   8  -7   2    1.68    0.31
  -8   7   2    1.36    0.27
   8  -7   2    2.03    0.38
   8   7  -2    1.83    0.33
   8  -7   2    1.87    0.58
   8   7  -2    2.47    0.24
  -8   7   2    1.32    0.30
   8  -7  -2    1.89    0.37
   8  -7  -2    2.39    0.44
  -8   7  -2    2.57    0.49
   8   7   2    1.63    0.32
   8   7   2    1.23    0.22
  -8  -7   2    1.33    0.32
   8  -7  -2    1.72    0.32
   8   7   2    1.68    0.33
  -8  -7   2    1.57    0.45
   8   7   2    1.64    0.29
   8   7   2    1.87    0.36
  -8   7  -2    2.15    0.31
   8  -7  -2    2.76    0.71
   8   7   2    1.34    0.31
  -8  -7   2    1.59    0.35
   8  -8   2    4.66    0.44
  -8   8   2    4.91    0.41
  -8  -8  -2    5.80    0.55
  -8  -8  -2    5.31    0.80
   8   8  -2    5.82    0.50
   8  -8   2    4.50    0.53
  -8   8   2    4.48    0.45
   8  -8   2    4.60    0.39
  -8  -8   2    5.56    0.59
   8  -8  -2    4.69    0.50
  -8  -8   2    4.85    0.68
   8   8   2    5.61    0.53
   8   8   2    4.31    0.44
   8  -8  -2    5.43    0.53
   8  -8  -2    6.13    0.56
   8   8   2    5.05    0.39
  -8   8  -2    4.63    0.44
  -8   8  -2    5.94    0.60
   8   8   2    4.75    0.50
   8   8   2    4.80    0.51
   8   9  -2    8.86    0.60
  -8  -9  -2    8.96    0.64
   8  -9   2    9.47    0.67
  -8   9   2    9.83    0.56
   8   9   2    9.55    0.62
   8  -9  -2    8.12    0.56
   8   9   2    9.87    0.61
  -8   9  -2    7.93    0.54
  -8   9  -2    8.31    0.63
   8  -9  -2    8.68    0.60
   8   9   2    9.29    0.65
  -8  -9   2    8.90    0.66
  -8  -9   2    9.38    0.56
   8   9   2    9.02    0.48
  -8 -10  -2    5.52    0.39
   8  10  -2    5.47    0.41
  -8  10   2    5.97    0.40
   8  10   2    5.32    0.35
  -8 -10   2    5.75    0.50
   8 -10  -2    5.47    0.41
   8  10   2    5.56    0.42
  -8 -10   2    5.65    0.41
  -8  10  -2    4.41    0.38
  -8  10  -2    5.81    0.42
   8  10   2    5.88    0.43
   8 -10  -2    5.63    0.43
   8  11  -2    4.08    0.29
  -8  11   2    4.33    0.28
   8  11   2    4.42    0.24
  -8  11  -2    4.05    0.27
  -8 -11   2    4.81    0.29
   8 -11  -2    3.81    0.25
   8  11   2    4.59    0.31
  -8 -11   2    4.20    0.34
  -8   0   3  160.41    5.02
  -8   0  -3  172.69    5.25
  -8   0  -3  175.04    5.74
   8   0   3  163.98    5.79
   8   0   3  152.90    4.82
  -8   0   3  159.07    5.15
   8   0  -3  176.00    5.84
   8   0   3  159.28    5.04
  -8   0   3  168.48    5.19
  -8   0   3  166.61    5.30
  -8   0   3  161.89    5.29
   8   0  -3  166.96    5.26
   8   0  -3  165.36    6.02
   8   0  -3  177.18    5.70
   8   0   3  164.29    5.66
   8  -1   3    3.24    0.52
  -8  -1  -3    1.13    0.32
   8  -1   3    3.21    0.37
  -8   1   3    2.25    0.39
   8  -1   3    2.77    0.46
   8  -1   3    3.04    0.31
   8   1  -3    1.34    0.39
  -8   1   3    2.89    0.43
   8  -1   3    2.76    0.49
  -8   1   3    2.49    0.33
  -8   1   3    2.77    0.46
  -8  -1   3    2.59    0.46
   8   1   3    3.17    0.36
   8   1   3    2.40    0.31
   8  -1  -3    1.56    0.40
   8  -1  -3    1.39    0.35
  -8   1  -3    2.48    0.35
   8  -1  -3    1.28    0.38
  -8  -1   3    2.82    0.44
  -8  -1   3    2.47    0.38
   8   1   3    2.48    0.44
   8   1   3    2.13    0.43
  -8  -1   3    2.73    0.46
  -8  -1   3    2.42    0.34
  -8   1  -3    1.33    0.38
   8  -2   3    7.78    0.72
  -8  -2  -3    8.72    0.50
  -8  -2  -3    9.95    0.76
  -8   2   3    7.67    0.66
   8  -2   3    7.41    0.67
   8  -2   3    8.13    0.75
  -8   2   3    8.01    0.51
   8   2  -3    8.69    0.52
   8  -2   3    6.59    0.47
   8  -2   3    7.08    0.49
   8  -2   3    6.95    0.74
   8   2  -3    8.87    0.77
  -8   2   3    6.90    0.63
  -8  -2   3    7.65    0.60
   8  -2  -3    9.93    0.85
   8   2   3    7.16    0.50
   8  -2  -3    8.52    0.83
  -8  -2   3    7.54    0.67
  -8  -2   3    8.96    0.72
  -8   2  -3    9.19    0.63
   8  -2  -3    9.60    0.80
   8   2   3    7.31    0.50
   8  -2  -3    9.27    0.62
   8   2   3    7.69    0.74
  -8  -2   3    7.19    0.51
  -8  -2   3    7.70    0.68
   8  -3   3    8.26    0.78
   8  -3   3    7.33    0.51
  -8  -3  -3    6.56    0.52
  -8  -3  -3    7.09    0.69
   8  -3   3    7.45    0.50
  -8  -3  -3    7.28    0.65
   8  -3   3    7.55    0.69
   8  -3   3    8.20    0.86
   8  -3   3    7.58    0.76
  -8  -3  -3    6.78    0.63
   8   3   3    6.43    0.48
   8  -3  -3    7.17    0.78
  -8  -3   3    6.96    0.60
   8  -3  -3    6.49    0.49
   8   3   3    7.58    0.77
   8  -3  -3    7.13    0.58
   8   3   3    6.28    0.48
   8  -3  -3    7.28    0.82
  -8  -3   3    5.70    0.71
  -8  -3   3    7.40    0.70
   8   3   3    7.45    0.52
  -8  -3   3    6.96    0.67
  -8  -3   3    8.30    0.55
  -8   3  -3    7.03    0.61
   8  -3  -3    7.16    0.68
   8  -3  -3    6.44    0.73
  -8  -4  -3   21.26    1.29
   8  -4   3   21.93    0.97
   8  -4   3   22.68    1.24
  -8  -4  -3   21.97    1.16
   8  -4   3   20.02    1.46
  -8  -4  -3   22.82    1.02
   8  -4   3   20.40    1.38
  -8  -4  -3   23.51    1.29
  -8  -4  -3   21.57    1.43
   8  -4   3   20.88    0.98
  -8  -4  -3   23.27    1.26
   8  -4   3   21.17    1.35
   8   4   3   20.51    0.97
  -8  -4   3   21.15    1.13
  -8   4  -3   23.10    1.19
   8  -4  -3   21.91    1.01
   8  -4  -3   23.09    1.12
   8  -4  -3   22.19    1.41
  -8  -4   3   20.43    1.30
   8  -4  -3   22.92    1.28
  -8  -4   3   20.03    1.23
   8  -4  -3   23.43    1.43
  -8  -4   3   20.52    1.27
  -8  -4   3   20.63    1.03
   8   4   3   19.50    0.96
  -8   4  -3   20.85    1.23
   8  -5   3    3.20    0.65
   8  -5   3    2.73    0.42
   8  -5   3    2.49    0.53
   8  -5   3    2.07    0.33
   8  -5   3    2.03    0.57
  -8  -5  -3    2.07    0.52
  -8  -5  -3    2.37    0.49
   8  -5  -3    1.96    0.39
  -8  -5   3    2.14    0.45
   8   5   3    2.65    0.40
  -8  -5   3    3.04    0.44
   8  -5  -3    2.42    0.39
  -8   5  -3    1.64    0.45
   8   5   3    2.00    0.33
   8  -5  -3    1.79    0.51
  -8  -5   3    2.36    0.55
   8  -5  -3    1.95    0.52
  -8   5  -3    2.09    0.41
   8   6  -3   20.40    0.85
   8  -6   3   18.76    1.40
   8  -6   3   19.27    1.01
   8  -6   3   19.08    0.87
   8  -6   3   18.84    1.35
  -8   6   3   19.46    0.89
  -8   6   3   20.13    0.87
  -8  -6  -3   18.39    1.41
   8  -6   3   20.10    0.74
   8   6  -3   19.50    0.91
   8   6  -3   20.83    0.90
   8   6   3   20.77    0.90
  -8  -6   3   21.62    1.16
   8   6   3   20.33    0.72
  -8   6  -3   20.26    1.18
  -8   6  -3   19.72    0.83
   8  -6  -3   19.27    1.01
   8  -6  -3   20.67    1.41
   8   6   3   19.54    1.00
   8  -6  -3   20.67    0.96
   8  -6  -3   20.17    1.08
   8   6   3   20.29    1.02
   8   6   3   20.13    0.95
  -8  -6   3   21.16    1.08
   8   6   3   19.64    0.91
   8  -6  -3   21.04    1.47
   8  -7   3   12.32    0.78
   8  -7   3   12.68    1.32
   8  -7   3   11.39    0.64
   8   7  -3   11.32    0.57
   8   7  -3   11.67    0.70
  -8   7   3   11.58    0.61
   8  -7  -3   11.29    0.81
   8   7   3   11.88    0.69
   8  -7  -3   10.89    0.68
  -8  -7   3   11.73    0.81
   8   7   3   11.37    0.66
   8   7   3   11.90    0.72
   8  -7  -3   11.04    0.74
  -8  -7   3   11.97    0.87
   8   7   3   10.69    0.51
  -8   7  -3   11.05    0.63
   8   7   3   12.11    0.76
  -8   7  -3   11.26    0.88
   8   7   3   11.51    0.75
   8  -7  -3   10.27    1.20
   8  -8   3   11.67    0.62
  -8   8   3    9.82    0.45
  -8   8   3    9.77    0.59
   8  -8   3   11.60    0.75
   8   8  -3   10.57    0.67
  -8  -8  -3   10.82    0.73
  -8  -8   3    9.76    0.62
  -8   8  -3   11.02    0.63
   8   8   3   10.99    0.67
   8  -8  -3   10.41    0.70
   8   8   3   10.70    0.63
   8   8   3   10.20    0.50
   8   8   3   10.82    0.73
   8  -8  -3   10.89    0.67
  -8  -8   3   10.21    0.75
   8   8   3   10.39    0.68
  -8  -9  -3    3.37    0.42
  -8   9   3    4.49    0.42
   8   9  -3    5.24    0.45
   8  -9   3    4.28    0.40
   8  -9   3    3.86    0.48
  -8  -9   3    4.80    0.54
   8  -9  -3    4.59    0.45
  -8   9  -3    3.86    0.43
   8   9   3    4.63    0.47
   8  -9  -3    3.95    0.42
   8   9   3    4.17    0.47
  -8  -9   3    4.57    0.45
  -8   9  -3    4.94    0.45
   8   9   3    3.85    0.43
   8  -9  -3    4.89    0.50
   8   9   3    3.85    0.32
  -8  10   3   20.27    0.76
   8  10  -3   20.82    0.83
   8 -10  -3   21.02    0.84
  -8 -10   3   20.93    0.87
  -8 -10   3   19.89    0.79
   8  10   3   20.66    0.84
  -8  10  -3   21.54    0.78
   8  10   3   19.94    0.84
   8 -10  -3   21.62    0.86
   8  10   3   20.77    0.68
  -8  11   3    1.30    0.16
   8 -11  -3    1.11    0.15
  -8 -11   3    1.31    0.17
  -8  11  -3    1.02    0.16
  -8 -11   3    1.03    0.16
   8  11   3    1.22    0.19
   8   0  -4    1.77    0.35
  -8   0   4    2.36    0.45
   8   0  -4    1.67    0.45
   8   0   4    2.53    0.33
   8   0   4    2.02    0.31
   8   0   4    3.25    0.56
  -8   0   4    3.03    0.50
  -8   0   4    2.04    0.43
  -8   0  -4    1.31    0.35
   8   0   4    2.87    0.54
   8   0  -4    2.14    0.50
  -8   0   4    2.64    0.33
   8  -1   4   15.40    1.05
   8   1  -4   20.17    0.92
   8  -1   4   14.91    1.11
   8   1  -4   21.13    1.22
   8  -1   4   14.68    1.04
  -8  -1  -4   19.71    1.10
   8  -1   4   15.46    0.99
  -8   1   4   13.75    0.95
   8  -1   4   14.77    0.77
  -8   1   4   16.22    1.00
   8  -1   4   14.94    0.76
  -8  -1   4   14.93    1.02
   8   1   4   15.84    1.08
   8   1   4   15.51    0.79
  -8   1  -4   19.67    0.87
   8  -1  -4   20.29    0.97
   8   1   4   14.45    0.74
  -8  -1   4   15.22    0.78
   8  -1  -4   20.06    1.25
  -8  -1   4   15.58    0.80
  -8  -1   4   15.66    0.98
   8  -1  -4   18.56    1.23
   8   1   4   14.91    1.00
  -8  -1   4   15.46    0.99
   8   2  -4   18.42    1.16
   8  -2   4   15.32    1.02
  -8   2   4   15.66    1.02
   8  -2   4   15.61    1.17
  -8  -2  -4   18.18    1.10
  -8   2   4   16.36    1.02
   8  -2   4   16.09    0.81
   8   2  -4   18.55    0.90
   8  -2   4   15.31    1.08
   8  -2   4   15.96    0.80
   8  -2   4   15.93    1.11
   8  -2  -4   17.28    1.19
  -8   2  -4   19.07    0.97
   8   2   4   15.26    0.80
  -8  -2   4   15.57    1.06
   8   2   4   16.65    1.14
   8   2   4   15.66    0.78
  -8  -2   4   15.59    1.03
   8  -2  -4   18.23    1.29
  -8  -2   4   16.61    0.86
   8  -2  -4   17.98    0.83
  -8  -2   4   16.24    0.83
  -8  -2   4   13.99    0.99
   8   2   4   16.04    0.79
   8  -2  -4   18.56    1.13
   8  -2  -4   18.70    0.97
   8  -2  -4   18.98    1.23
  -8  -3  -4    4.45    0.66
   8  -3   4    5.88    0.86
   8  -3   4    4.23    0.66
   8   3  -4    4.41    0.45
   8  -3   4    3.81    0.44
   8  -3   4    2.81    0.56
   8  -3   4    3.19    0.57
   8  -3   4    4.10    0.40
  -8  -3   4    3.01    0.53
   8   3   4    4.19    0.43
   8  -3  -4    4.30    0.48
  -8  -3   4    4.26    0.46
   8  -3  -4    2.94    0.64
  -8  -3   4    4.23    0.44
   8   3   4    4.02    0.45
   8  -3  -4    3.13    0.62
   8   3   4    4.43    0.47
  -8  -3   4    3.73    0.62
   8  -3  -4    4.36    0.56
  -8  -3   4    4.21    0.66
   8   3   4    4.16    0.71
   8  -3  -4    4.38    0.68
   8  -3  -4    3.59    0.57
  -8   3  -4    4.53    0.51
   8  -4   4   26.49    1.14
  -8  -4  -4   27.41    1.69
   8  -4   4   26.26    1.44
  -8  -4  -4   27.45    1.46
   8  -4   4   24.78    1.55
   8  -4   4   25.90    1.15
   8  -4   4   23.36    1.75
   8  -4  -4   28.29    1.50
  -8  -4   4   25.92    1.22
   8  -4  -4   28.23    1.67
   8  -4  -4   25.93    1.61
  -8   4  -4   27.23    1.38
   8  -4  -4   26.65    1.17
  -8  -4   4   25.43    1.49
  -8  -4   4   26.08    1.49
  -8  -4   4   26.33    1.21
   8   4   4   26.31    1.14
   8  -4  -4   27.60    1.32
   8   4   4   25.49    1.13
  -8   4  -4   27.27    1.46
   8  -5   4   10.40    0.66
  -8  -5  -4   10.76    1.15
  -8   5   4    9.21    0.57
   8  -5   4    9.66    0.66
   8  -5   4    9.48    0.59
   8   5  -4    9.65    0.62
  -8  -5  -4   10.50    0.82
   8  -5   4    9.32    0.92
   8  -5   4    9.13    0.97
   8   5   4    9.56    0.66
   8   5   4    9.06    0.63
  -8  -5   4    9.87    0.70
  -8  -5   4    8.52    0.66
   8   5   4    9.38    0.41
   8  -5  -4    9.11    0.65
  -8   5  -4   10.20    0.91
   8   5   4    9.93    0.63
   8  -5  -4   10.06    0.97
  -8   5  -4   11.04    0.88
   8  -5  -4    9.36    0.61
   8  -5  -4    9.44    0.99
  -8  -5   4   10.02    0.96
   8  -5  -4   10.38    0.76
   8   6  -4    5.56    0.55
  -8   6   4    4.32    0.43
   8  -6   4    6.45    0.59
   8  -6   4    5.43    0.56
   8  -6   4    5.57    0.46
   8   6  -4    4.77    0.47
   8  -6   4    4.85    0.80
   8  -6   4    4.94    0.81
  -8   6   4    5.79    0.42
   8  -6  -4    5.20    0.66
   8  -6  -4    4.59    0.82
   8   6   4    5.70    0.52
   8  -6  -4    5.05    0.46
   8   6   4    5.29    0.32
   8   6   4    4.69    0.47
   8   6   4    5.30    0.59
   8   6   4    5.51    0.60
   8  -6  -4    4.50    0.75
  -8   6  -4    4.90    0.68
   8  -6  -4    5.12    0.52
  -8  -6   4    6.51    0.59
   8   6   4    5.12    0.53
   8   7  -4    1.04    0.24
  -8   7   4    1.34    0.26
   8  -7   4    1.57    0.30
   8   7  -4    0.75    0.26
  -8   7   4    1.31    0.17
   8  -7   4    1.14    0.34
   8  -7  -4    0.92    0.27
   8   7   4    1.44    0.30
  -8   7  -4    1.01    0.34
   8  -7  -4    0.98    0.24
  -8  -7   4    1.44    0.34
   8   7   4    1.41    0.32
  -8   7  -4    0.81    0.23
  -8  -7   4    1.43    0.35
  -8  -7   4    1.58    0.30
   8   7   4    1.74    0.36
   8   7   4    1.22    0.28
   8   7   4    1.16    0.19
   8  -7  -4    1.21    0.35
   8   7   4    1.42    0.33
  -8  -8  -4    7.35    0.61
   8  -8   4    7.54    0.51
   8   8  -4    6.59    0.40
  -8   8   4    7.82    0.52
   8   8  -4    7.49    0.55
   8  -8   4    7.91    0.64
  -8   8  -4    6.48    0.73
  -8  -8   4    8.09    0.54
  -8   8  -4    7.00    0.50
  -8  -8   4    7.56    0.65
  -8  -8   4    7.70    0.65
   8   8   4    7.85    0.53
   8  -8  -4    6.25    0.52
   8   8   4    6.80    0.56
   8   8   4    7.85    0.63
   8   8   4    7.41    0.40
   8   8   4    7.44    0.55
   8  -8  -4    7.03    0.58
  -8  -9  -4    6.60    0.55
   8  -9   4    7.24    0.47
   8  -9   4    7.44    0.56
  -8   9   4    7.37    0.46
   8   9  -4    6.59    0.48
  -8   9  -4    6.21    0.45
  -8   9  -4    5.87    0.57
   8   9   4    6.58    0.51
   8   9   4    7.31    0.36
   8   9   4    6.86    0.50
   8  -9  -4    5.87    0.50
   8  -9  -4    5.70    0.54
   8  -9  -4    6.16    0.46
   8   9   4    6.36    0.55
  -8  -9   4    6.34    0.51
  -8  -9   4    6.28    0.45
  -8  10   4   13.11    0.55
   8  10  -4   13.62    0.62
   8 -10   4   13.57    0.55
   8 -10  -4   14.05    0.62
  -8  10  -4   14.04    0.58
   8  10   4   13.88    0.63
   8 -10  -4   13.79    0.65
   8  10   4   12.93    0.62
  -8 -10   4   13.07    0.57
  -8 -10   4   13.73    0.60
   8  10   4   13.41    0.45
  -8   0   5   14.86    1.05
   8   0  -5   16.68    1.25
   8   0  -5   18.12    1.26
   8   0  -5   16.12    0.81
   8   0  -5   17.45    0.97
   8   0   5   16.41    0.80
  -8   0   5   15.08    1.02
   8   0   5   16.37    1.13
   8   0   5   17.16    1.14
  -8   0  -5   18.04    1.13
   8   0   5   15.23    0.82
   8   1  -5   26.92    1.58
  -8   1   5   27.18    1.46
   8  -1   5   26.14    1.63
   8  -1   5   25.69    1.40
  -8  -1  -5   27.17    1.45
   8  -1   5   26.69    1.52
   8  -1   5   25.99    1.16
  -8   1   5   26.34    1.41
   8  -1   5   28.28    1.13
   8   1  -5   28.80    1.30
   8  -1   5   26.82    1.53
  -8   1  -5   27.56    1.22
   8  -1  -5   28.22    1.70
   8   1   5   26.43    1.16
   8  -1  -5   27.41    1.49
   8   1   5   26.53    1.47
   8  -1  -5   29.18    1.34
  -8  -1   5   26.40    1.45
  -8  -1   5   27.48    1.41
   8   1   5   25.68    1.11
  -8  -1   5   27.06    1.15
   8  -1  -5   29.07    1.63
   8   1   5   27.23    1.56
   8  -1  -5   28.18    1.15
  -8  -1   5   26.92    1.49
   8  -2   5   62.75    2.57
  -8   2   5   65.36    2.61
   8  -2   5   63.06    2.15
   8  -2   5   62.82    2.78
   8  -2   5   62.09    2.95
   8  -2   5   64.81    2.26
  -8  -2  -5   64.59    2.58
   8   2  -5   66.43    2.83
  -8   2   5   64.81    2.55
   8   2  -5   66.75    2.40
   8   2   5   64.05    2.17
  -8  -2   5   63.37    2.60
   8  -2  -5   61.93    3.01
   8   2   5   65.53    2.26
   8  -2  -5   63.94    2.45
   8  -2  -5   63.33    2.19
   8   2   5   62.70    2.15
   8  -2  -5   65.08    2.82
  -8   2  -5   63.53    2.55
   8  -2  -5   66.74    2.90
  -8  -2   5   62.33    2.64
   8   2   5   62.52    2.80
  -8  -2   5   64.67    2.27
  -8  -2   5   60.79    2.53
  -8   3   5    5.29    0.76
   8  -3   5    5.16    0.48
   8  -3   5    5.05    0.78
   8  -3   5    5.10    0.46
   8  -3   5    4.57    0.68
   8  -3   5    4.89    0.84
   8   3  -5    5.79    0.54
   8   3   5    5.08    0.45
  -8  -3   5    4.34    0.67
   8  -3  -5    5.21    0.71
   8  -3  -5    5.65    0.48
  -8  -3   5    5.91    0.84
  -8  -3   5    5.12    0.49
   8  -3  -5    5.32    0.78
   8  -3  -5    4.51    0.81
   8   3   5    5.13    0.48
   8   3   5    5.40    0.48
  -8   3  -5    5.52    0.58
   8  -3  -5    7.29    0.65
   8  -4   5   40.41    2.12
   8  -4   5   41.58    1.63
   8  -4   5   40.46    1.57
   8  -4  -5   39.12    1.77
  -8   4  -5   39.52    1.96
  -8  -4   5   41.55    1.66
   8  -4  -5   41.21    2.18
   8   4   5   40.28    1.56
   8   4   5   41.57    1.59
   8  -4  -5   38.93    1.96
   8  -4  -5   41.09    1.60
  -8  -4   5   35.30    1.96
  -8   5   5   44.37    1.41
  -8   5   5   45.20    1.46
   8  -5   5   43.89    2.30
   8  -5   5   42.09    1.42
   8  -5   5   44.64    1.52
   8  -5   5   45.65    1.77
   8  -5   5   43.06    1.52
   8  -5   5   44.45    1.73
   8  -5   5   47.18    1.39
   8   5  -5   46.16    1.66
   8   5  -5   46.70    1.61
   8  -5  -5   47.10    1.77
   8  -5  -5   47.30    2.23
   8   5   5   41.55    1.17
   8   5   5   44.54    1.68
   8   5   5   45.44    1.72
   8   5   5   45.10    1.63
  -8   5  -5   48.08    2.06
   8  -5  -5   44.30    2.32
   8   5   5   44.13    1.75
   8   5   5   43.92    1.50
  -8  -5   5   44.00    1.65
   8  -5  -5   45.81    1.95
  -8  -5   5   44.22    1.81
   8  -5  -5   45.96    1.63
   8  -6   5   26.24    1.18
   8  -6   5   25.80    1.03
   8  -6   5   23.80    1.01
   8   6  -5   24.58    1.08
   8  -6   5   23.00    1.62
  -8   6   5   24.23    0.97
   8   6  -5   23.42    1.06
   8  -6   5   26.09    0.96
   8  -6   5   25.11    1.17
   8  -6   5   25.89    0.95
   8  -6  -5   23.10    1.14
   8  -6  -5   23.84    1.06
   8   6   5   25.11    1.08
   8   6   5   24.08    1.15
  -8  -6   5   25.01    1.00
  -8  -6   5   24.22    1.11
   8  -6  -5   24.26    1.30
   8   6   5   24.98    1.10
   8   6   5   25.23    1.17
  -8   6  -5   23.40    1.34
   8  -6  -5   22.42    1.57
   8   6   5   24.09    0.75
  -8  -6   5   24.35    1.21
  -8   7   5    6.73    0.48
   8   7  -5    5.93    0.52
   8  -7   5    7.39    0.54
   8  -7   5    7.51    0.61
   8   7   5    6.58    0.59
   8  -7  -5    6.32    0.72
  -8  -7   5    5.95    0.50
   8   7   5    7.02    0.34
  -8  -7   5    7.29    0.64
  -8   7  -5    6.68    0.72
   8   7   5    7.21    0.54
   8  -7  -5    6.07    0.50
   8  -7  -5    6.16    0.55
  -8  -7   5    7.14    0.56
   8   7   5    6.96    0.54
   8   7   5    7.49    0.62
  -8   7  -5    7.28    0.48
   8   8  -5    1.89    0.33
  -8  -8  -5    1.43    0.33
   8  -8   5    2.03    0.32
   8   8  -5    1.97    0.27
   8  -8   5    1.59    0.33
  -8   8   5    1.82    0.28
   8  -8  -5    2.05    0.33
   8   8   5    2.28    0.35
   8  -8  -5    1.55    0.30
  -8  -8   5    1.55    0.36
  -8   8  -5    1.63    0.29
  -8  -8   5    2.07    0.35
   8   8   5    2.01    0.37
  -8  -8   5    2.13    0.30
   8   8   5    1.78    0.32
   8   8   5    2.04    0.21
  -8   9   5   14.05    0.61
   8   9  -5   15.26    0.68
   8  -9   5   13.68    0.63
   8   9   5   13.86    0.67
   8  -9  -5   13.84    0.73
  -8  -9   5   14.07    0.63
   8   9   5   13.99    0.70
  -8   9  -5   15.09    0.65
   8  -9  -5   13.99    0.68
  -8  -9   5   13.10    0.63
   8   9   5   12.82    0.75
   8   9   5   13.43    0.46
   8  10  -5    8.75    0.44
  -8  10   5    7.92    0.39
   8 -10   5    7.96    0.40
   8 -10  -5    9.49    0.48
  -8  10  -5    8.62    0.41
   8 -10  -5    8.55    0.44
  -8 -10   5    8.10    0.41
  -8 -10   5    7.83    0.34
   8  10   5    9.16    0.46
   8  10   5    8.31    0.45
  -8   0   6   22.94    1.39
  -8   0   6   24.81    1.45
   8   0  -6   18.75    1.40
  -8   0  -6   19.01    1.33
   8   0   6   24.49    1.09
   8   0   6   24.08    1.02
   8   0  -6   21.82    1.20
   8   0   6   25.20    1.46
  -8  -1  -6   26.57    1.53
   8  -1   6   26.91    1.66
  -8   1   6   28.86    1.58
   8   1  -6   27.01    1.69
   8  -1   6   31.38    1.29
   8  -1   6   30.90    1.21
  -8   1   6   29.11    1.60
   8  -1   6   29.96    1.68
   8   1  -6   26.70    1.36
   8  -1  -6   26.90    1.60
   8   1   6   30.02    1.26
  -8  -1   6   30.58    1.24
  -8  -1   6   30.66    1.63
   8  -1  -6   26.39    1.18
   8  -1  -6   26.45    1.37
   8  -1  -6   26.20    1.67
   8   1   6   29.59    1.19
   8  -1  -6   26.41    1.82
   8  -2   6    5.64    0.86
   8   2  -6    5.18    0.82
   8  -2   6    4.95    0.49
   8  -2   6    5.07    0.46
  -8   2   6    4.71    0.74
   8  -2  -6    4.35    0.61
   8   2   6    4.88    0.80
   8  -2  -6    5.71    0.91
  -8   2  -6    5.23    0.55
   8  -2  -6    6.27    0.75
  -8  -2   6    4.91    0.49
   8  -2  -6    4.79    0.46
   8   2   6    5.18    0.50
  -8  -2   6    3.89    0.70
   8   2   6    4.96    0.45
  -8   3   6   17.54    1.25
   8  -3   6   16.63    0.83
   8   3  -6   20.10    1.06
   8  -3   6   18.69    0.92
   8  -3   6   17.10    0.83
   8  -3   6   19.16    1.38
   8  -3   6   18.21    0.97
   8  -3   6   17.68    0.66
   8   3  -6   19.10    0.90
   8  -3  -6   18.98    1.40
   8   3   6   17.22    0.89
  -8   3  -6   19.18    1.15
  -8  -3   6   16.95    0.83
   8   3   6   18.98    0.95
   8  -3  -6   19.37    0.94
  -8  -3   6   17.79    0.95
   8  -3  -6   20.47    1.30
   8  -3  -6   20.55    1.14
  -8  -3   6   15.83    1.29
   8  -4   6   10.01    0.57
   8   4  -6    8.45    0.70
   8  -4   6    7.97    0.56
   8   4  -6    8.86    0.60
   8  -4   6    9.35    0.61
  -8   4   6    9.22    0.55
   8  -4   6    9.36    0.47
   8  -4   6    9.15    0.67
   8  -4   6    8.63    1.08
   8  -4   6    8.85    0.65
   8  -4  -6    8.92    0.61
   8   4   6    9.13    0.65
   8  -4  -6    7.79    0.76
  -8  -4   6    9.13    0.69
   8  -4  -6    9.96    1.04
   8   4   6    9.58    0.64
  -8  -4   6    8.46    0.57
   8  -4  -6    8.18    1.01
   8   4   6    9.28    0.63
   8  -4  -6    8.76    0.63
  -8  -4   6    7.79    0.60
   8   4   6    8.98    0.28
   8  -5   6    9.46    0.69
   8  -5   6    9.18    1.17
   8  -5   6    9.03    0.61
   8  -5   6    8.73    0.64
   8  -5   6    9.27    0.54
   8  -5   6    8.05    0.56
   8  -5   6    8.99    0.50
   8   5  -6    8.08    0.60
  -8   5   6    8.75    0.54
   8   5  -6    8.54    0.67
  -8  -5   6    8.34    0.67
   8   5   6    9.04    0.62
   8  -5  -6    6.25    0.92
   8  -5  -6    7.75    0.63
  -8  -5   6    8.30    0.59
  -8   5  -6    8.36    0.90
   8   5   6    8.43    0.31
   8   5   6    9.30    0.64
   8   5   6    9.11    0.66
   8  -5  -6    8.84    1.12
   8  -5  -6    8.70    0.61
   8  -5  -6    8.91    0.79
   8  -6   6    5.00    0.53
  -8   6   6    3.72    0.39
   8   6  -6    5.56    0.52
   8  -6   6    5.21    0.57
   8  -6   6    3.68    0.82
   8  -6   6    5.39    0.49
   8  -6   6    4.86    0.42
   8  -6   6    5.48    0.43
   8  -6   6    4.58    0.53
   8   6  -6    5.62    0.56
  -8  -6   6    4.21    0.55
  -8  -6   6    4.77    0.45
   8  -6  -6    6.13    0.55
   8   6   6    4.30    0.50
  -8   6  -6    5.13    0.70
   8   6   6    4.78    0.55
   8   6   6    4.32    0.47
   8   6   6    4.89    0.24
   8  -6  -6    4.26    0.47
   8  -6  -6    4.62    0.62
   8   6   6    4.75    0.53
   8  -7   6    2.42    0.33
   8  -7   6    2.97    0.39
   8  -7   6    2.65    0.41
   8   7  -6    1.14    0.27
  -8   7   6    2.00    0.30
   8  -7  -6    1.41    0.38
   8   7   6    2.11    0.38
   8   7   6    2.38    0.37
   8  -7  -6    1.22    0.27
  -8   7  -6    1.46    0.44
   8   7   6    2.12    0.16
  -8   7  -6    1.60    0.27
   8   7   6    1.73    0.32
   8  -7  -6    1.42    0.30
  -8  -7   6    2.28    0.41
  -8  -7   6    2.06    0.32
   8  -8   6    1.46    0.27
   8   8  -6    1.57    0.28
   8   8  -6    1.28    0.23
  -8   8   6    1.63    0.25
  -8  -8  -6    0.91    0.26
   8  -8   6    1.00    0.29
   8   8   6    1.55    0.32
   8   8   6    1.41    0.27
  -8  -8   6    1.42    0.24
   8  -8  -6    1.22    0.28
  -8  -8   6    1.67    0.24
  -8   8  -6    1.31    0.25
   8  -8  -6    0.94    0.23
   8   8   6    1.61    0.30
   8   9  -6    4.85    0.36
  -8   9   6    3.93    0.31
   8  -9   6    3.80    0.35
  -8   9  -6    4.71    0.35
   8  -9  -6    4.66    0.41
   8  -9  -6    4.38    0.35
  -8  -9   6    4.09    0.33
  -8  -9   6    3.97    0.25
   8   9   6    4.15    0.42
   8   9   6    4.28    0.36
   8   9   6    4.46    0.38
  -8  10   6    0.23    0.10
   8  10   6   -0.01    0.10
  -8  10  -6    0.32    0.12
   8 -10  -6    0.17    0.12
   8   0   7    6.23    0.57
  -8   0   7    6.25    0.39
   8   0   7    6.79    0.55
   8   0   7    6.70    0.57
   8   0  -7    7.47    0.72
  -8   0   7    9.04    1.08
   8   0   7    5.86    0.27
   8   0   7    7.85    1.02
  -8   0   7    7.45    0.55
   8   0  -7    8.06    1.08
  -8   0   7    6.87    0.52
   8   1  -7   50.91    2.59
   8  -1   7   53.43    1.88
  -8   1   7   52.51    2.45
  -8   1   7   53.53    1.75
   8  -1   7   51.49    1.69
   8  -1   7   52.40    2.01
   8  -1   7   53.35    2.59
  -8   1   7   52.68    1.77
  -8   1   7   52.78    1.53
   8  -1   7   52.60    1.35
   8  -1   7   51.79    1.74
   8   1  -7   53.00    2.19
   8   1   7   54.55    2.02
  -8  -1   7   50.78    1.77
   8  -1  -7   53.38    2.22
  -8  -1   7   51.61    1.75
   8  -1  -7   50.39    2.57
   8   1   7   54.57    1.89
   8  -1  -7   55.32    2.72
  -8  -1   7   51.97    1.64
  -8  -1   7   49.94    2.43
   8  -2   7    6.23    0.56
   8  -2   7    5.55    0.53
  -8   2   7    5.62    0.48
   8   2  -7    5.21    0.85
   8  -2   7    4.55    0.48
  -8   2   7    3.85    0.73
  -8   2   7    4.75    0.47
   8  -2   7    6.43    0.96
   8  -2   7    5.64    0.49
   8  -2   7    5.36    0.31
  -8   2   7    5.53    0.50
  -8  -2   7    5.76    0.49
  -8  -2   7    5.56    0.42
   8  -2  -7    5.55    0.69
  -8  -2   7    5.76    0.55
   8  -2  -7    5.68    0.93
   8  -2  -7    7.10    1.05
  -8  -2   7    5.96    0.51
   8  -2  -7    6.06    0.52
   8   2   7    6.01    0.53
  -8   3   7    5.87    0.46
  -8   3   7    6.22    0.53
   8   3  -7    6.30    0.66
   8  -3   7    6.87    1.01
   8  -3   7    6.40    0.49
   8   3  -7    5.74    0.51
   8  -3   7    6.12    0.36
   8  -3   7    6.50    0.59
   8  -3   7    5.57    0.48
   8  -3   7    6.05    0.51
   8  -3   7    6.23    0.55
   8  -3  -7    7.10    0.56
   8  -3  -7    5.64    0.71
  -8  -3   7    5.52    0.42
   8  -3  -7    5.53    0.89
  -8  -3   7    5.40    0.49
   8   3   7    7.16    0.57
  -8  -3   7    5.72    0.55
   8  -4   7    3.28    0.49
  -8   4   7    3.38    0.41
   8  -4   7    3.49    0.42
   8   4  -7    4.51    0.57
   8  -4   7    3.01    0.37
   8  -4   7    2.93    0.68
   8  -4   7    2.15    0.35
   8   4  -7    3.41    0.41
  -8   4   7    3.26    0.38
   8  -4   7    2.80    0.29
   8  -4   7    2.36    0.38
  -8  -4   7    3.37    0.42
   8  -4  -7    3.31    0.55
   8   4   7    3.59    0.46
   8   4   7    3.63    0.48
   8  -4  -7    4.06    0.82
  -8  -4   7    3.09    0.45
   8  -4  -7    3.78    0.45
   8  -4  -7    5.40    0.46
  -8  -4   7    2.85    0.33
   8  -4  -7    4.40    0.83
  -8   5   7   11.68    0.63
   8  -5   7   12.66    0.81
   8  -5   7   11.98    0.67
   8  -5   7   11.60    0.72
   8  -5   7   11.21    0.55
   8   5  -7    9.76    0.67
   8   5  -7   11.37    0.76
   8  -5   7   12.20    0.62
   8  -5   7   11.33    0.66
   8  -5   7   12.01    1.27
   8  -5  -7   11.54    0.92
   8   5   7   11.28    0.70
   8  -5  -7   11.24    1.19
  -8  -5   7   10.94    0.77
   8  -5  -7   11.53    0.74
   8   5   7   11.93    0.78
   8  -5  -7    9.91    0.66
  -8   5  -7   10.43    1.08
  -8  -5   7   11.26    0.59
  -8  -5   7   10.83    0.66
   8  -6   7    3.97    0.45
   8   6  -7    4.50    0.49
   8  -6   7    3.67    0.40
   8  -6   7    3.04    0.34
  -8   6   7    2.74    0.34
   8  -6   7    3.38    0.34
   8   6  -7    4.45    0.50
   8  -6   7    3.79    0.47
  -8   6   7    3.14    0.37
   8  -6   7    3.61    0.49
  -8   6  -7    3.41    0.61
   8   6   7    3.53    0.43
  -8  -6   7    3.08    0.46
   8   6   7    3.45    0.41
   8   6   7    3.84    0.46
  -8  -6   7    3.41    0.34
   8  -6  -7    3.42    0.53
   8  -6  -7    3.65    0.43
   8  -6  -7    4.15    0.49
  -8   7   7    1.27    0.24
  -8   7   7    1.01    0.25
   8  -7   7    1.57    0.31
   8  -7   7    1.71    0.30
   8   7  -7    0.90    0.24
   8  -7   7    1.49    0.24
   8   7   7    1.46    0.30
   8  -7  -7    0.90    0.24
   8   7   7    1.02    0.27
   8   7   7    1.33    0.27
  -8  -7   7    1.16    0.19
   8  -7  -7    1.25    0.27
  -8   7  -7    0.83    0.23
  -8   8   7    3.77    0.32
   8   8  -7    4.50    0.34
   8  -8   7    3.72    0.34
   8   8  -7    4.44    0.38
   8  -8   7    4.72    0.39
  -8   8   7    4.05    0.33
   8   8   7    3.78    0.38
   8   8   7    4.67    0.40
   8   8   7    4.20    0.45
  -8   8  -7    4.37    0.36
   8  -8  -7    4.68    0.38
   8  -8  -7    4.05    0.40
   8  -9   7   10.19    0.47
  -8   9   7    9.35    0.42
   8   9  -7   10.89    0.48
   8  -9   7    9.69    0.43
  -8   9  -7    9.72    0.45
   8   9   7    9.56    0.46
   8  -9  -7    9.78    0.47
   8   9   7    9.93    0.49
   8   0  -8   27.95    1.83
   8   0  -8   30.42    1.53
   8   0   8   28.03    1.83
   8   0   8   30.71    1.20
   8   0   8   30.13    1.35
  -8   0   8   31.80    1.22
  -8   0   8   29.88    1.19
   8   1  -8   14.40    1.34
   8   1  -8   15.53    1.03
   8  -1   8   13.08    1.27
  -8   1   8   15.44    0.79
   8  -1   8   15.02    0.48
   8  -1   8   14.39    0.74
   8  -1   8   16.20    0.82
   8  -1   8   15.26    0.92
  -8   1   8   15.75    0.81
   8   1   8   15.37    0.91
  -8  -1   8   16.08    0.81
   8  -1  -8   16.40    1.07
  -8  -1   8   15.91    0.81
   8  -1  -8   17.08    1.36
   8  -2   8    5.80    0.59
   8  -2   8    5.56    0.94
  -8   2   8    5.99    0.49
  -8   2   8    5.34    0.52
  -8   2   8    5.07    0.51
   8   2  -8    6.13    0.72
   8  -2   8    4.86    0.29
   8   2  -8    6.79    1.02
  -8   2   8    5.61    0.47
   8  -2   8    4.97    0.48
  -8  -2   8    5.08    0.51
   8  -2  -8    6.65    0.72
   8  -2  -8    6.84    1.04
  -8  -2   8    5.81    0.47
  -8   3   8    1.25    0.26
   8   3  -8    0.86    0.39
   8  -3   8    1.12    0.30
   8   3  -8    0.41    0.22
   8  -3   8    1.37    0.19
  -8   3   8    1.56    0.28
  -8   3   8    0.91    0.27
   8  -3   8    1.13    0.59
   8  -3   8    1.26    0.28
   8  -3   8    1.24    0.32
   8  -3   8    1.14    0.28
  -8  -3   8    1.39    0.35
   8  -3  -8    0.64    0.39
   8  -3  -8    0.96    0.28
   8  -3  -8    0.38    0.48
  -8  -3   8    0.86    0.25
   8  -4   8   17.20    0.85
   8   4  -8   17.91    1.05
  -8   4   8   17.19    0.77
   8   4  -8   18.89    0.89
   8  -4   8   17.06    0.82
   8  -4   8   17.31    0.66
  -8   4   8   18.93    0.87
   8  -4   8   16.06    1.48
   8  -4   8   17.50    0.79
  -8   4   8   17.10    0.76
   8  -4   8   18.62    1.02
   8  -4  -8   17.71    1.15
   8  -4  -8   17.10    1.43
  -8  -4   8   17.14    0.84
  -8  -4   8   17.52    0.98
   8  -4  -8   17.76    0.92
   8  -5   8    2.27    0.34
   8   5  -8    2.34    0.36
   8  -5   8    2.34    0.27
   8  -5   8    2.13    0.34
   8  -5   8    2.53    0.43
  -8   5   8    2.24    0.33
   8   5  -8    2.02    0.40
   8  -5   8    2.29    0.30
  -8   5   8    2.52    0.37
  -8   5   8    2.12    0.30
   8  -5  -8    2.32    0.36
   8  -5  -8    1.72    0.46
   8   5   8    1.83    0.36
  -8  -5   8    2.47    0.35
   8   5   8    2.62    0.38
  -8  -5   8    2.39    0.40
   8  -6   8   13.62    0.69
   8   6  -8   13.69    0.77
   8   6  -8   13.98    0.74
   8  -6   8   14.33    0.60
  -8   6   8   13.88    0.64
   8  -6   8   13.48    0.64
  -8   6   8   13.51    0.63
   8  -6   8   14.09    0.70
   8  -6  -8   13.22    0.76
   8   6   8   13.73    0.73
   8   6   8   13.50    0.79
   8  -6  -8   12.64    0.68
  -8   7   8    8.09    0.46
   8  -7   8    8.29    0.56
  -8   7   8    8.31    0.46
   8  -7   8    8.06    0.49
   8  -7   8    8.09    0.43
   8   7  -8    7.62    0.50
   8  -7  -8    7.17    0.54
   8  -7  -8    7.71    0.49
   8   7   8    8.39    0.49
   8   7   8    8.33    0.51
   8   7   8    8.14    0.58
  -8   7  -8    7.51    0.46
   8   8  -8    4.61    0.32
   8   8  -8    4.15    0.34
  -8   8   8    5.23    0.32
   8  -8   8    6.06    0.33
   8  -8   8    5.29    0.35
   8   8   8    5.53    0.36
   8  -8  -8    5.34    0.36
   8   8   8    5.82    0.38
  -8   8  -8    4.90    0.33
   8   0  -9   80.99    3.03
   8   0  -9   72.71    3.45
  -8   0   9   76.42    2.43
   8   0   9   80.61    2.79
   8   0   9   78.99    2.40
  -8   0   9   80.74    2.41
   8   0   9   72.01    3.62
  -8   0   9   81.03    2.19
  -8   1   9    9.32    0.61
  -8   1   9   10.20    0.57
   8  -1   9    9.27    0.63
   8   1  -9   11.21    0.86
  -8   1   9    7.86    0.54
  -8   1   9    9.81    0.63
   8  -1   9    9.08    0.71
   8   1  -9    9.14    1.16
   8  -1   9    8.50    1.16
  -8  -1   9    9.77    0.63
  -8  -1   9   10.04    0.62
   8  -1  -9   10.22    0.88
   8  -1  -9    8.83    1.10
   8   2  -9   39.40    2.34
   8  -2   9   44.64    1.48
  -8   2   9   45.57    1.38
   8  -2   9   45.12    1.81
   8  -2   9   40.84    2.38
   8  -2   9   44.01    1.12
   8   2  -9   41.83    1.91
  -8   2   9   45.58    1.56
  -8   2   9   43.32    1.38
   8  -2   9   44.63    1.56
  -8   2   9   45.89    1.51
   8  -2  -9   42.15    1.96
  -8  -2   9   46.78    1.56
   8  -2  -9   41.48    2.35
  -8   3   9    2.08    0.30
   8  -3   9    2.12    0.34
  -8   3   9    1.60    0.28
   8  -3   9    2.03    0.33
   8  -3   9    1.74    0.19
   8  -3   9    2.35    0.44
   8   3  -9    2.51    0.36
  -8   3   9    1.49    0.29
   8   3  -9    2.78    0.52
   8  -3   9    1.78    0.32
  -8  -3   9    2.68    0.36
   8  -3  -9    2.66    0.55
   8   4  -9    3.63    0.44
   8  -4   9    4.00    0.40
  -8   4   9    2.76    0.32
   8  -4   9    4.05    0.44
  -8   4   9    2.39    0.29
   8  -4   9    3.60    0.41
   8  -4   9    3.33    0.27
  -8   4   9    3.68    0.41
   8  -4   9    2.93    0.47
   8  -4  -9    2.76    0.41
  -8  -4   9    3.34    0.47
   8  -4  -9    2.39    0.54
  -8  -4   9    3.16    0.38
  -8   5   9   15.73    0.73
  -8   5   9   15.14    0.68
   8  -5   9   15.07    0.69
   8  -5   9   15.33    0.59
   8   5  -9   17.65    0.99
   8  -5   9   15.03    0.74
   8   5  -9   16.55    0.78
   8  -5   9   15.43    0.73
  -8  -5   9   16.46    0.73
   8  -5  -9   16.10    0.83
   8  -6   9    2.89    0.26
  -8   6   9    3.15    0.33
  -8   6   9    2.90    0.28
   8  -6   9    3.63    0.37
   8   6  -9    3.85    0.41
   8   6  -9    3.91    0.39
  -8   6   9    3.28    0.33
   8  -6   9    3.04    0.33
   8  -6   9    2.80    0.31
   8  -6  -9    4.06    0.43
   8  -7   9    1.95    0.28
   8  -7   9    2.63    0.28
  -8   7   9    1.88    0.22
   8   7  -9    2.17    0.27
  -8   7   9    1.83    0.20
   8  -7   9    2.53    0.23
   8   7  -9    2.51    0.28
   8   7   9    1.88    0.25
  -8   7  -9    1.87    0.24
  -8   8   9    3.24    0.23
   8  -8   9    3.45    0.21
  -8   0  10   14.79    0.74
  -8   0  10   15.55    0.68
   8   0  10   15.61    0.77
  -8   0  10   15.37    0.77
   8   0 -10   13.60    1.01
  -8   1  10   31.12    1.13
   8   1 -10   28.84    1.45
   8  -1  10   29.64    1.15
  -8   1  10   31.57    1.17
   8  -1  10   28.16    1.33
  -8   1  10   29.72    1.00
  -8   1  10   30.44    1.03
  -8  -1  10   29.36    1.04
   8  -1 -10   27.57    1.46
  -8  -1  10   29.43    1.13
  -8  -1  10   28.98    1.16
   8   2 -10    6.20    0.51
  -8   2  10    8.48    0.55
  -8   2  10    8.19    0.47
   8  -2  10    8.50    0.67
   8  -2  10    8.18    0.57
  -8   2  10    8.23    0.49
  -8  -2  10    9.15    0.57
   8  -3  10    3.14    0.35
  -8   3  10    2.45    0.30
   8   3 -10    2.09    0.33
  -8   3  10    2.69    0.29
   8  -3  10    2.87    0.16
  -8   3  10    2.60    0.34
   8  -3  10    2.39    0.35
  -8  -3  10    2.36    0.33
   8  -4  10   11.16    0.56
   8  -4  10   10.52    0.37
  -8   4  10   10.65    0.51
   8  -4  10   10.02    0.54
  -8   4  10   10.55    0.58
  -8   4  10   10.43    0.49
   8  -4  10   11.03    0.61
   8   4 -10   10.40    0.60
  -8  -4  10   10.22    0.56
   8   5 -10    3.52    0.40
  -8   5  10    3.09    0.27
   8  -5  10    3.46    0.35
   8  -5  10    3.48    0.33
   8  -5  10    3.29    0.21
  -8   5  10    3.39    0.28
   8   5 -10    3.30    0.35
  -8   5  10    3.02    0.32
   8  -5  10    3.54    0.34
  -8  -5  10    2.91    0.31
   8  -6  10    3.65    0.21
   8  -6  10    3.52    0.32
  -8   6  10    3.58    0.24
  -8   6  10    3.29    0.29
  -8   6  10    3.73    0.26
   8   6 -10    3.91    0.32
   8  -6  10    3.61    0.30
  -8   6 -10    3.61    0.29
  -8   7  10    0.97    0.12
   8   7 -10    1.36    0.18
   8   0  11    7.58    0.50
  -8   0  11    7.14    0.41
  -8   0  11    7.24    0.47
  -8   0  11    7.87    0.49
  -8   1  11   23.43    0.82
  -8   1  11   23.64    0.89
   8  -1  11   24.18    0.93
  -8   1  11   23.62    0.93
  -8   1  11   23.73    0.80
  -8  -1  11   24.33    0.92
  -8  -1  11   23.00    0.82
  -8   2  11    4.16    0.37
  -8   2  11    5.02    0.32
   8  -2  11    5.24    0.42
   8   2 -11    5.28    0.40
  -8   2  11    4.53    0.34
  -8  -2  11    5.35    0.35
  -8  -2  11    4.65    0.38
   8  -3  11    1.12    0.23
   8  -3  11    0.73    0.21
  -8   3  11    0.84    0.15
  -8   3  11    0.61    0.16
  -8   3  11    0.69    0.19
   8   3 -11    0.60    0.18
  -8  -3  11    0.52    0.17
  -8  -3  11    0.56    0.18
  -8   4  11   17.18    0.69
  -8   4  11   18.55    0.64
  -8   4  11   16.49    0.58
   8   4 -11   18.17    0.72
   8  -4  11   18.26    0.66
   8  -4  11   17.84    0.72
  -8  -4  11   18.24    0.70
  -8   5  11    3.97    0.27
   8   5 -11    4.85    0.35
  -8   5  11    4.10    0.22
   8   5 -11    4.61    0.31
   8  -5  11    4.35    0.32
  -8   5  11    3.71    0.29
  -8  -5  11    4.25    0.28
   8   0 -12   14.56    0.60
  -8   0  12   12.44    0.54
  -8   0  12   12.60    0.47
   8   1 -12    4.28    0.32
   8  -1  12    3.19    0.30
  -8   1  12    3.18    0.24
  -8  -1  12    3.37    0.28
  -8  -1  12    3.18    0.24
  -8   2  12    8.46    0.33
   8  -2  12    8.54    0.44
  -8   2  12    8.58    0.36
   8   2 -12    8.08    0.43
  -8   2  12    8.13    0.42
  -8  -2  12    7.80    0.41
  -8  -2  12    8.39    0.37
  -8   3  12    7.82    0.29
   8   3 -12    7.31    0.38
  -8   3  12    8.06    0.38
   8  -3  12    7.68    0.40
  -8  -3  12    7.01    0.37
  -8  -3  12    7.31    0.34
  -9   0   0    0.20    0.17
  -9   0   0    0.11    0.24
  -9   0   0    0.19    0.19
   9   0   0    0.10    0.20
   9   0   0    0.45    0.26
   9   0   0    0.01    0.13
   9   0   0    0.10    0.13
   9  -1   0  169.63    5.06
  -9   1   0  174.26    5.45
  -9  -1   0  172.96    5.66
   9  -1   0  175.26    6.13
   9  -1   0  179.09    6.03
  -9  -1   0  175.90    6.28
  -9   1   0  173.61    5.67
   9   1   0  183.18    6.15
  -9   1   0  177.07    6.29
   9   1   0  179.02    5.92
   9  -1   0  171.37    5.30
   9   1   0  172.52    5.08
  -9  -1   0  175.02    5.51
   9   1   0  179.13    5.34
   9  -2   0    5.16    0.72
  -9   2   0    5.39    0.54
   9  -2   0    5.18    0.39
  -9   2   0    5.31    0.56
   9   2   0    5.69    0.73
  -9  -2   0    6.71    0.57
   9  -2   0    5.59    0.63
  -9   2   0    5.09    0.58
  -9  -2   0    5.44    0.53
  -9  -2   0    5.50    0.55
   9  -2   0    5.83    0.74
  -9  -2   0    6.26    0.68
  -9  -2   0    6.61    0.75
   9   2   0    5.39    0.40
  -9  -2   0    5.44    0.44
   9  -2   0    4.92    0.40
   9   3   0   21.40    0.93
  -9  -3   0   20.54    1.13
   9  -3   0   20.23    0.90
  -9  -3   0   20.59    1.14
   9   3   0   21.34    0.93
  -9  -3   0   21.88    1.00
   9  -3   0   22.26    1.36
   9  -3   0   21.13    1.38
  -9   3   0   21.71    1.11
  -9  -3   0   21.41    1.13
  -9  -3   0   20.18    1.19
  -9   3   0   21.01    1.21
   9  -3   0   21.50    1.31
   9   3   0   21.01    1.31
  -9  -3   0   20.70    1.21
  -9  -4   0   14.74    1.06
   9  -4   0   15.66    0.77
   9   4   0   15.07    0.78
   9   4   0   16.23    1.19
  -9   4   0   15.15    0.92
   9   4   0   14.33    0.75
   9  -4   0   14.70    1.10
  -9  -4   0   14.12    0.98
  -9  -4   0   14.20    1.02
  -9  -4   0   14.51    0.80
   9  -4   0   15.27    1.19
  -9  -4   0   15.16    1.03
   9  -4   0   13.54    1.18
   9  -4   0   15.45    0.80
  -9  -4   0   14.35    1.01
   9   5   0   73.89    2.48
  -9  -5   0   72.94    3.11
  -9   5   0   73.64    2.72
  -9  -5   0   73.06    3.16
   9  -5   0   71.45    2.42
   9  -5   0   73.03    3.14
  -9  -5   0   75.99    2.88
   9   5   0   74.25    2.48
  -9  -5   0   70.66    2.91
  -9  -5   0   66.96    3.15
  -9  -5   0   75.99    2.60
   9  -5   0   73.03    2.49
   9   6   0   10.98    0.69
   9  -6   0   12.42    1.13
   9   6   0   12.47    0.73
   9   6   0   10.81    0.60
   9  -6   0   11.94    0.68
  -9  -6   0   12.39    1.01
   9   6   0   11.98    0.75
  -9   6   0   11.72    0.79
   9  -6   0   11.57    0.72
  -9  -6   0   10.97    1.06
   9   6   0   12.06    0.69
   9  -6   0   10.66    0.69
  -9   6   0   10.92    0.63
  -9  -6   0   12.37    0.78
   9  -7   0    3.88    0.50
   9   7   0    2.75    0.37
   9  -7   0    3.92    0.49
  -9   7   0    3.44    0.47
  -9  -7   0    4.42    0.70
  -9   7   0    3.69    0.42
   9   7   0    3.65    0.46
   9   7   0    3.76    0.51
   9   7   0    3.16    0.41
   9   7   0    3.87    0.50
   9  -7   0    3.30    0.38
   9   7   0    3.73    0.42
  -9   8   0    3.44    0.44
   9   8   0    3.87    0.44
   9   8   0    4.56    0.43
   9  -8   0    5.08    0.57
   9   8   0    4.90    0.48
  -9  -8   0    5.38    0.75
  -9   8   0    4.40    0.43
   9  -8   0    5.08    0.44
  -9  -8   0    4.81    0.54
   9  -8   0    5.22    0.51
  -9   9   0    1.68    0.27
  -9   9   0    1.54    0.28
   9  -9   0    1.79    0.35
   9   9   0    1.78    0.29
  -9  -9   0    1.93    0.36
   9   9   0    1.81    0.30
  -9  -9   0    1.73    0.29
   9  -9   0    1.55    0.25
   9  10   0    4.90    0.35
   9  10   0    3.96    0.37
  -9  10   0    4.52    0.34
  -9 -10   0    3.96    0.34
  -9  11   0    3.51    0.24
   9  11   0    3.61    0.27
  -9   0  -1    0.65    0.27
  -9   0   1    0.64    0.21
  -9   0  -1    0.73    0.23
   9   0   1    0.44    0.17
   9   0   1    0.45    0.17
  -9   0   1    0.57    0.24
   9   0   1    0.70    0.30
   9   0  -1    1.05    0.34
  -9   0   1    0.87    0.30
   9   0   1    0.55    0.27
  -9   0   1    0.43    0.24
   9   0  -1    0.71    0.28
   9   1  -1   21.06    0.94
   9  -1   1   24.45    1.27
   9   1  -1   21.77    1.19
  -9  -1  -1   21.68    1.13
  -9   1   1   22.97    1.22
   9  -1   1   21.99    0.95
   9   1  -1   22.71    1.29
   9  -1   1   21.12    0.92
  -9   1   1   23.01    1.14
  -9  -1  -1   22.65    1.19
   9  -1   1   22.59    1.32
  -9   1   1   24.11    1.13
   9  -1  -1   22.33    1.28
  -9  -1   1   23.60    1.08
  -9   1  -1   22.98    1.12
  -9  -1   1   23.01    1.13
  -9   1  -1   22.85    1.17
   9   1   1   23.09    1.17
  -9  -1   1   23.44    1.11
   9   1   1   21.67    0.92
   9  -1  -1   22.64    1.27
  -9  -1   1   21.77    0.98
  -9  -1   1   22.83    1.22
   9   1   1   22.47    0.97
   9  -1  -1   21.15    1.25
  -9  -1   1   22.12    1.19
  -9   1  -1   23.39    1.16
   9  -1  -1   23.41    0.95
   9   1   1   24.16    1.34
   9   2  -1    1.92    0.42
   9  -2   1    1.51    0.24
  -9   2   1    1.64    0.38
  -9   2   1    1.52    0.38
   9  -2   1    1.86    0.43
  -9  -2  -1    1.44    0.33
  -9  -2  -1    1.27    0.35
  -9   2   1    1.64    0.34
   9  -2   1    2.02    0.45
   9  -2   1    2.81    0.35
  -9  -2  -1    1.02    0.29
   9   2  -1    1.82    0.28
   9  -2   1    1.96    0.45
  -9  -2   1    1.60    0.29
  -9   2  -1    1.45    0.34
  -9  -2   1    1.53    0.36
  -9  -2   1    1.96    0.39
  -9   2  -1    1.48    0.34
   9   2   1    1.55    0.42
  -9  -2   1    1.40    0.34
  -9  -2   1    1.49    0.37
  -9  -2   1    1.66    0.38
   9  -2  -1    2.45    0.50
   9  -2  -1    1.97    0.29
   9  -2  -1    1.73    0.28
   9   2   1    1.39    0.25
   9  -2  -1    1.54    0.39
   9   2   1    1.76    0.27
  -9   2  -1    1.07    0.29
   9  -2  -1    1.47    0.43
   9  -3   1   14.71    1.10
  -9  -3  -1   13.59    0.88
  -9  -3  -1   14.25    1.00
   9  -3   1   16.43    1.08
   9   3  -1   13.34    0.71
   9   3  -1   14.17    1.06
   9  -3   1   14.80    0.73
  -9  -3  -1   13.70    0.91
  -9  -3  -1   14.84    0.79
  -9  -3  -1   15.15    0.95
   9  -3   1   13.97    1.11
   9  -3   1   14.84    0.73
   9   3  -1   15.22    0.73
  -9   3   1   15.32    0.88
  -9  -3   1   15.20    0.96
   9  -3  -1   13.49    1.11
  -9  -3   1   15.39    0.93
   9   3   1   14.52    0.73
   9  -3  -1   14.07    1.09
   9  -3  -1   14.63    0.70
  -9  -3   1   14.71    0.78
  -9  -3   1   15.35    0.99
   9   3   1   14.94    0.75
   9  -3  -1   13.90    0.75
   9   3   1   14.79    1.09
  -9  -3   1   15.24    0.97
  -9  -3   1   15.50    1.03
  -9   3  -1   14.64    0.96
  -9   3  -1   15.60    0.94
   9  -3  -1   14.34    1.07
  -9   3  -1   14.45    0.89
   9   4  -1    7.78    0.88
   9  -4   1    8.36    0.89
  -9  -4  -1    8.58    0.79
   9  -4   1    8.50    0.94
   9  -4   1    8.25    0.87
  -9   4   1    9.06    0.65
  -9  -4  -1    8.27    0.59
   9   4  -1    7.51    0.52
  -9  -4  -1    7.72    0.74
  -9  -4  -1    7.59    0.77
   9  -4   1    7.39    0.52
   9   4  -1    8.17    0.53
  -9  -4  -1    7.81    0.72
   9   4   1    8.30    0.89
  -9   4  -1    8.91    0.76
   9   4   1    7.85    0.55
  -9  -4   1    8.30    0.79
  -9  -4   1    8.19    0.76
   9  -4  -1    8.13    0.87
   9  -4  -1    7.15    0.54
  -9   4  -1    7.88    0.68
   9  -4  -1    6.57    0.95
  -9  -4   1    9.22    0.86
   9  -4  -1    8.35    0.53
  -9  -4   1    7.64    0.75
   9   4   1    8.06    0.56
  -9  -4   1    7.89    0.73
  -9  -4   1    7.69    0.59
   9  -4  -1    7.63    0.87
   9  -5   1   14.26    1.17
  -9  -5  -1   13.31    1.05
   9   5  -1   15.62    0.81
  -9  -5  -1   13.82    1.09
  -9  -5  -1   14.37    0.84
  -9  -5  -1   13.42    1.11
   9   5  -1   14.93    0.79
   9  -5   1   13.84    0.78
  -9   5   1   15.60    0.88
   9  -5  -1   14.90    0.77
  -9   5  -1   14.12    0.92
   9  -5  -1   14.68    0.81
   9  -5  -1   14.41    1.17
  -9  -5   1   13.84    1.07
   9   5   1   14.62    0.80
  -9  -5   1   14.65    1.01
  -9  -5   1   15.94    0.86
  -9  -5   1   14.53    1.14
   9   5   1   14.15    0.80
   9  -6   1    6.90    0.50
  -9  -6  -1    7.56    0.90
   9   6  -1    7.45    0.55
   9   6  -1    6.71    0.55
   9   6  -1    7.64    0.59
  -9   6   1    7.06    0.64
   9  -6   1    8.26    1.08
  -9   6   1    6.80    0.51
   9  -6   1    7.78    0.59
   9   6  -1    7.30    0.52
  -9  -6  -1    7.89    0.61
   9   6   1    6.93    0.57
   9  -6  -1    7.36    0.60
   9   6   1    6.84    0.53
   9  -6  -1    6.95    0.95
   9   6   1    6.88    0.60
  -9   6  -1    6.44    0.51
   9  -6  -1    7.31    0.58
   9   6   1    6.56    0.53
   9  -6  -1    8.00    0.57
   9  -6  -1    7.31    0.58
   9   6   1    7.79    0.46
   9   6   1    7.17    0.56
  -9  -6   1    7.84    0.62
  -9  -6   1    8.12    0.91
  -9   6  -1    7.02    0.67
  -9   7   1    1.18    0.27
   9  -7   1    1.13    0.26
   9   7  -1    1.09    0.27
   9   7  -1    1.23    0.30
   9  -7   1    1.44    0.32
  -9  -7  -1    1.14    0.50
  -9   7   1    0.97    0.30
  -9   7  -1    1.32    0.26
  -9  -7   1    1.12    0.45
  -9  -7   1    1.54    0.33
   9   7   1    1.59    0.36
  -9  -7   1    1.90    0.38
   9   7   1    1.26    0.29
   9  -7  -1    1.92    0.36
   9  -7  -1    0.89    0.27
   9   7   1    1.42    0.34
   9   7   1    0.80    0.20
   9  -7  -1    0.79    0.27
   9   7   1    1.44    0.32
   9   7   1    1.20    0.26
  -9  -8  -1    0.49    0.40
  -9   8   1    0.06    0.17
   9  -8   1    0.35    0.18
  -9  -8  -1    0.37    0.24
  -9   8   1    0.28    0.22
   9   8  -1    0.29    0.20
   9  -8   1    0.49    0.23
   9   8  -1    0.29    0.21
   9   8   1    0.08    0.17
   9   8   1    0.18    0.16
   9   8   1    0.29    0.22
   9   8   1    0.43    0.21
   9   8   1    0.37    0.21
  -9  -8   1    0.30    0.22
  -9   8  -1    0.16    0.27
  -9   8  -1    0.14    0.18
   9  -8  -1    0.40    0.23
   9  -8  -1    0.23    0.22
   9  -8  -1    0.23    0.22
  -9  -8   1    0.28    0.33
  -9   9   1    3.88    0.38
   9   9  -1    3.39    0.39
  -9  -9  -1    3.65    0.46
   9  -9   1    3.64    0.31
  -9   9   1    3.37    0.33
   9  -9   1    4.29    0.47
  -9  -9   1    3.56    0.40
  -9   9  -1    4.63    0.42
   9   9   1    3.20    0.37
   9   9   1    4.06    0.37
  -9  -9   1    3.88    0.49
  -9   9  -1    3.54    0.42
   9  -9  -1    3.98    0.42
   9  -9  -1    4.28    0.41
   9   9   1    3.93    0.43
  -9  10   1    2.85    0.29
   9  10  -1    3.05    0.34
  -9 -10  -1    2.37    0.28
   9  10   1    3.14    0.29
   9  10   1    2.25    0.29
  -9  10  -1    2.74    0.31
   9 -10  -1    2.66    0.26
  -9 -10   1    2.62    0.29
  -9  10  -1    2.74    0.26
   9  11  -1    1.52    0.19
  -9  11   1    1.49    0.17
   9  11   1    1.50    0.20
  -9 -11   1    1.41    0.17
  -9  11  -1    1.55    0.18
  -9   0   2    0.70    0.27
  -9   0   2    0.39    0.18
   9   0   2    0.59    0.27
   9   0   2    0.25    0.15
  -9   0   2    0.14    0.21
  -9   0   2    0.29    0.21
  -9   0   2    0.35    0.24
   9   0  -2    0.55    0.27
  -9   0  -2    0.24    0.20
  -9   0  -2    0.48    0.20
   9   0  -2    0.51    0.29
   9   0   2    0.36    0.17
  -9   0   2    0.35    0.24
   9   0   2    0.14    0.23
  -9   1   2   20.90    1.04
   9  -1   2   20.04    0.89
  -9   1   2   21.04    1.09
   9   1  -2   20.65    1.20
   9  -1   2   20.01    1.23
   9   1  -2   21.51    1.22
   9  -1   2   20.02    0.90
  -9  -1  -2   20.22    1.15
   9  -1   2   19.77    1.20
  -9   1   2   21.00    1.16
  -9   1   2   20.85    0.90
  -9  -1  -2   20.73    1.04
  -9  -1   2   20.23    1.03
   9   1   2   20.44    0.92
  -9  -1   2   21.44    1.18
  -9   1  -2   20.96    1.08
   9  -1  -2   21.70    1.24
   9  -1  -2   21.22    1.25
  -9  -1   2   19.65    1.11
  -9  -1   2   19.78    1.10
   9  -1  -2   21.47    1.26
  -9  -1   2   20.86    1.07
  -9  -1   2   19.93    0.92
   9   1   2   19.95    1.24
  -9   1  -2   20.13    1.12
   9   1   2   19.91    1.11
   9   1   2   19.74    0.88
   9  -2   2   65.06    2.21
   9  -2   2   61.17    2.14
  -9  -2  -2   67.40    2.54
   9  -2   2   65.18    2.83
  -9   2   2   64.81    2.39
   9   2  -2   70.52    2.72
   9  -2   2   64.74    2.71
  -9  -2  -2   69.95    2.61
   9  -2   2   64.23    2.78
   9   2   2   61.90    2.15
  -9   2  -2   68.84    2.48
   9  -2  -2   70.61    2.81
   9  -2  -2   69.45    2.81
  -9  -2   2   62.62    2.43
   9   2   2   61.08    2.19
  -9  -2   2   62.33    2.51
   9  -2  -2   71.91    2.29
   9  -2  -2   66.36    2.89
  -9   2  -2   67.80    2.67
  -9  -2   2   63.76    2.72
  -9  -2   2   61.63    2.41
   9   2   2   61.60    2.75
   9   2   2   63.69    2.25
   9  -2  -2   68.74    2.23
  -9  -2   2   63.63    2.48
  -9  -2   2   62.65    2.26
  -9  -3  -2   16.10    0.96
   9  -3   2   16.22    0.78
   9  -3   2   17.19    1.18
  -9  -3  -2   15.91    0.84
   9   3  -2   15.28    0.77
   9  -3   2   16.84    1.22
  -9  -3  -2   15.97    0.98
   9  -3   2   15.71    0.79
   9  -3   2   15.59    1.12
  -9   3   2   15.92    0.87
  -9  -3  -2   17.03    1.09
  -9  -3   2   16.16    1.04
   9  -3  -2   13.23    0.77
  -9  -3   2   14.44    0.82
  -9   3  -2   17.17    1.02
  -9  -3   2   14.92    1.02
   9  -3  -2   15.33    1.14
  -9   3  -2   16.00    1.01
   9  -3  -2   15.56    0.79
  -9  -3   2   16.27    1.08
   9  -3  -2   14.39    1.11
  -9  -3   2   16.45    1.09
   9   3   2   16.96    0.81
   9   3   2   15.99    1.17
   9  -3  -2   15.00    1.19
  -9  -3   2   17.87    0.99
   9   3   2   15.89    0.79
  -9   3  -2   15.26    0.95
  -9  -4  -2   88.26    3.55
  -9  -4  -2   84.22    3.27
  -9  -4  -2   86.54    3.01
   9  -4   2   89.87    3.91
  -9  -4  -2   84.35    3.21
   9  -4   2   93.40    2.95
   9  -4   2   90.59    2.89
  -9   4   2   94.70    3.07
   9   4  -2   85.54    2.88
  -9  -4  -2   86.02    3.32
   9  -4   2   92.27    3.74
   9  -4   2   97.39    3.67
  -9   4  -2   86.75    3.24
  -9  -4   2   90.71    3.33
  -9  -4   2   94.51    3.07
  -9  -4   2   97.22    3.31
   9  -4  -2   83.54    2.91
   9  -4  -2   88.08    3.64
  -9   4  -2   86.62    3.60
   9  -4  -2   87.64    3.70
  -9  -4   2   93.81    3.42
  -9  -4   2   90.43    3.39
   9   4   2   94.94    2.94
   9  -4  -2   85.33    3.03
   9   4   2   95.61    2.94
  -9  -4   2   91.12    3.71
   9  -4  -2   82.17    3.88
   9   4   2   90.07    3.73
   9  -5   2   31.53    1.79
   9  -5   2   32.25    1.32
   9   5  -2   32.14    1.28
  -9  -5  -2   30.66    1.34
  -9  -5  -2   28.48    1.64
  -9  -5  -2   28.35    1.63
  -9  -5   2   32.36    1.39
  -9   5  -2   29.94    1.48
   9   5   2   30.60    1.29
  -9  -5   2   30.30    1.67
   9  -5  -2   29.21    1.76
   9   5   2   31.47    1.32
   9  -5  -2   30.27    1.30
  -9  -5   2   33.10    1.56
  -9   5  -2   29.69    1.70
   9   6  -2   12.28    0.72
  -9   6   2   13.21    0.76
   9   6  -2   12.46    0.69
   9  -6   2   12.15    0.59
   9  -6   2   12.31    0.68
   9   6  -2   11.93    0.53
   9  -6   2   14.04    0.80
   9  -6   2   12.18    1.16
  -9   6   2   13.29    0.68
   9   6   2   13.13    0.78
  -9  -6   2   11.38    0.89
   9   6   2   13.49    0.71
   9  -6  -2   11.94    0.73
   9  -6  -2   11.74    0.75
   9   6   2   12.47    0.73
  -9  -6   2   13.03    0.82
  -9   6  -2   11.11    0.87
   9   6   2   12.89    0.57
   9  -6  -2   11.88    0.75
   9   6   2   13.07    0.73
  -9   6  -2   11.57    0.63
   9  -6  -2   12.24    1.15
   9   6   2   13.00    0.78
   9  -7   2   20.72    1.06
   9   7  -2   20.61    0.97
  -9   7   2   23.14    0.98
   9   7  -2   20.21    0.92
   9  -7   2   21.09    0.91
  -9   7   2   22.26    0.92
   9  -7   2   21.39    0.82
   9  -7   2   22.14    1.62
  -9  -7   2   21.65    1.05
  -9  -7   2   21.00    1.10
   9  -7  -2   20.86    1.06
  -9  -7   2   22.20    1.25
   9   7   2   21.18    1.07
   9   7   2   21.09    1.08
   9   7   2   21.60    0.79
  -9   7  -2   20.21    1.13
  -9   7  -2   20.73    0.90
   9   7   2   21.50    0.97
   9   7   2   21.40    0.93
   9   7   2   22.01    1.01
   9  -7  -2   20.32    1.00
   9  -7  -2   20.72    0.99
  -9  -8  -2    6.48    0.57
   9  -8   2    5.56    0.56
   9   8  -2    5.39    0.49
  -9  -8  -2    5.87    0.81
  -9   8   2    6.08    0.44
  -9   8   2    6.13    0.45
   9   8   2    6.21    0.41
   9  -8  -2    6.15    0.56
  -9   8  -2    6.05    0.47
   9  -8  -2    5.94    0.51
  -9   8  -2    4.62    0.53
   9   8   2    5.66    0.53
  -9  -8   2    5.83    0.57
   9  -8  -2    5.83    0.53
   9   8   2    5.99    0.48
  -9  -8   2    5.06    0.68
   9   8   2    5.99    0.49
   9   8   2    6.08    0.49
  -9   9   2    0.24    0.17
   9   9  -2    0.09    0.17
  -9  -9  -2    0.30    0.20
   9  -9   2    0.16    0.20
   9   9   2    0.27    0.18
   9  -9  -2    0.30    0.17
  -9   9  -2    0.40    0.23
  -9  -9   2    0.23    0.16
   9   9   2    0.24    0.21
  -9   9  -2    0.41    0.19
   9   9   2    0.17    0.21
   9   9   2    0.38    0.14
   9  -9  -2    0.42    0.20
  -9 -10  -2   -0.17    0.12
   9  10  -2    0.17    0.14
  -9  10   2    0.19    0.14
  -9  10  -2    0.19    0.15
  -9 -10   2    0.09    0.21
  -9  10  -2   -0.08    0.14
   9  10   2    0.11    0.10
   9  10   2    0.15    0.14
  -9 -10   2    0.12    0.14
   9 -10  -2    0.13    0.14
   9 -10  -2   -0.12    0.13
   9  10   2    0.09    0.15
  -9   0  -3    0.03    0.26
  -9   0  -3    0.21    0.17
  -9   0   3    0.26    0.25
  -9   0   3   -0.01    0.21
  -9   0   3    0.31    0.27
   9   0   3   -0.04    0.24
   9   0   3    0.04    0.13
   9   0   3   -0.01    0.23
  -9   0   3   -0.03    0.15
   9   0   3    0.00    0.14
   9   0  -3    0.12    0.17
   9   0  -3    0.17    0.27
  -9   0   3    0.06    0.18
   9   0  -3    0.09    0.23
   9  -1   3   16.41    1.07
  -9  -1  -3   15.96    1.03
   9  -1   3   15.30    0.76
  -9   1   3   17.08    0.84
  -9   1   3   14.89    0.96
   9  -1   3   15.96    1.11
  -9  -1  -3   14.34    0.81
   9  -1   3   16.05    0.78
   9   1  -3   15.73    1.07
  -9  -1   3   15.87    0.88
  -9  -1   3   15.73    0.79
   9  -1  -3   15.51    1.04
   9  -1  -3   15.16    0.80
  -9   1  -3   15.27    0.97
  -9   1  -3   15.09    0.87
  -9  -1   3   16.55    1.02
  -9  -1   3   14.18    0.97
   9  -1  -3   14.13    0.74
   9   1   3   14.95    0.74
   9   1   3   16.30    1.03
   9  -1  -3   14.55    1.06
   9  -1  -3   15.12    1.12
   9   1   3   14.88    1.07
   9   1   3   15.76    0.78
  -9  -1   3   15.34    0.99
   9  -2   3   32.46    1.69
   9  -2   3   31.32    1.24
  -9  -2  -3   31.48    1.56
   9  -2   3   32.16    1.66
  -9  -2  -3   30.65    1.38
   9   2  -3   32.47    1.25
   9  -2   3   30.78    1.74
   9  -2   3   30.83    1.26
  -9   2   3   29.22    1.25
   9   2   3   30.21    1.23
  -9  -2   3   32.52    1.58
   9  -2  -3   32.36    1.80
   9  -2  -3   30.34    1.25
   9  -2  -3   32.12    1.33
   9   2   3   31.91    1.23
   9  -2  -3   33.45    1.75
  -9  -2   3   30.41    1.50
  -9   2  -3   31.04    1.50
   9   2   3   30.21    1.26
  -9  -2   3   31.06    1.39
  -9  -2   3   31.17    1.53
   9   2   3   30.60    1.70
  -9   2  -3   30.13    1.51
   9  -2  -3   31.68    1.65
  -9  -2   3   31.91    1.30
   9  -3   3   12.61    1.01
   9  -3   3   13.34    1.06
   9   3  -3   11.18    0.66
  -9  -3  -3   12.10    0.96
   9  -3   3   11.96    0.69
  -9  -3  -3   11.42    0.78
   9  -3   3   11.23    1.04
   9  -3   3   12.33    0.68
  -9   3  -3   13.53    0.95
  -9  -3   3   11.93    0.96
   9   3   3   10.87    1.00
  -9  -3   3   12.72    0.93
   9  -3  -3   11.43    0.75
  -9  -3   3   11.98    0.80
  -9  -3   3   11.27    0.91
   9   3   3   11.89    0.71
   9  -3  -3   11.72    1.02
   9  -3  -3   11.85    0.69
  -9   3  -3   12.11    0.85
  -9  -3   3   11.91    0.71
   9  -3  -3   12.22    1.04
  -9   3  -3   11.53    0.86
   9   3   3   12.05    0.69
   9   3   3   12.34    0.69
   9  -3  -3   11.41    1.06
   9  -4   3    0.94    0.39
  -9  -4  -3    1.40    0.39
   9  -4   3    1.12    0.26
  -9  -4  -3    0.92    0.40
   9  -4   3    0.77    0.23
   9  -4   3    1.62    0.50
  -9  -4  -3    0.74    0.27
  -9  -4  -3    1.13    0.47
   9  -4  -3    1.06    0.47
   9   4   3    1.09    0.27
  -9   4  -3    0.99    0.34
  -9   4  -3    1.30    0.33
  -9  -4   3    1.58    0.38
  -9   4  -3    1.99    0.47
   9  -4  -3    0.67    0.28
   9   4   3    1.08    0.25
  -9  -4   3    0.95    0.39
   9  -4  -3    1.15    0.41
   9  -4  -3    1.45    0.30
  -9  -4   3    1.49    0.33
  -9  -5  -3   10.73    1.05
  -9   5   3   12.25    0.70
  -9  -5  -3   11.38    0.93
   9  -5   3   10.33    1.03
   9   5  -3   10.75    0.60
   9  -5   3   12.16    0.73
   9  -5   3   11.28    0.69
   9  -5   3   11.16    0.66
   9   5  -3   10.36    0.67
  -9  -5   3   12.34    0.85
   9  -5  -3   11.77    0.70
   9  -5  -3   10.86    0.77
   9  -5  -3   11.39    1.07
   9   5   3   10.54    0.69
  -9   5  -3   12.37    0.90
  -9  -5   3   10.84    0.75
  -9  -5   3   10.99    1.00
   9  -5  -3   10.61    0.71
   9   5   3   10.46    0.47
   9   5   3   11.86    0.72
   9   5   3   10.90    0.64
   9   5   3   10.59    0.66
  -9   5  -3   10.64    0.98
   9  -6   3   12.78    0.81
  -9   6   3   13.52    0.72
  -9   6   3   12.61    0.67
   9  -6   3   13.17    1.20
   9   6  -3   12.24    0.72
   9   6  -3   13.07    0.70
   9  -6   3   12.20    0.69
   9   6   3   13.59    0.82
   9  -6  -3   13.76    0.76
   9   6   3   12.95    0.75
   9  -6  -3   11.59    1.17
   9  -6  -3   12.74    0.78
  -9   6  -3   12.63    0.93
   9   6   3   12.49    0.71
   9   6   3   13.03    0.79
  -9  -6   3   13.43    0.93
  -9  -6   3   12.49    0.82
  -9   6  -3   12.60    0.66
   9   6   3   13.62    0.72
   9   6   3   12.48    0.54
   9  -7   3    2.34    0.35
   9   7  -3    2.40    0.26
   9  -7   3    1.96    0.39
   9   7  -3    2.06    0.34
   9  -7   3    2.46    0.71
  -9   7   3    2.56    0.35
  -9   7   3    2.85    0.33
  -9  -7   3    2.10    0.44
   9  -7  -3    1.55    0.31
   9  -7  -3    2.33    0.40
   9   7   3    1.71    0.30
   9  -7  -3    2.19    0.41
   9   7   3    1.72    0.35
   9   7   3    1.97    0.33
  -9   7  -3    2.15    0.32
  -9   7  -3    2.18    0.44
   9   7   3    2.82    0.28
   9   7   3    2.19    0.34
   9   7   3    2.00    0.37
  -9  -7   3    2.61    0.44
  -9   8   3    6.49    0.35
   9   8  -3    6.30    0.52
  -9   8   3    5.92    0.46
   9  -8   3    5.99    0.47
  -9  -8  -3    5.49    0.53
   9  -8   3    6.60    0.58
   9  -8  -3    5.95    0.54
   9   8   3    6.52    0.49
   9  -8  -3    5.33    0.48
   9   8   3    6.23    0.52
   9   8   3    5.90    0.37
   9   8   3    6.35    0.50
   9  -8  -3    5.62    0.56
  -9  -8   3    5.79    0.60
  -9   8  -3    6.09    0.46
  -9  -8   3    6.63    0.50
   9   8   3    7.07    0.59
  -9  -9  -3    2.18    0.35
   9   9  -3    2.80    0.36
  -9   9   3    2.60    0.31
   9  -9   3    2.16    0.29
   9  -9   3    2.13    0.35
  -9  -9   3    2.53    0.38
  -9   9  -3    2.14    0.29
  -9  -9   3    2.38    0.33
   9  -9  -3    2.29    0.32
  -9   9  -3    2.09    0.37
   9   9   3    2.09    0.34
   9  -9  -3    2.17    0.31
   9   9   3    2.62    0.35
   9   9   3    2.28    0.34
   9   9   3    2.27    0.25
  -9 -10  -3    1.61    0.22
  -9  10   3    1.62    0.22
   9  10  -3    1.58    0.24
   9  10   3    1.46    0.17
  -9  10  -3    1.89    0.23
   9 -10  -3    1.48    0.22
  -9 -10   3    1.83    0.27
  -9 -10   3    1.48    0.22
   9 -10  -3    1.76    0.25
  -9  10  -3    1.49    0.24
   9  10   3    1.69    0.24
   9  10   3    1.66    0.25
  -9   0   4    0.39    0.27
  -9   0   4    0.20    0.28
   9   0  -4   -0.01    0.25
  -9   0  -4    0.24    0.18
   9   0  -4   -0.01    0.14
   9   0   4    0.25    0.19
   9   0   4    0.01    0.29
  -9   0  -4   -0.20    0.20
  -9   0   4    0.46    0.18
  -9   0   4    0.22    0.24
   9   0  -4    0.09    0.18
  -9   0   4    0.31    0.22
   9   0   4    0.11    0.14
   9   0   4    0.29    0.28
   9   1  -4   18.88    0.90
  -9   1   4   19.77    1.17
  -9   1   4   19.56    1.16
   9   1  -4   18.86    1.27
  -9  -1  -4   19.52    1.20
   9  -1   4   19.25    0.93
   9  -1   4   19.93    1.25
   9  -1   4   20.41    1.30
   9  -1   4   19.93    0.91
   9  -1  -4   18.13    0.99
   9   1   4   19.87    0.95
   9  -1  -4   19.84    1.33
   9  -1  -4   17.51    1.30
  -9  -1   4   21.48    1.20
  -9  -1   4   18.38    1.18
   9   1   4   20.34    0.92
  -9   1  -4   18.54    1.16
  -9  -1   4   20.14    1.18
   9   1   4   19.63    0.89
  -9  -1   4   20.16    0.95
   9  -1  -4   18.75    0.89
  -9   1  -4   20.29    1.04
  -9  -1   4   19.49    0.93
   9   1   4   20.65    1.31
   9  -2   4    3.11    0.41
   9  -2   4    3.00    0.60
   9   2  -4    2.29    0.55
   9  -2   4    3.21    0.63
   9  -2   4    3.02    0.39
  -9  -2  -4    2.46    0.56
   9   2  -4    1.96    0.33
   9  -2   4    2.14    0.60
  -9  -2   4    2.16    0.47
  -9  -2   4    2.16    0.49
   9   2   4    2.91    0.61
   9   2   4    1.92    0.31
  -9  -2   4    2.32    0.55
   9  -2  -4    2.65    0.59
   9  -2  -4    1.71    0.55
  -9   2  -4    2.50    0.42
  -9  -2   4    2.86    0.41
  -9  -2   4    2.17    0.34
   9  -2  -4    1.92    0.37
   9   2   4    3.02    0.39
  -9   2  -4    2.65    0.54
   9  -2  -4    2.45    0.38
   9   2   4    2.44    0.37
   9  -3   4   59.80    2.08
   9  -3   4   56.82    2.44
   9  -3   4   57.13    2.64
   9  -3   4   56.78    2.84
   9  -3   4   56.77    2.65
  -9  -3  -4   62.21    2.52
   9  -3   4   60.04    2.13
  -9  -3   4   54.73    2.43
   9   3   4   59.51    2.08
   9   3   4   55.45    2.73
   9  -3  -4   62.37    2.12
   9   3   4   58.71    2.09
  -9  -3   4   57.25    2.51
   9  -3  -4   63.89    2.82
  -9   3  -4   61.01    2.56
   9   3   4   59.10    2.15
  -9  -3   4   60.13    2.22
  -9  -3   4   62.15    2.19
  -9  -3   4   57.74    2.51
   9  -3  -4   57.57    2.91
   9  -3  -4   64.59    2.32
  -9  -4  -4   68.45    2.42
   9  -4   4   66.97    2.33
   9  -4   4   68.38    2.38
   9  -4   4   67.10    3.00
  -9  -4  -4   69.71    2.87
  -9   4  -4   64.27    2.88
   9  -4  -4   66.26    2.34
  -9  -4   4   63.59    2.79
  -9   4  -4   68.28    2.66
   9   4   4   66.40    2.31
  -9  -4   4   68.10    2.46
   9   4   4   66.51    2.32
   9  -4  -4   61.91    2.96
   9  -4  -4   68.54    2.54
  -9  -4   4   68.73    2.44
  -9   5   4   85.19    2.38
   9  -5   4   85.31    2.48
   9  -5   4   83.90    3.59
   9  -5   4   83.94    2.50
  -9   5   4   82.56    2.60
   9  -5   4   86.23    2.84
   9   5  -4   84.41    2.60
   9  -5   4   85.51    2.88
   9  -5   4   82.44    2.27
   9   5  -4   85.14    2.64
   9   5   4   83.37    2.46
   9  -5  -4   86.26    2.67
   9  -5  -4   78.99    3.58
   9   5   4   87.03    2.87
   9   5   4   82.85    2.80
  -9  -5   4   86.22    2.97
   9   5   4   82.47    2.10
  -9   5  -4   84.94    3.17
  -9  -5   4   82.95    2.95
   9   5   4   83.51    2.66
   9  -5  -4   81.97    3.04
   9  -5  -4   83.48    2.85
  -9   6   4   40.93    1.38
  -9   6   4   39.19    1.35
   9  -6   4   39.35    1.62
   9  -6   4   40.08    1.42
   9  -6   4   39.30    2.19
   9   6  -4   41.12    1.50
   9   6  -4   43.28    1.45
   9   6   4   40.04    1.41
   9   6   4   40.97    1.16
   9   6   4   40.32    1.62
   9  -6  -4   41.93    1.64
   9  -6  -4   38.79    1.51
   9  -6  -4   37.85    1.70
   9   6   4   41.91    1.68
  -9  -6   4   41.96    1.72
   9  -6  -4   40.50    2.23
  -9   6  -4   42.19    1.90
   9   6   4   40.37    1.48
   9   6   4   40.25    1.53
  -9   6  -4   39.36    1.34
   9  -7   4    3.07    0.77
   9   7  -4    3.58    0.42
   9  -7   4    3.05    0.43
   9  -7   4    3.84    0.43
  -9   7   4    2.91    0.25
   9   7  -4    4.55    0.36
  -9   7   4    3.31    0.39
   9   7   4    3.39    0.46
  -9  -7   4    3.52    0.42
   9   7   4    3.09    0.39
  -9   7  -4    3.63    0.57
   9   7   4    3.59    0.48
  -9   7  -4    3.78    0.40
   9   7   4    2.84    0.40
   9  -7  -4    4.42    0.52
   9  -7  -4    4.37    0.48
  -9  -7   4    3.24    0.46
   9   7   4    3.46    0.40
   9   7   4    3.26    0.29
  -9  -7   4    4.12    0.53
   9  -8   4   22.08    0.89
   9  -8   4   21.69    1.06
  -9  -8  -4   19.92    1.00
  -9   8   4   21.30    0.86
   9   8  -4   20.76    0.95
   9   8   4   21.64    1.05
   9  -8  -4   22.23    0.97
   9   8   4   21.00    0.87
  -9  -8   4   21.02    0.88
  -9  -8   4   20.85    1.00
   9  -8  -4   21.62    1.01
  -9  -8   4   20.14    1.08
   9   8   4   20.15    0.93
   9  -8  -4   21.88    1.02
  -9   8  -4   21.97    0.88
   9   8   4   19.43    0.69
   9   8   4   20.55    0.97
  -9   9   4    8.29    0.47
   9   9  -4    8.65    0.53
   9  -9   4    8.96    0.48
   9   9   4    8.95    0.55
  -9  -9   4    8.09    0.54
   9  -9  -4    8.20    0.57
   9   9   4    8.43    0.53
  -9  -9   4    9.71    0.51
   9  -9  -4    8.94    0.53
   9  -9  -4    8.04    0.55
   9   9   4    8.74    0.37
  -9   9  -4    7.93    0.48
  -9   9  -4    8.17    0.59
   9   9   4    9.13    0.60
   9  10  -4    7.27    0.41
   9 -10   4    6.92    0.35
  -9  10   4    7.92    0.37
  -9  10  -4    6.78    0.38
   9 -10  -4    5.92    0.38
  -9  10  -4    6.63    0.42
   9  10   4    8.06    0.43
   9  10   4    7.40    0.41
   9 -10  -4    6.48    0.40
  -9 -10   4    7.04    0.37
  -9 -10   4    7.28    0.38
  -9   0   5    0.25    0.31
   9   0  -5    0.07    0.18
   9   0  -5    0.49    0.36
   9   0  -5    0.05    0.19
   9   0   5    0.38    0.20
   9   0   5    0.18    0.34
  -9   0   5    0.18    0.29
  -9   0  -5    0.22    0.31
   9   0   5    0.05    0.15
   9   0   5    0.07    0.29
   9   1  -5    3.19    0.63
   9  -1   5    4.58    0.51
   9   1  -5    3.97    0.51
   9  -1   5    3.48    0.43
  -9   1   5    4.17    0.66
   9  -1   5    4.00    0.66
  -9  -1  -5    3.79    0.65
   9  -1   5    4.08    0.73
  -9   1   5    4.19    0.69
  -9  -1   5    5.24    0.74
  -9  -1   5    4.17    0.66
   9   1   5    3.75    0.69
  -9   1  -5    4.00    0.46
  -9   1  -5    4.85    0.77
   9  -1  -5    4.84    0.43
   9  -1  -5    4.75    0.82
  -9  -1   5    4.96    0.77
   9  -1  -5    4.45    0.58
   9   1   5    4.35    0.42
   9  -1  -5    3.14    0.65
   9   1   5    3.71    0.44
  -9  -1   5    3.91    0.47
  -9   2   5   25.51    1.47
   9   2  -5   24.12    1.57
   9  -2   5   26.68    1.14
  -9  -2  -5   26.93    1.55
   9  -2   5   27.12    1.63
   9  -2   5   26.98    1.77
   9  -2   5   28.66    1.22
   9   2  -5   27.71    1.24
  -9  -2   5   25.66    1.54
   9  -2  -5   25.94    1.65
  -9   2  -5   24.91    1.33
   9   2   5   25.80    1.13
   9   2   5   26.58    1.14
   9   2   5   24.80    1.62
  -9  -2   5   26.73    1.50
   9   2   5   26.78    1.19
   9  -2  -5   23.14    1.67
  -9  -2   5   27.57    1.21
   9  -2  -5   27.24    1.32
   9  -2  -5   26.08    1.15
   9  -3   5   34.50    1.41
   9  -3   5   35.32    1.47
   9  -3   5   34.47    1.95
   9  -3  -5   34.53    1.42
  -9  -3   5   34.97    1.85
  -9   3  -5   34.99    1.75
   9   3   5   35.93    1.42
   9  -3  -5   35.25    1.99
   9   3   5   35.79    1.48
   9  -3  -5   35.56    1.60
  -9  -3   5   36.86    1.51
   9   3   5   34.23    1.41
   9  -4   5    9.42    0.67
   9  -4   5    8.33    0.57
   9  -4   5    9.53    0.51
  -9   4   5    8.78    0.53
   9   4  -5    9.15    0.62
   9   4  -5    9.18    0.66
   9  -4   5   10.71    0.69
  -9   4   5    9.61    0.55
   9  -4   5    9.05    0.57
   9  -4   5   10.00    1.04
   9   4   5    9.48    0.65
  -9  -4   5   10.06    0.71
  -9  -4   5   10.19    0.69
   9   4   5    8.44    0.59
   9  -4  -5    9.08    0.61
   9  -4  -5    9.03    0.64
   9  -4  -5   10.00    1.05
   9   4   5    9.43    0.66
   9  -4  -5    9.27    0.74
   9   4   5    9.36    0.36
  -9  -4   5    9.97    0.63
   9   4   5    9.06    0.62
   9  -5   5    4.56    0.47
   9  -5   5    4.10    0.80
   9  -5   5    3.73    0.39
   9  -5   5    3.95    0.50
   9  -5   5    4.00    0.46
   9  -5   5    3.77    0.37
   9  -5   5    3.67    0.46
   9   5  -5    3.05    0.40
  -9   5   5    3.73    0.33
   9   5  -5    3.70    0.43
  -9   5   5    3.27    0.38
   9  -5  -5    3.76    0.55
   9   5   5    4.98    0.55
   9   5   5    3.45    0.43
  -9  -5   5    3.21    0.45
   9   5   5    4.12    0.47
   9  -5  -5    3.91    0.47
   9   5   5    3.61    0.24
  -9  -5   5    4.22    0.51
   9   5   5    4.14    0.52
  -9   5  -5    4.51    0.68
   9  -5  -5    3.73    0.78
   9  -5  -5    2.93    0.44
   9  -6   5    1.29    0.28
   9  -6   5    0.94    0.31
   9  -6   5    1.35    0.58
   9  -6   5    0.96    0.31
   9  -6   5    0.88    0.25
   9   6  -5    0.52    0.24
  -9   6   5    0.89    0.23
   9   6  -5    0.85    0.24
   9  -6   5    0.35    0.20
   9   6   5    1.01    0.26
   9   6   5    0.92    0.15
   9  -6  -5    1.56    0.31
   9   6   5    1.21    0.30
   9   6   5    0.98    0.27
   9   6   5    1.51    0.35
   9  -6  -5    1.01    0.36
  -9  -6   5    0.94    0.30
  -9   6  -5    1.20    0.25
   9  -6  -5    0.97    0.28
  -9   6  -5    0.76    0.40
  -9  -6   5    1.14    0.33
   9   6   5    1.08    0.26
  -9   7   5    0.05    0.16
   9   7  -5    0.34    0.22
   9  -7   5    0.27    0.24
   9  -7   5    0.01    0.18
   9   7  -5    0.19    0.18
  -9  -7   5    0.34    0.23
   9   7   5    0.52    0.23
   9  -7  -5    0.17    0.18
  -9   7  -5    0.02    0.17
  -9  -7   5    0.10    0.22
   9   7   5    0.30    0.21
  -9  -7   5    0.32    0.21
   9  -7  -5    0.03    0.30
   9   7   5    0.16    0.11
   9   7   5    0.19    0.19
  -9   7  -5    0.13    0.30
   9   7   5   -0.02    0.20
   9  -7  -5    0.40    0.21
   9  -8   5    2.26    0.32
   9   8  -5    2.18    0.34
   9   8  -5    2.41    0.23
  -9  -8  -5    2.01    0.36
   9  -8   5    1.87    0.37
  -9   8   5    1.84    0.27
   9   8   5    1.65    0.29
   9  -8  -5    0.90    0.23
   9   8   5    1.89    0.19
   9   8   5    1.73    0.30
  -9  -8   5    1.93    0.27
   9  -8  -5    1.78    0.32
   9   8   5    1.51    0.32
  -9   8  -5    1.97    0.29
  -9  -8   5    1.83    0.32
   9   9  -5    4.05    0.39
   9  -9   5    3.72    0.32
  -9   9   5    3.35    0.30
  -9  -9   5    3.84    0.32
   9  -9  -5    4.02    0.34
   9   9   5    3.17    0.33
   9  -9  -5    3.23    0.35
  -9   9  -5    3.97    0.33
  -9  -9   5    3.29    0.31
   9  -9  -5    4.34    0.40
   9   9   5    3.30    0.35
  -9   9  -5    3.36    0.39
   9   9   5    3.51    0.40
   9  10  -5    2.86    0.25
  -9  10   5    2.94    0.22
   9 -10  -5    2.91    0.25
   9 -10  -5    3.11    0.26
   9  10   5    3.09    0.25
   9  10   5    2.91    0.25
  -9  10  -5    2.95    0.25
   9   0   6    0.27    0.19
   9   0  -6   -0.20    0.31
   9   0  -6    0.36    0.23
  -9   0   6    0.11    0.33
   9   0   6    0.16    0.35
   9   0   6    0.22    0.19
   9  -1   6   16.54    0.88
   9   1  -6   15.12    1.24
   9  -1   6   15.54    0.83
   9  -1   6   14.30    1.21
  -9   1   6   14.82    1.18
   9   1  -6   15.55    0.95
   9   1   6   15.32    0.87
   9  -1  -6   14.20    1.24
   9  -1  -6   15.74    0.99
  -9  -1   6   14.66    0.84
  -9  -1   6   15.10    1.20
   9   1   6   14.93    0.82
   9  -1  -6   15.75    0.82
  -9   2   6   74.14    3.03
   9  -2   6   73.41    2.61
   9   2  -6   73.73    2.72
   9  -2   6   73.67    3.23
   9   2  -6   71.89    3.21
   9  -2   6   70.93    2.20
   9  -2   6   75.92    2.50
  -9   2   6   78.36    2.38
   9  -2   6   71.06    2.24
  -9   2   6   74.07    2.25
   9  -2   6   71.56    1.89
   9   2   6   75.98    2.62
  -9  -2   6   73.65    2.29
   9   2   6   76.27    2.50
  -9  -2   6   75.30    2.61
   9  -2  -6   74.14    2.80
   9  -2  -6   72.87    3.28
   9   2   6   73.14    2.25
  -9  -2   6   70.51    3.06
  -9  -2   6   72.63    2.34
   9  -2  -6   74.39    2.53
  -9   2  -6   73.43    2.98
   9  -3   6   15.62    0.77
   9  -3   6   16.78    0.87
   9  -3   6   16.62    0.63
   9  -3   6   16.87    0.91
   9   3  -6   14.91    0.80
   9   3  -6   14.48    0.89
   9  -3   6   14.88    1.28
  -9   3   6   15.84    0.65
   9   3   6   16.62    0.87
   9  -3  -6   13.93    0.99
   9  -3  -6   13.62    0.82
   9   3   6   16.01    0.88
  -9  -3   6   16.23    0.91
   9  -3  -6   13.66    1.25
   9   3   6   16.70    0.83
  -9  -3   6   15.86    0.78
  -9  -3   6   15.76    0.80
   9  -3  -6   15.26    0.81
   9   3   6   15.10    0.78
   9  -4   6   57.21    1.91
   9  -4   6   61.55    2.17
   9  -4   6   59.62    1.68
   9  -4   6   59.70    1.92
  -9   4   6   60.88    1.82
   9   4  -6   61.98    2.04
   9  -4   6   56.47    2.83
   9   4  -6   63.07    2.14
   9  -4   6   57.63    1.78
   9  -4   6   59.10    2.25
   9   4   6   62.58    2.22
  -9  -4   6   60.19    2.27
   9  -4  -6   61.61    2.04
   9   4   6   62.43    1.91
   9   4   6   61.63    2.05
  -9  -4   6   62.79    1.98
   9  -4  -6   60.99    2.43
   9  -4  -6   62.88    2.20
   9   4   6   61.22    2.16
   9  -4  -6   60.17    2.93
  -9  -4   6   58.88    2.02
   9  -5   6   21.12    1.09
   9  -5   6   20.54    0.88
   9  -5   6   22.37    1.12
   9  -5   6   20.62    1.60
   9  -5   6   22.11    0.97
   9  -5   6   19.87    0.93
   9  -5   6   21.90    0.84
   9   5  -6   23.38    1.02
  -9   5   6   21.26    0.89
   9   5  -6   23.40    1.05
   9   5   6   22.15    1.07
   9   5   6   22.91    1.10
  -9  -5   6   22.37    0.98
  -9   5  -6   22.06    1.37
   9  -5  -6   23.09    1.63
   9  -5  -6   23.74    1.10
   9  -5  -6   24.04    1.03
   9  -5  -6   23.05    1.24
   9   5   6   21.49    0.58
  -9  -5   6   21.98    1.13
   9   5   6   21.92    1.02
   9  -6   6    0.77    0.28
   9  -6   6    0.43    0.27
   9  -6   6    0.87    0.25
   9  -6   6    0.45    0.19
   9   6  -6    1.01    0.30
   9   6  -6    0.44    0.23
   9  -6   6    0.62    0.23
  -9   6   6    0.54    0.20
  -9   6  -6    0.88    0.35
   9   6   6    0.66    0.26
   9  -6  -6    0.87    0.25
   9  -6  -6    0.81    0.25
   9   6   6    0.60    0.24
  -9  -6   6    0.76    0.24
   9   6   6    0.61    0.25
   9   6   6    0.63    0.09
  -9  -6   6    0.61    0.29
   9  -6  -6    0.61    0.32
   9   7  -6   12.03    0.67
   9  -7   6    9.45    0.70
  -9   7   6   10.56    0.57
   9  -7   6   11.25    0.64
   9   7  -6   11.68    0.61
   9  -7   6   10.77    0.58
  -9  -7   6   10.28    0.74
   9   7   6   10.21    0.66
  -9   7  -6   12.80    0.62
   9   7   6   10.47    0.71
   9  -7  -6   11.86    0.70
   9  -7  -6   12.28    0.67
   9   7   6   10.39    0.63
  -9  -7   6   10.65    0.61
   9   8  -6    9.47    0.42
   9  -8   6    9.28    0.53
   9   8  -6    9.25    0.54
  -9   8   6    9.18    0.49
   9  -8   6    8.94    0.49
  -9   8  -6    9.72    0.52
   9  -8  -6    9.66    0.55
   9  -8  -6    9.01    0.59
   9   8   6    9.05    0.54
   9   8   6    9.55    0.58
   9   8   6    8.56    0.61
  -9  -8   6    8.45    0.46
   9  -9   6    2.67    0.28
  -9   9   6    2.69    0.26
   9   9  -6    2.79    0.29
   9   9   6    2.16    0.26
   9  -9  -6    2.44    0.29
   9  -9  -6    2.28    0.25
  -9   9  -6    2.46    0.26
   9   9   6    2.55    0.28
   9   0   7    0.20    0.23
   9   0   7   -0.03    0.20
   9   0  -7    0.24    0.24
  -9   0   7    0.22    0.15
   9   0   7    0.31    0.43
   9   0   7    0.06    0.09
   9   0   7    0.02    0.20
   9   0   7    0.00    0.21
  -9   0   7   -0.03    0.19
   9   0  -7    0.34    0.42
  -9   0   7    0.24    0.19
   9  -1   7   14.58    0.51
  -9   1   7   14.81    0.79
  -9   1   7   14.96    0.77
   9  -1   7   14.44    0.75
   9  -1   7   14.44    0.77
   9  -1   7   15.80    0.83
  -9   1   7   15.20    0.58
   9  -1   7   14.50    0.88
   9  -1   7   13.12    1.25
   9   1  -7   15.27    0.96
   9   1  -7   15.13    1.28
   9   1   7   16.29    0.92
  -9  -1   7   15.11    0.79
  -9  -1   7   14.81    0.77
   9   1   7   15.15    0.82
  -9  -1   7   14.67    0.66
   9   1   7   14.48    0.77
   9  -1  -7   13.71    0.96
   9  -1  -7   13.88    1.28
   9  -2   7    2.38    0.43
   9  -2   7    3.57    0.46
   9   2  -7    3.56    0.55
   9  -2   7    3.14    0.28
   9  -2   7    2.60    0.72
   9  -2   7    2.36    0.36
   9   2  -7    3.55    0.72
   9  -2   7    4.08    0.48
  -9   2   7    2.72    0.38
  -9   2   7    3.51    0.43
   9  -2  -7    2.90    0.51
   9  -2  -7    3.37    0.78
  -9  -2   7    3.17    0.35
   9   2   7    3.59    0.47
   9   2   7    2.66    0.37
  -9  -2   7    2.82    0.40
   9  -2  -7    3.69    0.46
   9   2   7    3.60    0.50
  -9  -2   7    3.43    0.46
   9   3  -7    9.80    0.75
   9  -3   7    9.47    0.45
   9  -3   7    8.53    1.08
   9  -3   7    8.95    0.59
  -9   3   7    9.12    0.56
   9   3  -7    8.81    0.61
   9  -3   7    9.95    0.61
  -9   3   7    9.29    0.61
   9  -3   7    9.46    0.68
   9  -3   7    9.39    0.71
   9   3   7   10.13    0.67
  -9  -3   7    9.38    0.70
   9  -3  -7    8.37    0.79
  -9  -3   7    9.26    0.62
  -9  -3   7    8.95    0.52
   9  -3  -7    9.72    0.67
   9  -3  -7    9.30    1.20
   9   4  -7    5.60    0.59
   9   4  -7    4.16    0.46
  -9   4   7    4.54    0.43
   9  -4   7    5.37    0.36
   9  -4   7    4.57    0.43
   9  -4   7    3.96    0.82
   9  -4   7    6.24    0.49
   9  -4   7    6.15    0.58
   9  -4   7    5.57    0.54
   9  -4   7    5.17    0.52
   9  -4  -7    5.34    0.47
   9   4   7    4.56    0.52
   9   4   7    5.29    0.52
   9  -4  -7    4.84    0.65
  -9  -4   7    4.61    0.53
  -9  -4   7    4.73    0.47
   9  -4  -7    5.71    0.53
  -9  -4   7    4.89    0.41
   9  -4  -7    3.73    0.79
   9   4   7    4.66    0.49
  -9   5   7   19.57    0.82
   9  -5   7   18.77    1.03
   9   5  -7   20.25    0.96
   9  -5   7   18.75    0.81
   9  -5   7   17.70    1.55
   9  -5   7   18.18    0.73
   9   5  -7   18.97    0.91
   9  -5   7   19.31    0.87
   9  -5   7   18.80    0.97
   9  -5   7   18.54    0.87
   9  -5  -7   19.82    0.91
   9   5   7   18.81    0.96
  -9  -5   7   19.54    1.03
  -9  -5   7   18.81    0.79
   9  -5  -7   18.79    0.96
   9  -5  -7   19.22    1.14
  -9  -5   7   18.87    0.87
  -9   5  -7   17.99    1.29
   9   5   7   18.90    0.98
   9   5   7   19.21    0.93
  -9   6   7    1.39    0.26
   9  -6   7    0.83    0.24
   9  -6   7    1.25    0.32
   9  -6   7    1.19    0.27
   9  -6   7    0.93    0.32
   9   6  -7    1.07    0.29
   9   6  -7    1.48    0.32
   9  -6   7    0.94    0.21
   9  -6  -7    1.17    0.41
   9  -6  -7    0.85    0.25
   9   6   7    1.22    0.28
  -9   6  -7    1.65    0.44
   9  -6  -7    1.12    0.26
   9   6   7    1.40    0.30
  -9  -6   7    1.41    0.24
  -9  -6   7    1.12    0.30
   9   7  -7    0.39    0.20
   9  -7   7    0.55    0.19
   9   7  -7    0.49    0.21
   9  -7   7    0.73    0.21
  -9   7   7    0.40    0.17
   9  -7   7    0.32    0.22
   9  -7  -7    0.24    0.18
   9   7   7    0.26    0.20
   9  -7  -7    0.68    0.20
  -9   7  -7    0.64    0.19
   9   7   7    0.36    0.19
   9   7   7    0.41    0.23
  -9  -7   7    0.38    0.14
   9   8  -7    6.96    0.44
   9  -8   7    5.50    0.36
  -9   8   7    6.29    0.37
   9  -8   7    5.97    0.40
   9   8  -7    6.04    0.30
   9  -8  -7    6.65    0.42
   9   8   7    6.53    0.43
  -9   8  -7    6.70    0.40
   9   8   7    5.15    0.47
   9   8   7    5.59    0.40
   9  -8  -7    5.89    0.45
  -9   9   7    4.35    0.25
   9  -9   7    4.46    0.29
  -9   9  -7    4.19    0.28
   9   9   7    4.06    0.29
   9  -9  -7    4.55    0.30
  -9   0   8    0.47    0.22
   9   0   8    0.48    0.26
   9   0   8    0.99    0.61
   9   0   8    0.39    0.24
   9   0  -8    0.34    0.27
  -9   0   8    0.42    0.23
   9   0   8    0.56    0.23
   9   0  -8   -0.03    0.40
   9   1  -8   10.71    1.16
  -9   1   8   12.94    0.71
   9  -1   8   12.13    0.40
   9  -1   8   12.11    0.69
  -9   1   8   12.43    0.71
   9  -1   8   11.80    1.25
   9  -1   8   12.38    0.81
   9  -1   8   11.95    0.70
   9   1   8   13.20    0.84
  -9  -1   8   12.76    0.72
  -9  -1   8   13.00    0.72
   9  -1  -8   12.02    1.23
   9  -1  -8   11.41    0.88
   9  -2   8    4.75    0.55
   9  -2   8    4.41    0.87
   9  -2   8    5.44    0.29
   9  -2   8    4.99    0.48
  -9   2   8    4.67    0.46
   9   2  -8    6.90    0.69
   9   2  -8    5.16    0.87
   9  -2   8    6.04    0.51
  -9   2   8    5.28    0.51
   9  -2  -8    6.43    0.76
  -9  -2   8    5.66    0.48
   9  -2  -8    5.94    0.92
   9  -3   8   57.51    1.91
  -9   3   8   58.32    1.76
   9  -3   8   55.42    2.22
  -9   3   8   60.38    1.94
   9  -3   8   51.95    2.83
   9   3  -8   61.95    1.99
   9  -3   8   59.21    1.88
   9   3  -8   59.86    2.28
   9  -3   8   60.56    1.57
  -9  -3   8   59.61    1.92
  -9  -3   8   57.41    2.18
   9  -3  -8   63.83    2.14
   9  -3  -8   55.45    2.83
   9  -3  -8   60.59    2.43
   9  -4   8    7.32    0.53
   9  -4   8    6.35    0.51
   9  -4   8    6.57    0.48
   9  -4   8    6.45    0.62
  -9   4   8    6.57    0.46
  -9   4   8    7.08    0.52
   9   4  -8    5.96    0.51
   9  -4   8    6.69    0.38
   9  -4  -8    6.50    0.71
  -9  -4   8    6.33    0.49
   9  -4  -8    6.35    0.56
  -9  -4   8    6.12    0.60
   9  -5   8    8.90    0.56
   9   5  -8    6.87    0.54
   9  -5   8    8.94    0.56
   9  -5   8    8.11    0.68
   9   5  -8    6.77    0.59
   9  -5   8    8.49    0.43
  -9   5   8    7.89    0.50
  -9   5   8    7.46    0.48
   9  -5   8    8.43    0.52
   9   5   8    8.39    0.63
  -9  -5   8    8.65    0.56
   9  -5  -8    7.07    0.58
   9   5   8    7.95    0.56
  -9  -5   8    7.76    0.63
   9  -5  -8    7.11    0.73
   9   6  -8    6.03    0.49
   9   6  -8    5.81    0.48
   9  -6   8    5.76    0.45
  -9   6   8    5.76    0.41
   9  -6   8    5.60    0.37
   9  -6   8    5.35    0.43
   9  -6  -8    6.82    0.46
   9   6   8    5.93    0.47
   9  -6  -8    6.51    0.52
   9   6   8    4.96    0.50
   9  -7   8    7.78    0.39
   9   7  -8    7.40    0.43
  -9   7   8    7.22    0.40
   9   7  -8    7.02    0.45
   9  -7   8    7.58    0.46
   9  -7  -8    5.86    0.47
  -9   7  -8    7.52    0.43
   9   7   8    6.08    0.50
   9   7   8    7.53    0.46
   9  -7  -8    7.05    0.44
   9   8  -8    5.34    0.34
  -9   8   8    4.02    0.28
   9  -8   8    4.50    0.28
   9  -8   8    4.76    0.32
  -9   8  -8    5.36    0.32
   9  -8  -8    6.11    0.35
   9   8   8    4.73    0.33
   9   0   9    0.00    0.26
  -9   0   9    0.15    0.17
   9   0  -9    0.06    0.29
  -9   0   9   -0.13    0.16
   9   0   9    0.32    0.22
   9  -1   9    1.98    0.39
   9   1  -9    2.01    0.46
   9  -1   9    1.53    0.31
   9  -1   9    1.62    0.32
  -9   1   9    1.54    0.30
  -9   1   9    1.92    0.32
   9  -1  -9    2.00    0.44
  -9  -1   9    1.58    0.32
  -9  -1   9    1.47    0.29
   9   2  -9    1.67    0.43
   9  -2   9    1.02    0.11
   9   2  -9    0.89    0.25
  -9   2   9    0.94    0.27
   9  -2   9    1.32    0.33
  -9   2   9    1.07    0.24
  -9   2   9    1.30    0.27
  -9   2   9    1.14    0.24
   9  -2   9    1.23    0.28
   9  -2   9    1.12    0.29
   9  -2  -9    1.31    0.40
  -9  -2   9    1.22    0.28
   9  -3   9    2.77    0.21
   9   3  -9    2.97    0.39
   9  -3   9    2.94    0.40
   9  -3   9    2.80    0.47
  -9   3   9    2.69    0.32
  -9   3   9    2.96    0.38
   9  -3   9    3.13    0.38
  -9   3   9    2.74    0.32
  -9  -3   9    3.04    0.37
   9  -3  -9    2.68    0.52
  -9   4   9    0.95    0.22
   9  -4   9    0.97    0.24
   9   4  -9    1.22    0.27
  -9   4   9    0.98    0.25
   9  -4   9    0.96    0.15
  -9   4   9    0.96    0.22
   9  -4   9    0.87    0.23
   9  -4   9    0.91    0.22
  -9  -4   9    0.75    0.23
   9  -4  -9    1.17    0.27
   9  -5   9    0.74    0.22
   9  -5   9    0.82    0.20
   9   5  -9    0.53    0.21
  -9   5   9    0.30    0.18
   9   5  -9    0.76    0.26
  -9   5   9    0.57    0.17
   9  -5   9    0.72    0.14
  -9   5   9    0.46    0.17
   9  -5   9    0.46    0.21
  -9  -5   9    0.55    0.19
   9  -5  -9    0.88    0.22
   9   6  -9    0.28    0.16
   9  -6   9    0.27    0.11
  -9   6   9    0.11    0.14
   9  -6   9    0.34    0.17
  -9   6   9    0.26    0.13
   9   6  -9    0.53    0.19
   9  -6   9    0.49    0.18
  -9   6  -9    0.35    0.16
   9  -6  -9    0.31    0.18
  -9   7   9    0.39    0.12
   9  -7   9    0.69    0.16
   9  -7   9    0.47    0.13
   9   7  -9    0.53    0.16
   9   7  -9    0.76    0.16
  -9   7   9    0.20    0.12
  -9   7  -9    0.60    0.14
   9   0  10   -0.14    0.20
  -9   0  10    0.19    0.16
  -9   0  10   -0.02    0.17
  -9   0  10    0.05    0.16
  -9   1  10   12.92    0.66
   9  -1  10   12.71    0.70
  -9   1  10   12.33    0.58
  -9   1  10   13.37    0.68
  -9  -1  10   14.02    0.69
  -9   2  10   17.01    0.69
   9   2 -10   17.86    0.81
   9  -2  10   17.82    0.81
  -9   2  10   17.17    0.79
  -9   2  10   16.93    0.69
  -9  -2  10   16.78    0.77
   9  -3  10    7.01    0.47
  -9   3  10    6.66    0.46
  -9   3  10    6.72    0.41
  -9   3  10    6.45    0.40
   9   3 -10    5.22    0.45
   9  -3  10    6.27    0.48
  -9  -3  10    5.95    0.45
   9   4 -10   16.12    0.72
  -9   4  10   15.64    0.68
   9  -4  10   15.97    0.65
  -9   4  10   15.57    0.60
   9  -4  10   15.59    0.66
  -9   4  10   14.52    0.60
   9  -4  10   16.35    0.73
  -9  -4  10   15.20    0.67
   9   5 -10   26.22    0.96
   9   5 -10   25.88    1.01
   9  -5  10   26.59    0.68
  -9   5  10   25.87    0.90
   9  -5  10   27.17    0.89
  -9   5  10   27.47    0.82
  -9   5  10   26.10    0.84
   9  -5  10   26.35    0.95
  -9  -5  10   26.67    0.91
   9   6 -10   10.34    0.48
   9   6 -10   10.18    0.46
   9  -6  10    9.74    0.43
  -9   6  10    9.35    0.40
   9  -6  10   10.33    0.47
   9  -6  10    9.54    0.28
  -9   6  10    9.75    0.38
  -9   6 -10    9.27    0.41
  -9   0  11    0.25    0.15
  -9   0  11    0.11    0.13
   9  -1  11    3.34    0.34
  -9   1  11    3.54    0.35
  -9   1  11    3.29    0.31
  -9   1  11    3.42    0.28
   9   1 -11    3.23    0.34
  -9  -1  11    3.13    0.29
  -9  -1  11    3.71    0.33
  -9   2  11    2.50    0.29
   9  -2  11    2.33    0.29
   9   2 -11    1.71    0.26
  -9   2  11    2.70    0.25
  -9  -2  11    2.06    0.24
  -9  -2  11    2.25    0.26
   9   3 -11    0.06    0.14
  -9   3  11    0.09    0.12
  -9   3  11    0.12    0.13
   9  -3  11    0.05    0.15
  -9   3  11    0.29    0.12
  -9  -3  11    0.02    0.12
   9  -4  11    5.51    0.36
  -9   4  11    5.27    0.30
   9   4 -11    4.83    0.34
  -9   4  11    5.18    0.27
   9   4 -11    5.61    0.40
  -9   4  11    5.28    0.33
  -9  -4  11    5.39    0.33
   9  -5  11    3.99    0.29
  -9   5  11    4.01    0.21
   9   0 -12    0.23    0.11
  -9   0  12    0.03    0.12
  -9   0  12    0.22    0.11
   9   1 -12    2.89    0.26
  -9   1  12    3.24    0.22
  -9  -1  12    3.02    0.25
  -9  -1  12    3.16    0.23
   9  -1 -12    3.40    0.27
   9   2 -12    9.39    0.44
  -9   2  12    9.73    0.35
   9  -2  12   10.18    0.46
   9  -2 -12    9.23    0.43
  -9  -2  12    9.94    0.43
  -9  -2  12    9.92    0.41
 -10   0   0    5.81    0.69
  10   0   0    5.72    0.44
  10   0   0    6.02    0.65
  10   0   0    5.23    0.42
 -10   0   0    6.46    0.59
  10   0   0    5.31    0.44
 -10   0   0    5.55    0.58
  10   0   0    5.77    0.76
  10   1   0   39.28    1.75
 -10   1   0   38.08    1.78
  10  -1   0   38.71    1.43
  10   1   0   38.72    1.90
 -10   1   0   38.13    1.63
 -10  -1   0   38.17    1.71
 -10   1   0   36.77    1.65
  10  -1   0   35.90    1.35
 -10  -1   0   36.02    1.62
  10   1   0   36.68    1.40
  10  -1   0   38.91    1.85
 -10  -1   0   36.10    1.76
  10  -1   0   36.12    1.88
  10   1   0   37.33    1.38
  10   2   0    0.91    0.33
 -10  -2   0    0.11    0.24
  10  -2   0    0.77    0.35
  10  -2   0    0.70    0.20
 -10   2   0    1.08    0.32
 -10   2   0    0.63    0.30
  10  -2   0    0.57    0.37
  10  -2   0    0.43    0.22
  10   2   0    0.49    0.22
  10  -2   0    0.26    0.27
 -10  -2   0    0.61    0.31
  10  -2   0    0.38    0.18
 -10  -2   0    0.29    0.19
 -10  -2   0    0.38    0.26
  10   2   0    0.53    0.18
 -10   2   0    1.19    0.35
  10  -3   0   15.64    1.21
  10  -3   0   15.89    0.77
  10   3   0   14.45    0.77
  10   3   0   15.71    1.17
 -10  -3   0   15.86    1.02
 -10   3   0   15.94    1.07
  10  -3   0   14.27    1.13
 -10   3   0   15.87    0.94
 -10  -3   0   14.87    1.02
  10  -3   0   15.30    0.80
 -10  -3   0   15.37    1.02
  10  -3   0   15.96    1.22
  10   3   0   15.44    0.79
 -10  -3   0   15.45    1.01
 -10  -3   0   15.98    0.85
 -10  -3   0   15.91    1.09
  10   4   0    0.55    0.22
  10   4   0    0.92    0.47
  10  -4   0    1.12    0.27
  10  -4   0    0.89    0.54
  10  -4   0    0.86    0.42
  10   4   0    0.81    0.22
  10  -4   0    1.01    0.24
 -10  -4   0    1.36    0.41
 -10  -4   0    0.88    0.26
 -10  -4   0    0.63    0.37
 -10   4   0    0.56    0.28
 -10  -4   0    0.37    0.32
 -10  -4   0    0.70    0.39
 -10  -4   0    0.45    0.39
 -10  -5   0   20.15    1.05
  10  -5   0   20.00    0.96
  10  -5   0   20.25    0.90
  10   5   0   20.07    0.90
  10  -5   0   19.53    1.45
  10  -5   0   21.13    1.00
 -10  -5   0   21.42    1.29
  10   5   0   20.41    1.00
 -10  -5   0   19.55    1.36
 -10   5   0   22.15    1.15
 -10  -5   0   20.96    1.36
  10  -5   0   19.89    1.00
  10   5   0   22.13    1.04
  10   6   0    1.49    0.33
  10   6   0    1.46    0.30
  10   6   0    1.11    0.25
  10  -6   0    1.24    0.28
  10  -6   0    1.09    0.50
  10  -6   0    1.56    0.32
  10   6   0    1.09    0.26
 -10  -6   0    2.09    0.56
  10   6   0    1.58    0.34
  10  -6   0    1.17    0.30
 -10  -6   0    1.49    0.36
  10   6   0    1.27    0.34
 -10   6   0    2.01    0.31
 -10  -7   0    1.38    0.47
  10  -7   0    0.91    0.26
  10  -7   0    0.85    0.27
  10   7   0    0.88    0.24
  10   7   0    0.83    0.25
  10   7   0    1.01    0.29
  10   7   0    0.86    0.24
 -10   7   0    0.96    0.25
  10   7   0    0.99    0.31
  10   7   0    1.23    0.34
 -10   7   0    0.96    0.33
  10  -7   0    0.83    0.25
  10  -8   0   28.94    1.17
  10   8   0   27.51    1.09
  10  -8   0   29.22    1.08
 -10  -8   0   28.44    1.25
 -10  -8   0   26.37    1.48
 -10   8   0   28.16    1.06
 -10   8   0   29.29    1.21
  10   8   0   30.06    1.04
  10   8   0   26.71    1.13
  10  -8   0   27.65    1.20
  10  -9   0    4.75    0.32
  10  -9   0    5.02    0.52
  10   9   0    4.65    0.42
 -10   9   0    4.89    0.39
 -10  -9   0    5.28    0.42
 -10   9   0    5.40    0.45
 -10  -9   0    4.09    0.47
  10   9   0    4.78    0.37
  10  10   0    2.94    0.31
  10  10   0    2.60    0.25
 -10  10   0    2.72    0.27
 -10 -10   0    2.83    0.29
 -10   0   1  126.73    3.81
  10   0   1  120.01    3.67
 -10   0   1  125.93    4.06
  10   0   1  118.62    3.61
  10   0  -1  114.46    4.34
  10   0  -1  108.24    3.53
 -10   0   1  122.30    4.08
  10   0  -1  109.16    3.65
 -10   0   1  124.37    4.55
  10   0   1  127.64    4.55
 -10   0  -1  112.90    4.00
  10   0   1  120.34    3.77
 -10   0  -1  113.76    4.44
  10   0  -1  114.34    4.43
  10   0   1  125.72    4.33
  10  -1   1   34.24    1.37
  10   1  -1   39.53    1.76
  10   1  -1   40.45    1.88
 -10   1   1   36.64    1.62
  10  -1   1   34.13    1.83
  10   1  -1   37.95    1.34
 -10  -1  -1   36.98    1.69
  10  -1   1   34.78    1.74
  10  -1   1   33.99    1.35
  10   1  -1   38.30    1.41
  10  -1   1   34.03    1.33
 -10  -1  -1   37.00    1.70
 -10   1   1   35.17    1.75
 -10   1   1   33.39    1.54
 -10  -1   1   34.74    1.73
 -10   1  -1   35.94    1.69
  10   1   1   34.18    1.82
  10  -1  -1   39.12    1.90
  10   1   1   34.91    1.35
  10   1   1   34.72    1.37
 -10  -1   1   34.87    1.58
 -10  -1   1   34.76    1.66
 -10  -1   1   35.00    1.41
  10   1   1   35.52    1.41
  10  -1  -1   38.44    1.41
 -10   1  -1   37.38    1.67
  10   1   1   34.60    1.67
 -10   1  -1   38.63    1.61
  10  -1  -1   37.73    1.32
  10  -1  -1   37.64    1.83
 -10  -2  -1   52.08    2.32
  10  -2   1   53.55    1.88
 -10   2   1   56.01    2.13
  10   2  -1   53.32    1.84
  10   2  -1   52.28    2.41
 -10   2   1   58.03    2.42
  10  -2   1   56.56    1.93
  10  -2   1   54.94    1.87
  10  -2   1   57.33    2.43
 -10  -2  -1   50.34    2.21
  10   2  -1   51.14    1.89
  10  -2   1   56.59    2.52
  10  -2   1   54.06    2.50
 -10  -2   1   54.09    2.16
  10  -2  -1   52.37    2.46
  10  -2  -1   53.74    1.89
 -10  -2   1   55.25    2.41
 -10  -2   1   57.48    2.20
  10   2   1   53.53    2.46
  10  -2  -1   50.76    2.40
  10  -2  -1   50.90    1.80
 -10  -2   1   56.92    2.00
  10   2   1   55.05    1.90
 -10   2  -1   52.24    2.34
  10   2   1   56.01    1.88
 -10  -2   1   55.16    2.26
  10  -2  -1   49.71    1.88
 -10  -2   1   57.37    2.16
 -10   2  -1   52.56    2.14
  10  -2  -1   52.54    2.54
 -10   2  -1   54.02    2.19
 -10  -3  -1    8.29    0.74
  10  -3   1    9.17    0.57
  10  -3   1    8.68    0.93
  10  -3   1    9.71    0.90
  10   3  -1    9.22    0.89
 -10  -3  -1    7.93    0.61
 -10  -3  -1    7.35    0.87
  10  -3   1    8.99    0.57
  10   3  -1    8.39    0.56
  10  -3   1    8.41    0.87
  10   3  -1    8.72    0.56
 -10   3   1    8.37    0.67
  10  -3   1    8.74    0.58
 -10  -3   1    8.63    0.83
 -10  -3   1    8.63    0.80
  10   3   1    8.75    0.56
  10  -3  -1    8.08    0.95
  10  -3  -1    8.42    1.04
 -10  -3   1    9.73    0.77
 -10  -3   1    9.78    0.82
 -10  -3   1    9.49    0.63
  10  -3  -1    7.68    0.84
  10   3   1    8.30    0.90
  10  -3  -1    8.57    0.55
  10   3   1    8.53    0.56
 -10   3  -1    8.92    0.77
 -10  -3   1    8.49    0.77
  10  -3  -1    7.57    0.55
 -10   3  -1    8.86    0.73
 -10   3  -1    7.73    0.76
 -10  -4  -1   12.39    1.00
  10  -4   1   11.58    1.06
 -10  -4  -1   12.78    0.78
 -10  -4  -1   12.55    0.97
 -10   4   1   12.18    0.82
  10  -4   1   13.16    0.73
 -10  -4  -1   13.20    1.05
  10   4  -1   13.48    0.72
  10   4  -1   11.64    0.69
 -10   4  -1   13.23    0.88
 -10  -4   1   11.61    0.97
 -10  -4   1   10.21    0.96
  10   4   1   12.10    0.72
 -10  -4   1   12.06    0.92
  10   4   1   10.71    1.12
 -10  -4   1   11.60    0.76
  10  -4  -1   13.53    1.10
 -10  -4   1   11.57    0.99
  10  -4  -1   12.67    0.70
  10  -4  -1   13.39    0.75
 -10   4  -1   14.09    1.02
  10   4   1   11.46    0.70
 -10  -5  -1   23.43    1.49
  10   5  -1   24.36    1.02
  10   5  -1   23.79    1.04
  10  -5   1   24.27    0.96
  10   5  -1   26.93    1.15
 -10   5   1   24.05    1.20
 -10  -5  -1   26.69    1.53
  10  -5   1   25.28    1.12
 -10  -5  -1   26.84    1.23
  10  -5   1   23.84    1.60
  10   5  -1   26.13    1.14
  10  -5  -1   26.58    1.65
 -10  -5   1   25.19    1.39
  10   5   1   24.52    1.02
  10  -5  -1   24.27    1.09
  10   5   1   25.95    1.16
  10   5   1   25.26    0.90
  10  -5  -1   25.19    1.09
  10  -5  -1   25.28    1.16
  10  -5  -1   24.50    1.06
  10   5   1   24.74    1.14
 -10   5  -1   24.68    1.32
  10   5   1   24.13    1.06
 -10  -5   1   21.59    1.46
 -10  -5   1   24.89    1.19
 -10  -5   1   22.88    1.53
  10   6  -1    0.45    0.23
  10  -6   1    0.86    0.22
  10   6  -1    0.33    0.21
  10  -6   1    0.41    0.47
  10   6  -1    0.38    0.24
 -10   6   1    0.23    0.31
  10   6  -1    0.29    0.19
 -10  -6  -1    0.04    0.41
  10  -6   1    0.50    0.25
 -10   6   1    0.38    0.23
 -10  -6  -1    0.17    0.22
  10  -6  -1   -0.19    0.44
  10  -6  -1    0.48    0.22
  10  -6  -1    0.42    0.21
  10  -6  -1    0.19    0.22
 -10  -6   1    0.59    0.26
  10   6   1    0.41    0.22
 -10   6  -1    0.48    0.21
 -10  -6   1    0.17    0.33
  10   6   1    0.36    0.24
  10   6   1    0.14    0.23
 -10   6  -1   -0.08    0.26
  10   6   1    0.26    0.25
  10   6   1    0.12    0.16
  10  -6  -1    0.22    0.23
  10   6   1    0.35    0.24
 -10   7   1    2.09    0.38
 -10   7   1    1.75    0.31
 -10  -7  -1    1.09    0.51
  10   7  -1    1.66    0.30
  10  -7   1    2.14    0.29
  10  -7   1    2.60    0.40
  10   7  -1    1.82    0.34
  10  -7   1    2.31    0.72
  10   7   1    2.09    0.39
  10  -7  -1    1.35    0.31
  10   7   1    1.73    0.30
 -10  -7   1    2.18    0.38
  10   7   1    2.37    0.37
 -10  -7   1    2.54    0.45
  10   7   1    1.88    0.26
 -10  -7   1    1.74    0.50
  10  -7  -1    2.27    0.35
  10   7   1    2.45    0.38
 -10   7  -1    1.48    0.28
  10  -7  -1    1.49    0.30
  10   7   1    2.17    0.40
 -10   8   1    7.73    0.54
 -10   8   1    8.08    0.54
 -10  -8  -1   10.25    0.98
  10  -8   1    8.30    0.44
  10  -8   1    8.31    0.62
 -10  -8  -1    9.03    0.67
  10   8  -1    9.42    0.58
  10   8  -1    8.59    0.60
  10  -8  -1    9.85    0.63
  10  -8  -1    9.97    0.57
  10   8   1    8.60    0.59
  10   8   1    8.71    0.50
  10   8   1    7.97    0.55
  10   8   1    7.84    0.56
 -10  -8   1    9.17    0.64
 -10  -8   1    8.20    0.79
 -10   8  -1    9.35    0.56
 -10   8  -1    9.10    0.67
  10   8   1    7.96    0.61
 -10   9   1    8.46    0.48
 -10  -9  -1    6.61    0.56
  10   9  -1    6.71    0.49
 -10   9   1    8.64    0.43
  10  -9   1    8.63    0.59
  10   9   1    7.87    0.51
 -10   9  -1    7.11    0.47
  10  -9  -1    7.27    0.50
 -10  -9   1    8.43    0.52
  10  -9  -1    6.90    0.44
 -10   9  -1    7.24    0.52
  10   9   1    8.52    0.44
 -10  10   1    9.53    0.45
  10  10  -1   10.48    0.52
  10  10  -1   10.05    0.47
 -10 -10  -1   10.07    0.48
  10  10   1    9.18    0.49
 -10  10  -1    9.76    0.46
 -10  10  -1   10.14    0.41
  10  10   1    9.86    0.43
 -10 -10   1    9.41    0.48
  10   0   2  160.17    5.11
 -10   0   2  166.89    5.45
  10   0  -2  178.90    5.97
 -10   0  -2  171.62    5.40
  10   0  -2  174.73    5.91
 -10   0  -2  175.21    6.00
  10   0  -2  167.96    5.00
  10   0   2  162.00    4.96
 -10   0   2  165.87    6.11
  10   0   2  163.45    5.98
  10   0   2  163.21    5.76
 -10   0   2  161.43    5.11
  10   0   2  155.10    4.88
 -10   0   2  159.57    5.30
 -10   1   2    5.27    0.44
 -10   1   2    5.20    0.53
  10   1  -2    6.55    0.82
  10   1  -2    5.48    0.71
 -10  -1  -2    5.85    0.54
  10  -1   2    4.93    0.42
  10  -1   2    4.50    0.42
  10  -1   2    4.55    0.73
 -10  -1  -2    6.67    0.80
  10  -1   2    4.29    0.39
 -10   1   2    6.31    0.73
  10  -1   2    5.05    0.71
  10   1  -2    5.59    0.45
 -10  -1   2    4.90    0.62
 -10  -1   2    5.16    0.45
  10  -1  -2    6.05    0.47
 -10  -1   2    5.76    0.63
 -10   1  -2    7.01    0.79
 -10  -1   2    4.81    0.65
  10   1   2    5.10    0.44
 -10  -1   2    5.36    0.55
  10   1   2    4.86    0.44
 -10   1  -2    5.35    0.55
  10   1   2    4.65    0.70
  10  -1  -2    5.23    0.76
  10  -1  -2    6.92    0.86
  10   1   2    4.71    0.42
 -10   2   2   14.23    0.85
  10  -2   2   12.69    0.72
  10  -2   2   14.01    1.11
 -10  -2  -2   15.39    0.93
  10  -2   2   14.24    0.75
  10   2  -2   16.45    1.10
  10  -2   2   14.09    1.09
 -10  -2  -2   14.56    1.04
  10  -2   2   13.50    1.04
  10  -2   2   13.18    0.71
  10   2  -2   15.71    0.77
 -10   2  -2   14.62    0.96
  10   2   2   13.04    0.72
 -10  -2   2   14.22    0.97
  10   2   2   12.67    1.08
 -10  -2   2   13.74    1.01
 -10   2  -2   15.17    0.95
  10  -2  -2   14.34    0.75
  10  -2  -2   15.36    1.13
 -10   2  -2   15.32    1.01
 -10  -2   2   13.92    0.91
 -10  -2   2   14.38    0.97
 -10  -2   2   13.25    1.00
  10   2   2   14.10    0.79
  10  -2  -2   15.35    1.19
 -10  -2   2   14.08    0.79
  10  -2  -2   16.84    1.15
  10   2   2   13.80    0.75
  10  -3   2   18.80    1.28
  10  -3   2   19.87    0.92
  10   3  -2   18.09    0.89
 -10  -3  -2   17.97    0.95
 -10   3   2   20.34    1.00
  10  -3   2   18.19    1.32
 -10  -3  -2   16.93    1.20
  10  -3   2   19.65    0.91
  10  -3   2   19.12    1.39
 -10  -3  -2   17.14    1.10
  10   3   2   18.88    0.91
 -10  -3   2   19.63    0.97
 -10   3  -2   17.77    1.17
  10  -3  -2   17.71    1.28
 -10  -3   2   18.33    1.17
 -10  -3   2   19.79    1.10
  10  -3  -2   17.20    0.89
  10  -3  -2   16.28    1.35
 -10   3  -2   17.43    1.14
 -10  -3   2   20.22    1.28
 -10  -3   2   18.02    1.15
  10   3   2   19.60    0.92
 -10  -3   2   19.15    1.22
  10   3   2   18.77    1.36
  10  -3  -2   18.74    1.34
 -10   3  -2   17.71    1.07
 -10  -4  -2   28.64    1.27
  10  -4   2   26.81    1.17
  10  -4   2   26.19    1.61
  10   4  -2   27.72    1.17
 -10  -4  -2   27.40    1.52
  10  -4   2   26.39    1.18
 -10   4   2   29.04    1.28
 -10   4  -2   27.88    1.41
 -10  -4   2   26.10    1.53
  10  -4  -2   28.41    1.22
  10   4   2   26.38    1.19
  10  -4  -2   28.63    1.70
 -10   4  -2   26.12    1.54
  10   4   2   24.54    1.14
 -10  -4   2   27.83    1.40
 -10  -4   2   27.46    1.26
  10   5  -2   20.05    0.86
  10  -5   2   16.78    1.31
  10  -5   2   18.34    0.86
  10  -5   2   17.22    0.81
  10  -5   2   17.65    0.93
 -10   5   2   18.12    0.81
  10   5  -2   20.90    0.91
 -10  -5  -2   16.65    1.30
 -10   5   2   17.87    0.96
 -10  -5  -2   20.77    1.04
  10   5  -2   19.06    0.94
  10  -5   2   17.61    0.66
  10   5   2   18.18    0.86
  10   5   2   18.37    0.90
  10  -5  -2   18.04    1.37
 -10   5  -2   19.62    1.15
  10   5   2   18.92    0.96
 -10  -5   2   16.48    1.27
 -10  -5   2   18.09    1.01
  10  -5  -2   19.39    0.99
  10   5   2   18.13    0.70
  10  -5  -2   18.66    0.92
  10  -5  -2   19.18    0.94
  10   5   2   18.38    0.96
 -10  -5   2   18.51    1.14
 -10   6   2   21.18    1.02
  10   6  -2   22.13    0.97
  10  -6   2   23.49    1.64
  10   6  -2   22.26    1.01
  10  -6   2   24.32    0.96
  10  -6   2   22.83    0.78
  10  -6   2   24.58    1.12
 -10   6   2   23.89    0.95
  10  -6  -2   22.64    1.11
  10  -6  -2   23.25    1.06
  10   6   2   23.47    0.99
 -10  -6   2   20.97    1.26
 -10   6  -2   21.06    1.23
  10   6   2   22.06    1.10
 -10  -6   2   23.11    1.16
  10  -6  -2   21.82    1.03
  10  -6  -2   21.08    1.56
  10   6   2   23.10    1.01
  10   6   2   23.14    0.82
  10   6   2   22.63    1.11
  10   6   2   22.42    1.04
 -10   6  -2   21.87    0.92
 -10  -7  -2   11.58    1.12
  10   7  -2   11.70    0.66
 -10   7   2   11.62    0.67
  10  -7   2   11.16    1.25
 -10   7   2   11.37    0.63
  10   7  -2   12.08    0.71
  10  -7   2   13.06    0.79
 -10  -7   2   11.14    0.90
 -10  -7   2   11.11    0.80
  10   7   2   11.95    0.71
  10  -7  -2   11.91    0.70
  10  -7  -2   11.84    0.71
  10   7   2   11.79    0.78
  10   7   2   13.39    0.72
  10  -7  -2   11.58    0.76
 -10   7  -2   11.26    0.62
 -10   7  -2   12.24    0.88
  10   7   2   11.83    0.67
  10   7   2   12.07    0.55
  10   7   2   12.54    0.77
 -10  -8  -2    0.42    0.49
  10  -8   2    0.69    0.25
 -10   8   2    0.90    0.22
  10   8  -2    1.34    0.28
 -10  -8  -2    0.77    0.26
 -10   8   2    0.75    0.21
  10  -8  -2    1.03    0.25
 -10  -8   2    0.32    0.39
  10   8   2    0.92    0.26
  10  -8  -2    0.73    0.22
 -10   8  -2    0.97    0.23
  10   8   2    0.85    0.23
  10   8   2    0.86    0.19
  10   8   2    1.03    0.25
  10   8   2    0.90    0.24
 -10   8  -2    0.65    0.32
 -10   9   2   16.60    0.69
 -10  -9  -2   14.48    0.81
  10   9  -2   16.70    0.77
  10  -9   2   16.38    0.85
 -10  -9   2   16.60    0.71
  10  -9  -2   17.12    0.77
 -10   9  -2   16.56    0.81
 -10   9  -2   16.81    0.71
  10   9   2   16.40    0.63
  10  -9  -2   16.37    0.72
  10   9   2   15.91    0.75
  10   9   2   17.10    0.85
  10   9   2   16.24    0.77
  10  10  -2    0.92    0.19
 -10  10   2    1.10    0.17
 -10 -10  -2    0.85    0.18
  10 -10  -2    0.63    0.13
 -10  10  -2    0.90    0.17
  10 -10  -2    0.85    0.18
 -10 -10   2    0.91    0.24
  10  10   2    0.93    0.15
  10  10   2    1.26    0.21
 -10  10  -2    0.85    0.18
 -10 -10   2    1.02    0.18
 -10   0   3   32.11    1.42
  10   0   3   32.49    1.66
  10   0   3   31.58    1.75
  10   0   3   30.77    1.24
 -10   0   3   34.63    1.60
 -10   0  -3   32.87    1.61
  10   0   3   31.80    1.32
 -10   0  -3   32.52    1.51
  10   0  -3   33.78    1.79
 -10   0   3   31.02    1.30
  10   0   3   31.00    1.27
  10   0  -3   34.72    1.33
  10  -1   3   68.33    2.28
 -10  -1  -3   65.79    2.69
  10  -1   3   69.47    2.98
 -10  -1  -3   64.71    2.68
  10  -1   3   72.82    2.39
  10   1  -3   65.28    2.86
  10   1  -3   65.20    2.29
  10  -1   3   70.03    2.88
 -10   1   3   71.04    2.48
 -10  -1   3   69.51    2.69
 -10   1  -3   64.38    2.65
  10   1   3   70.64    2.39
 -10  -1   3   69.90    2.64
  10   1   3   67.80    2.96
  10   1   3   67.99    2.28
  10  -1  -3   64.45    2.30
 -10  -1   3   71.22    2.54
  10   1   3   68.54    2.29
  10  -1  -3   67.43    2.97
  10  -1  -3   64.83    2.86
 -10  -1   3   67.26    2.66
 -10   1  -3   64.67    2.73
 -10  -1   3   72.12    2.40
  10  -2   3   29.55    1.66
  10  -2   3   29.45    1.25
  10   2  -3   30.38    1.23
 -10   2   3   30.94    1.29
 -10  -2  -3   30.87    1.47
 -10  -2  -3   30.75    1.60
  10  -2   3   30.02    1.72
  10  -2   3   30.01    1.23
 -10   2  -3   29.31    1.53
  10   2   3   29.92    1.24
 -10  -2   3   29.58    1.53
  10  -2  -3   29.29    1.24
  10   2   3   29.71    1.28
 -10   2  -3   30.74    1.53
  10   2   3   29.90    1.75
 -10  -2   3   30.83    1.40
 -10  -2   3   30.07    1.29
  10   2   3   29.27    1.21
  10  -2  -3   27.95    1.75
  10  -2  -3   30.07    1.68
 -10  -2   3   30.87    1.57
 -10  -2   3   28.76    1.55
  10  -2  -3   31.82    1.77
  10  -3   3    3.40    0.76
 -10  -3  -3    3.79    0.64
  10  -3   3    3.95    0.46
  10  -3   3    3.93    0.41
  10   3  -3    3.47    0.42
  10  -3   3    3.57    0.67
  10  -3   3    3.20    0.64
 -10  -3  -3    3.60    0.55
  10  -3  -3    2.98    0.41
  10   3   3    3.91    0.46
 -10  -3   3    3.82    0.54
 -10   3  -3    5.12    0.76
  10   3   3    4.13    0.48
  10  -3  -3    4.29    0.76
 -10   3  -3    3.93    0.57
 -10  -3   3    2.63    0.52
  10  -3  -3    3.66    0.78
 -10   3  -3    3.39    0.58
 -10  -3   3    2.66    0.57
  10   3   3    3.89    0.47
 -10  -3   3    3.28    0.42
  10  -3  -3    3.44    0.70
 -10  -4  -3   34.84    1.48
  10   4  -3   33.76    1.27
  10  -4   3   33.74    1.40
 -10  -4  -3   35.05    1.75
  10  -4   3   34.18    1.90
  10  -4   3   34.58    1.40
 -10   4  -3   34.25    1.81
  10   4   3   33.66    1.40
  10  -4  -3   33.08    1.37
 -10  -4   3   29.08    1.71
  10  -4  -3   35.23    1.44
 -10   4  -3   38.29    1.70
  10  -4  -3   34.94    1.97
 -10  -4   3   35.25    1.50
 -10  -4   3   34.06    1.58
  10   4   3   31.84    1.06
  10   4   3   34.59    1.42
  10   4   3   33.35    1.37
 -10   5   3    3.66    0.46
  10  -5   3    4.05    0.45
  10  -5   3    2.82    0.65
  10  -5   3    2.94    0.39
 -10   5   3    3.48    0.40
  10   5  -3    2.03    0.34
  10   5  -3    2.98    0.38
  10   5  -3    2.88    0.34
  10  -5   3    2.62    0.41
  10  -5  -3    2.84    0.67
  10   5   3    2.90    0.28
 -10  -5   3    3.41    0.47
 -10  -5   3    3.48    0.54
  10   5   3    3.38    0.47
  10  -5  -3    2.49    0.40
  10  -5  -3    2.83    0.43
  10  -5  -3    2.56    0.43
  10   5   3    3.02    0.40
  10   5   3    3.20    0.45
  10   5   3    2.08    0.33
 -10   5  -3    2.30    0.47
  10   6  -3    7.89    0.43
 -10   6   3    7.64    0.51
  10  -6   3    6.47    0.49
  10   6  -3    7.73    0.57
  10   6  -3    8.17    0.55
  10  -6   3    7.18    0.60
 -10   6   3    6.42    0.51
  10  -6   3    7.37    1.05
 -10   6  -3    7.09    0.75
  10   6   3    6.36    0.53
  10   6   3    7.47    0.57
  10  -6  -3    7.41    0.57
  10   6   3    7.25    0.59
  10  -6  -3    7.92    1.06
  10   6   3    7.56    0.41
  10   6   3    6.87    0.54
 -10  -6   3    7.56    0.65
  10  -6  -3    8.25    0.63
  10  -6  -3    7.57    0.64
 -10  -6   3    7.13    0.73
  10   6   3    6.69    0.59
 -10   6  -3    9.16    0.55
  10   7  -3    6.22    0.53
 -10   7   3    6.76    0.49
 -10   7   3    6.42    0.45
  10  -7   3    6.75    0.49
  10  -7   3    7.22    0.61
 -10  -7   3    6.75    0.62
  10   7   3    6.76    0.58
  10   7   3    6.91    0.54
 -10   7  -3    6.54    0.75
  10   7   3    6.18    0.54
  10  -7  -3    6.22    0.57
  10   7   3    5.60    0.50
  10   7   3    5.92    0.49
 -10   7  -3    6.21    0.48
  10   7   3    5.92    0.37
  10  -7  -3    6.03    0.52
  10  -7  -3    6.23    0.56
 -10   8   3   14.92    0.67
  10   8  -3   12.55    0.71
  10  -8   3   13.98    0.82
  10  -8   3   13.82    0.66
 -10   8   3   14.55    0.51
 -10  -8  -3   11.95    0.76
 -10   8  -3   12.82    0.65
  10   8   3   14.08    0.56
  10   8   3   15.00    0.77
 -10  -8   3   13.71    0.69
  10   8   3   14.19    0.80
  10  -8  -3   13.59    0.79
  10   8   3   14.10    0.72
  10   8   3   14.20    0.69
  10  -8  -3   12.57    0.71
  10  -8  -3   13.02    0.73
  10   9  -3    5.41    0.43
 -10   9   3    3.97    0.34
  10   9   3    4.16    0.28
  10   9   3    4.42    0.40
  10   9   3    4.62    0.40
 -10   9  -3    5.05    0.38
 -10   9  -3    5.24    0.48
  10  -9  -3    5.22    0.40
  10  -9  -3    4.37    0.39
 -10  -9   3    4.53    0.46
 -10  -9   3    4.15    0.39
  10   9   3    4.38    0.44
 -10  10   3    7.86    0.36
  10  10  -3    5.96    0.37
  10  10   3    7.15    0.40
  10 -10  -3    6.31    0.33
 -10  10  -3    6.02    0.37
  10 -10  -3    6.40    0.37
 -10 -10   3    7.29    0.37
 -10  10  -3    6.05    0.35
  10  10   3    7.19    0.39
 -10 -10   3    7.02    0.40
  10  10   3    6.85    0.28
  10   0   4   12.62    0.74
  10   0   4   12.60    1.02
  10   0  -4   12.11    1.06
 -10   0   4   12.00    0.97
  10   0   4   12.02    0.71
  10   0  -4   12.18    0.71
 -10   0   4   13.09    0.72
 -10   0  -4   12.68    0.81
  10   0   4   11.48    1.05
 -10   0  -4   11.92    0.98
 -10  -1  -4   26.57    1.27
  10   1  -4   26.98    1.14
 -10  -1  -4   26.61    1.50
  10  -1   4   24.84    1.14
  10  -1   4   25.17    1.12
  10  -1   4   24.97    1.58
  10  -1   4   23.33    1.48
  10   1  -4   25.48    1.57
 -10  -1   4   23.96    1.39
 -10   1  -4   26.16    1.33
 -10  -1   4   24.90    1.14
  10  -1  -4   25.57    1.60
  10  -1  -4   27.55    1.19
 -10  -1   4   25.20    1.15
  10   1   4   26.17    1.17
 -10  -1   4   24.67    1.46
  10   1   4   26.16    1.60
  10  -1  -4   25.05    1.13
  10   1   4   25.59    1.10
 -10   1  -4   26.04    1.47
  10   1   4   26.52    1.14
 -10  -1   4   26.44    1.44
  10   2  -4   13.98    0.77
  10  -2   4   15.96    0.83
  10  -2   4   15.55    0.83
  10  -2   4   14.79    1.21
  10  -2   4   15.87    1.19
 -10  -2  -4   13.45    1.10
 -10  -2   4   16.66    0.89
 -10  -2   4   16.02    0.86
  10  -2  -4   14.19    0.86
 -10  -2   4   16.13    1.13
 -10   2  -4   13.20    0.95
  10  -2  -4   12.83    1.27
  10   2   4   15.60    0.82
 -10  -2   4   13.67    1.09
  10   2   4   16.99    0.87
  10  -2  -4   14.59    1.23
 -10  -2   4   15.15    1.10
  10   2   4   16.61    0.83
  10  -2  -4   12.77    0.76
  10  -3   4    6.75    0.56
  10  -3   4    8.90    1.07
 -10  -3  -4    7.63    0.74
  10  -3   4    7.05    0.57
  10  -3  -4    7.35    0.62
 -10  -3   4    7.23    0.65
  10  -3  -4    6.93    1.00
  10   3   4    7.34    0.57
  10  -3  -4    6.67    0.55
 -10  -3   4    7.73    0.61
  10   3   4    8.24    0.60
 -10   3  -4    6.24    0.70
  10   3   4    8.53    0.62
 -10  -3   4    5.40    0.80
  10  -4   4   18.63    0.87
 -10  -4  -4   22.55    1.10
  10   4  -4   21.49    0.92
  10  -4   4   20.78    1.03
 -10  -4  -4   22.50    1.32
  10  -4   4   20.22    0.80
  10  -4   4   18.52    1.43
  10   4  -4   22.64    0.97
  10  -4   4   21.27    0.92
  10  -4   4   20.88    1.05
 -10   4   4   18.81    0.91
 -10  -4   4   20.57    1.08
  10  -4  -4   22.48    1.06
  10   4   4   19.24    0.94
  10  -4  -4   22.45    0.99
 -10   4  -4   24.20    1.28
 -10  -4   4   17.11    1.37
 -10  -4   4   21.01    1.08
  10  -4  -4   22.31    1.12
  10  -4  -4   22.65    1.55
  10   4   4   19.82    0.68
  10   4   4   19.81    1.02
  10   4   4   19.16    0.90
  10   4   4   20.38    1.01
  10  -5   4    6.03    0.56
  10  -5   4    4.83    0.43
 -10   5   4    5.55    0.45
  10  -5   4    4.87    0.49
  10  -5   4    5.79    0.48
  10   5  -4    4.70    0.44
  10  -5   4    6.40    0.55
  10   5  -4    4.50    0.49
 -10   5   4    6.05    0.48
  10  -5   4    5.33    0.92
  10   5   4    4.49    0.53
  10  -5  -4    4.57    0.54
 -10   5  -4    5.32    0.44
  10  -5  -4    6.33    0.96
 -10   5  -4    4.67    0.69
  10  -5  -4    4.76    0.57
  10   5   4    5.38    0.53
  10   5   4    5.56    0.50
  10  -5  -4    4.35    0.48
 -10  -5   4    4.58    0.56
  10   5   4    5.60    0.53
  10   5   4    5.28    0.31
  10  -6   4    8.93    1.16
  10  -6   4    7.69    0.57
  10   6  -4    7.64    0.57
 -10   6   4    6.67    0.46
  10  -6   4    7.20    0.63
  10  -6   4    7.18    0.52
 -10   6   4    7.38    0.52
  10   6  -4    7.55    0.46
 -10   6  -4    8.00    0.52
 -10   6  -4    7.70    0.77
  10   6   4    7.20    0.37
  10   6   4    7.71    0.55
  10  -6  -4    8.16    0.64
  10   6   4    7.01    0.56
  10   6   4    6.69    0.61
  10   6   4    7.64    0.56
  10  -6  -4    9.08    1.16
 -10  -6   4    7.16    0.64
  10   6   4    8.08    0.63
  10  -6  -4    7.69    0.58
  10   7  -4    0.86    0.18
  10  -7   4    0.60    0.22
 -10   7   4    0.70    0.22
 -10   7   4    0.89    0.16
  10   7  -4    0.86    0.25
  10  -7   4    0.47    0.26
  10  -7  -4    1.21    0.29
 -10  -7   4    0.47    0.21
  10   7   4    0.83    0.28
  10  -7  -4    0.98    0.29
 -10  -7   4    0.55    0.30
  10   7   4    0.86    0.16
  10  -7  -4    0.84    0.29
 -10   7  -4    1.55    0.39
  10   7   4    0.96    0.23
  10   7   4    1.11    0.28
  10   7   4    1.62    0.35
 -10  -7   4    0.72    0.27
  10   7   4    0.89    0.24
 -10   7  -4    1.52    0.28
  10  -8   4    7.10    0.47
 -10   8   4    7.54    0.47
 -10  -8  -4    7.72    0.59
  10  -8   4    7.39    0.59
  10   8  -4    7.26    0.53
  10   8   4    7.24    0.48
  10  -8  -4    6.43    0.50
  10   8   4    7.99    0.60
  10  -8  -4    7.48    0.55
 -10  -8   4    6.83    0.47
  10   8   4    7.45    0.35
 -10   8  -4    7.12    0.47
  10  -8  -4    7.47    0.57
 -10  -8   4    6.90    0.57
  10   8   4    7.51    0.55
  10   8   4    7.54    0.51
 -10  -9  -4    2.43    0.26
  10   9  -4    2.42    0.31
  10  -9   4    2.80    0.28
 -10   9   4    2.95    0.29
 -10   9  -4    2.41    0.35
 -10   9  -4    2.66    0.27
  10   9   4    2.77    0.19
 -10  -9   4    2.63    0.28
  10   9   4    2.17    0.31
  10  -9  -4    3.05    0.33
  10  -9  -4    2.32    0.29
  10   9   4    2.71    0.31
 -10  -9   4    2.91    0.33
  10   9   4    2.12    0.33
  10  10  -4   10.77    0.48
 -10  10   4   10.74    0.43
 -10  10  -4   11.16    0.45
  10 -10  -4   11.48    0.48
  10 -10  -4   11.01    0.45
  10  10   4   11.27    0.49
 -10  10  -4   11.83    0.50
 -10 -10   4   10.81    0.45
  10   0   5   33.24    1.78
  10   0   5   34.26    1.40
  10   0  -5   30.00    1.30
  10   0   5   35.01    1.34
  10   0  -5   25.10    1.71
  10   0  -5   28.59    1.37
 -10   0   5   33.07    1.73
  10   1  -5    1.50    0.50
  10   1  -5    1.75    0.37
  10  -1   5    1.23    0.29
  10  -1   5    1.02    0.27
  10   1  -5    1.60    0.33
  10  -1   5    1.22    0.44
  10  -1  -5    1.47    0.32
  10  -1  -5    1.47    0.55
  10  -1  -5    2.64    0.42
 -10  -1   5    0.92    0.29
 -10   1  -5    1.89    0.39
  10   1   5    0.83    0.25
  10   1   5    1.22    0.29
 -10  -1   5    1.07    0.46
  10  -2   5   29.54    0.92
  10  -2   5   29.61    1.75
  10  -2   5   31.29    1.27
  10  -2   5   29.13    1.13
  10  -2   5   30.04    1.30
  10   2  -5   26.19    1.84
  10  -2   5   28.16    1.12
 -10   2   5   29.07    1.14
  10   2   5   30.57    1.26
  10   2   5   29.07    1.17
 -10  -2   5   28.51    1.19
 -10   2  -5   26.73    1.50
  10  -2  -5   25.79    1.71
 -10  -2   5   29.91    1.31
  10  -2  -5   27.32    1.23
 -10  -2   5   29.21    1.70
  10  -2  -5   27.44    1.36
  10   2   5   32.43    1.34
  10   2   5   31.11    1.27
  10  -3   5    3.80    0.50
 -10   3   5    3.47    0.39
  10   3  -5    2.61    0.40
  10  -3   5    3.86    0.49
  10  -3   5    3.07    0.67
 -10   3   5    2.73    0.40
  10   3  -5    2.58    0.39
  10  -3   5    2.81    0.37
  10  -3   5    3.49    0.33
  10  -3   5    3.03    0.39
  10   3   5    2.88    0.21
 -10  -3   5    3.31    0.71
  10   3   5    3.85    0.49
 -10  -3   5    4.05    0.51
  10   3   5    3.73    0.44
  10  -3  -5    3.76    0.46
  10  -3  -5    2.99    0.73
 -10  -3   5    3.03    0.40
  10   3   5    3.06    0.47
  10  -3  -5    3.63    0.55
  10   3   5    3.14    0.41
 -10  -3   5    2.70    0.41
  10   3   5    3.39    0.43
  10  -3  -5    3.29    0.46
 -10   4   5   20.63    0.85
  10  -4   5   20.06    1.02
  10  -4   5   20.21    0.90
  10  -4   5   19.03    0.88
  10   4  -5   20.33    0.94
  10   4  -5   20.73    0.96
  10  -4   5   18.44    1.45
  10  -4   5   19.76    0.78
  10  -4   5   20.48    1.04
 -10  -4   5   19.29    1.05
 -10  -4   5   19.80    0.97
  10   4   5   20.36    0.61
  10  -4  -5   19.08    1.47
 -10  -4   5   18.58    0.90
  10  -4  -5   21.04    1.11
  10  -4  -5   19.09    0.93
  10  -4  -5   19.22    1.00
  10   4   5   18.87    0.99
  10   4   5   19.44    0.94
  10   4   5   18.93    0.90
  10   4   5   20.42    1.02
 -10   4  -5   23.17    1.48
  10   5  -5   20.41    0.96
  10  -5   5   19.48    0.89
  10  -5   5   18.42    0.86
 -10   5   5   18.33    0.81
  10   5  -5   20.54    0.91
  10  -5   5   20.16    1.03
  10  -5   5   18.53    0.78
  10  -5   5   17.62    1.47
  10  -5   5   19.44    1.02
 -10   5   5   19.49    0.77
  10  -5  -5   19.77    1.09
  10  -5  -5   19.39    1.00
  10   5   5   20.06    1.01
 -10   5  -5   21.29    1.26
  10   5   5   19.68    0.95
  10  -5  -5   19.82    0.94
  10  -5  -5   18.05    1.45
  10   5   5   18.97    0.60
 -10  -5   5   19.34    1.05
  10   5   5   19.76    1.03
 -10  -5   5   18.79    0.96
  10   5   5   19.53    0.88
  10  -6   5    0.41    0.20
  10  -6   5    0.33    0.23
  10  -6   5    0.49    0.19
  10  -6   5    0.65    0.54
  10   6  -5    0.84    0.25
 -10   6   5    0.90    0.23
  10   6  -5    0.99    0.24
  10  -6   5    0.58    0.28
 -10   6  -5    0.89    0.23
  10  -6  -5    1.00    0.25
  10   6   5    0.92    0.28
  10   6   5    0.50    0.11
  10  -6  -5    0.85    0.28
  10   6   5    0.83    0.24
 -10  -6   5    0.71    0.25
 -10   6  -5    1.01    0.41
  10   6   5    0.31    0.24
  10   6   5    0.41    0.22
 -10  -6   5    0.48    0.26
  10  -7   5    4.57    0.53
  10   7  -5    4.35    0.47
  10  -7   5    3.93    0.41
 -10   7   5    3.82    0.38
  10  -7   5    4.33    0.41
  10   7  -5    4.42    0.34
 -10  -7   5    3.75    0.39
 -10  -7   5    3.46    0.48
 -10  -7   5    4.59    0.49
  10   7   5    4.44    0.24
 -10   7  -5    3.87    0.61
  10   7   5    4.41    0.50
  10   7   5    4.88    0.41
  10   7   5    3.72    0.47
  10   7   5    4.21    0.44
  10   7   5    4.00    0.43
  10  -7  -5    3.96    0.43
  10  -7  -5    3.44    0.42
 -10   7  -5    4.97    0.41
  10   8  -5   10.39    0.60
 -10  -8  -5    9.24    0.65
 -10   8   5    9.02    0.49
  10  -8   5    9.90    0.54
  10  -8   5    9.88    0.68
  10  -8  -5   10.06    0.63
  10  -8  -5   10.84    0.63
 -10   8  -5   10.23    0.53
  10   8   5    9.82    0.59
  10   8   5    9.86    0.34
  10   8   5    9.63    0.64
  10   8   5   10.59    0.57
 -10  -8   5    9.04    0.56
  10  -8  -5   11.28    0.60
 -10  -8   5    9.30    0.51
  10  -9   5    4.06    0.30
  10   9  -5    3.78    0.33
 -10   9   5    3.49    0.28
 -10  -9   5    3.37    0.28
  10   9   5    3.70    0.32
 -10   9  -5    3.75    0.30
 -10   9  -5    3.40    0.38
 -10  -9   5    3.80    0.29
  10  -9  -5    3.51    0.33
  10   9   5    3.40    0.32
  10  -9  -5    3.30    0.30
  10   0  -6   64.57    2.15
  10   0   6   56.36    1.89
  10   0   6   59.49    2.12
 -10   0   6   59.24    1.96
 -10   0   6   55.44    2.61
  10   0  -6   64.23    2.34
 -10   0   6   56.55    1.92
  10   0  -6   64.28    2.91
  10   0   6   59.87    1.52
  10   0   6   60.13    1.90
  10   0   6   57.84    2.72
 -10   0   6   58.40    1.94
  10   0   6   61.42    2.25
 -10   1   6   10.92    1.19
 -10   1   6    9.62    0.56
  10  -1   6    9.30    0.69
  10  -1   6    9.97    0.62
 -10   1   6    9.03    0.62
  10  -1   6   10.20    0.68
  10  -1   6   10.16    1.07
  10   1  -6    9.85    1.09
  10   1  -6    9.83    0.74
  10  -1   6    8.87    0.59
 -10   1   6    9.84    0.64
  10  -1   6    9.01    0.41
 -10  -1   6    9.25    0.62
 -10  -1   6    9.50    0.59
  10  -1  -6   10.48    0.68
  10  -1  -6    9.27    1.04
  10   1   6    9.40    0.35
  10   1   6    9.96    0.70
  10   1   6   10.42    0.68
 -10  -1   6    9.92    0.66
  10   1   6    8.99    0.62
  10  -1  -6    9.41    0.73
  10   2  -6   28.94    1.79
 -10   2   6   27.51    1.05
  10  -2   6   26.04    1.71
  10  -2   6   28.08    1.12
  10  -2   6   28.89    1.25
 -10   2   6   27.64    1.12
  10  -2   6   26.43    1.11
  10  -2   6   26.37    0.87
  10  -2   6   28.65    1.30
  10   2  -6   28.74    1.16
 -10  -2   6   26.86    1.12
  10  -2  -6   29.96    1.84
  10   2   6   28.14    1.29
  10   2   6   28.01    1.23
  10   2   6   26.44    1.09
  10  -2  -6   29.94    1.25
  10   2   6   28.28    0.72
 -10  -2   6   28.98    1.15
 -10  -2   6   28.68    1.30
  10  -2  -6   29.61    1.40
  10   3  -6   15.78    0.82
  10  -3   6   16.35    0.88
  10   3  -6   15.68    0.90
  10  -3   6   15.21    0.62
  10  -3   6   15.03    1.31
 -10   3   6   15.85    0.67
  10  -3   6   16.93    0.94
  10  -3   6   16.41    0.80
  10  -3   6   14.93    0.77
  10   3   6   17.94    0.84
  10   3   6   15.71    0.88
  10  -3  -6   16.09    0.99
  10  -3  -6   16.13    0.84
  10  -3  -6   16.26    0.89
 -10  -3   6   15.21    0.90
  10  -3  -6   15.01    1.32
 -10  -3   6   14.88    0.78
  10   3   6   16.17    0.89
  10   3   6   15.78    0.83
 -10  -3   6   15.56    0.80
  10  -4   6   15.44    0.80
 -10   4   6   16.51    0.75
  10   4  -6   15.40    0.83
  10  -4   6   17.11    0.96
  10  -4   6   15.79    1.36
  10   4  -6   17.74    0.87
 -10   4   6   16.28    0.59
  10  -4   6   16.54    0.91
  10  -4   6   15.53    0.66
  10  -4   6   15.41    0.78
 -10  -4   6   16.88    0.95
  10  -4  -6   14.68    1.29
  10  -4  -6   15.35    0.98
 -10  -4   6   16.38    0.81
  10  -4  -6   16.02    0.90
  10   4   6   18.10    0.88
 -10  -4   6   18.21    0.84
  10   4   6   17.46    0.92
  10  -4  -6   15.43    0.82
  10   4   6   17.86    0.83
  10   4   6   16.72    0.94
  10   5  -6   20.98    0.95
  10   5  -6   20.84    0.96
  10  -5   6   18.93    1.00
  10  -5   6   19.68    0.90
  10  -5   6   17.83    1.52
 -10   5   6   19.24    0.83
  10  -5   6   20.70    0.79
  10  -5   6   20.53    1.06
  10  -5   6   19.23    0.88
  10   5   6   20.71    0.96
  10  -5  -6   18.48    1.08
 -10  -5   6   19.85    1.07
  10  -5  -6   19.95    0.93
  10   5   6   20.09    1.02
  10  -5  -6   17.90    1.45
  10   5   6   18.93    1.00
 -10   5  -6   20.66    1.23
 -10  -5   6   18.97    0.90
  10  -5  -6   22.08    1.04
  10   5   6   19.41    0.88
  10  -6   6    1.60    0.27
  10  -6   6    2.00    0.33
  10  -6   6    2.32    0.37
  10   6  -6    1.57    0.28
  10   6  -6    1.20    0.28
  10  -6   6    1.76    0.29
 -10   6   6    1.82    0.28
  10  -6   6    2.35    0.37
  10  -6  -6    1.56    0.30
 -10   6  -6    1.79    0.48
  10  -6  -6    1.32    0.30
  10   6   6    1.54    0.30
  10   6   6    1.39    0.30
  10   6   6    1.37    0.34
 -10  -6   6    1.75    0.28
 -10  -6   6    1.28    0.31
 -10   6  -6    1.67    0.27
  10  -7   6    3.01    0.41
  10   7  -6    2.43    0.28
  10   7  -6    2.74    0.37
  10  -7   6    2.22    0.32
 -10   7   6    2.73    0.31
  10  -7   6    2.86    0.30
  10  -7  -6    2.44    0.33
 -10   7  -6    3.22    0.34
  10   7   6    2.70    0.40
  10  -7  -6    2.24    0.34
 -10  -7   6    2.70    0.33
  10   7   6    2.49    0.34
  10  -8   6   -0.11    0.13
  10   8  -6    0.27    0.17
 -10   8   6    0.19    0.14
  10  -8   6    0.32    0.14
  10  -8  -6    0.30    0.15
  10   8   6    0.11    0.18
 -10   8  -6    0.28    0.15
 -10  -8   6    0.07    0.12
  10   8   6   -0.02    0.14
  10  -8  -6    0.15    0.19
  10   8   6    0.18    0.16
  10  -8  -6    0.49    0.18
 -10   9   6   17.22    0.60
  10   9  -6   18.52    0.68
  10  -9   6   17.12    0.64
 -10   9  -6   17.91    0.62
  10  -9  -6   18.11    0.68
  10   9   6   18.36    0.71
  10  -9  -6   18.27    0.70
 -10   0   7    5.84    0.39
  10   0   7    5.73    0.25
  10   0  -7    6.60    0.68
  10   0   7    6.78    0.62
  10   0  -7    7.02    1.01
  10   0   7    6.27    0.54
 -10   0   7    6.09    0.58
 -10   0   7    5.81    0.50
  10   0   7    5.56    0.51
  10   0   7    5.91    0.51
  10  -1   7   20.68    0.92
  10  -1   7   20.68    0.92
  10   1  -7   17.88    1.48
  10  -1   7   21.13    1.09
  10  -1   7   20.56    1.01
  10  -1   7   21.45    0.65
 -10   1   7   21.29    0.75
  10   1  -7   17.49    1.07
  10  -1   7   19.30    1.52
 -10   1   7   20.17    0.94
 -10   1   7   20.93    0.93
  10   1   7   20.47    0.92
  10  -1  -7   20.25    1.02
 -10  -1   7   18.90    0.93
  10  -1  -7   17.10    1.44
  10  -1  -7   18.74    1.10
  10   1   7   19.53    1.05
  10   1   7   20.24    1.00
 -10  -1   7   20.47    0.93
 -10  -1   7   20.49    0.82
  10   2  -7    6.41    1.00
  10   2  -7    5.59    0.51
  10  -2   7    7.27    0.54
  10  -2   7    6.74    0.36
 -10   2   7    7.83    0.55
  10  -2   7    7.29    0.55
  10  -2   7    7.10    0.58
  10  -2   7    7.09    1.07
  10   2  -7    7.52    0.71
 -10   2   7    7.54    0.57
  10  -2   7    7.31    0.62
  10  -2  -7    6.70    1.04
  10   2   7    6.54    0.52
  10  -2  -7    5.85    0.54
  10  -2  -7    6.08    0.72
 -10  -2   7    6.99    0.54
 -10  -2   7    7.63    0.63
  10   2   7    7.84    0.66
 -10  -2   7    7.27    0.46
  10   2   7    7.43    0.58
  10  -3   7    2.84    0.42
  10   3  -7    2.34    0.36
  10  -3   7    2.98    0.28
  10  -3   7    2.44    0.35
  10  -3   7    2.97    0.40
  10  -3   7    2.90    0.44
  10  -3   7    1.93    0.65
  10   3  -7    2.28    0.40
 -10  -3   7    2.76    0.44
  10   3   7    3.02    0.44
  10  -3  -7    2.57    0.48
  10  -3  -7    1.92    0.59
 -10  -3   7    2.89    0.32
 -10  -3   7    3.18    0.40
  10   3   7    2.93    0.38
  10  -3  -7    2.38    0.38
  10  -4   7   14.76    0.77
  10  -4   7   15.10    0.62
  10  -4   7   16.01    0.79
  10   4  -7   15.39    0.80
 -10   4   7   14.76    0.69
  10  -4   7   14.25    0.90
  10   4  -7   15.64    0.83
  10  -4   7   12.64    1.36
  10  -4   7   15.07    0.86
 -10  -4   7   14.53    0.88
  10   4   7   15.26    0.80
  10   4   7   14.84    0.85
  10  -4  -7   15.18    0.78
 -10  -4   7   14.70    0.69
 -10  -4   7   14.60    0.76
  10  -4  -7   15.60    1.35
  10  -4  -7   15.10    0.86
  10  -4  -7   15.32    0.98
  10   4   7   15.33    0.84
  10  -5   7    6.78    0.51
  10  -5   7    6.56    0.56
  10  -5   7    6.70    0.52
  10   5  -7    6.68    0.55
 -10   5   7    6.37    0.45
  10   5  -7    5.72    0.53
  10  -5   7    6.77    0.62
  10  -5   7    7.12    0.42
  10   5   7    6.36    0.53
  10   5   7    7.02    0.57
 -10  -5   7    6.66    0.43
 -10   5  -7    5.84    0.77
  10  -5  -7    6.88    0.51
  10  -5  -7    6.42    0.56
  10   5   7    6.72    0.57
  10  -5  -7    5.37    0.65
 -10  -5   7    6.00    0.49
 -10  -5   7    6.65    0.59
 -10   6   7    5.78    0.42
  10   6  -7    6.55    0.51
  10  -6   7    5.63    0.39
  10  -6   7    5.47    0.51
  10  -6   7    5.80    0.49
  10   6  -7    6.92    0.49
  10  -6   7    5.71    0.46
  10  -6  -7    6.28    0.53
  10   6   7    5.74    0.53
 -10  -6   7    5.80    0.39
  10   6   7    6.38    0.50
 -10   6  -7    7.39    0.46
  10  -6  -7    6.84    0.48
  10   7  -7    1.41    0.22
 -10   7   7    1.39    0.21
  10  -7   7    1.78    0.23
  10  -7   7    1.60    0.26
  10   7  -7    1.27    0.26
  10   7   7    1.45    0.26
 -10   7  -7    1.33    0.22
  10  -7  -7    1.77    0.27
  10   7   7    1.75    0.31
 -10  -7   7    1.53    0.15
  10  -7  -7    0.93    0.24
  10   8  -7    0.80    0.20
 -10   8   7    1.03    0.17
  10  -8   7    0.96    0.19
  10  -8   7    1.00    0.17
 -10   8  -7    1.12    0.19
  10   8   7    1.02    0.20
  10  -8  -7    0.51    0.20
  10  -8  -7    1.08    0.19
 -10   0   8   60.96    2.00
  10   0   8   65.62    1.96
 -10   0   8   61.86    2.01
  10   0   8   61.00    1.98
  10   0   8   61.70    2.33
  10   0  -8   60.17    2.40
  10  -1   8   52.39    1.24
  10  -1   8   49.70    2.62
 -10   1   8   53.21    1.75
  10  -1   8   50.74    1.72
  10  -1   8   52.21    1.69
  10   1  -8   50.21    2.07
 -10   1   8   54.69    1.74
  10   1  -8   44.66    2.50
  10  -1   8   50.58    2.02
  10   1   8   49.78    1.99
 -10  -1   8   52.52    1.74
  10   1   8   49.15    1.64
  10  -1  -8   52.46    2.12
  10  -1  -8   46.97    2.56
 -10  -1   8   51.86    1.76
  10  -2   8    7.30    0.33
 -10   2   8    7.18    0.54
  10   2  -8    6.81    0.54
  10  -2   8    7.30    0.54
  10  -2   8    7.25    0.63
  10  -2   8    7.01    0.51
 -10   2   8    7.69    0.54
  10  -2   8    7.14    1.11
  10  -2  -8    4.71    0.84
  10  -2  -8    5.90    0.71
 -10  -2   8    6.69    0.52
  10  -3   8   10.38    0.44
 -10   3   8   10.22    0.64
  10  -3   8   10.50    0.64
  10  -3   8   11.61    0.77
  10  -3   8   10.09    0.63
  10   3  -8   12.17    0.69
  10  -3  -8   11.56    0.72
 -10  -3   8   10.96    0.64
  10  -3  -8   10.93    0.85
 -10  -3   8    9.73    0.73
  10  -4   8    9.04    0.60
  10  -4   8    9.17    0.43
  10  -4   8    8.83    0.58
 -10   4   8    8.10    0.51
  10  -4   8    9.30    0.71
  10   4  -8    9.11    0.62
  10   4  -8    9.65    0.66
  10  -4  -8   10.17    0.64
 -10  -4   8    8.79    0.68
 -10  -4   8    9.22    0.58
  10  -4  -8    9.85    0.80
  10   5  -8    9.12    0.59
  10  -5   8    8.56    0.56
  10  -5   8    9.52    0.44
 -10   5   8    8.81    0.49
  10   5  -8    9.92    0.62
  10  -5   8    8.85    0.57
  10   5   8    8.81    0.56
  10  -5  -8    9.25    0.60
 -10  -5   8    8.37    0.53
  10  -6   8    0.13    0.17
  10  -6   8    0.42    0.13
  10  -6   8    0.14    0.19
  10   6  -8    0.27    0.16
  10   6  -8    0.64    0.20
 -10   6   8    0.25    0.14
  10   6   8    0.11    0.17
  10  -6  -8    0.03    0.17
 -10   6  -8    0.37    0.16
  10   6   8    0.29    0.21
  10  -6  -8    0.21    0.16
  10  -7   8    1.85    0.20
  10  -7   8    2.08    0.27
  10   7  -8    2.18    0.27
  10   7  -8    2.20    0.22
 -10   7   8    1.96    0.22
  10  -7  -8    2.38    0.26
 -10   7  -8    2.18    0.25
  10   7   8    1.50    0.23
  10  -8   8    1.58    0.16
  10  -8   8    1.67    0.19
  10   0   9    0.74    0.26
 -10   0   9    1.05    0.26
 -10   0   9    0.78    0.24
  10   0   9    1.22    0.33
  10  -1   9    5.76    0.50
  10  -1   9    4.32    0.53
 -10   1   9    4.69    0.45
 -10   1   9    5.48    0.46
  10  -1   9    5.90    0.49
  10   1  -9    5.18    0.62
 -10  -1   9    5.09    0.49
  10  -1  -9    4.75    0.64
  10  -2   9    9.46    0.60
 -10   2   9    8.88    0.58
 -10   2   9    9.85    0.58
  10   2  -9    7.54    0.55
  10  -2   9    9.48    0.71
  10  -2   9    9.66    0.58
 -10  -2   9    9.60    0.58
  10  -2  -9    7.35    0.72
  10  -3   9    4.91    0.47
  10  -3   9    4.72    0.24
 -10   3   9    5.48    0.48
  10   3  -9    3.96    0.43
  10  -3   9    4.71    0.44
 -10  -3   9    4.97    0.42
 -10   4   9   15.59    0.70
 -10   4   9   14.42    0.62
  10  -4   9   15.55    0.51
  10   4  -9   14.89    0.74
  10  -4   9   16.31    0.75
  10   4  -9   16.17    0.80
  10  -4   9   16.21    0.72
 -10   4   9   15.42    0.65
 -10  -4   9   15.59    0.72
  10  -5   9    3.38    0.34
  10   5  -9    3.46    0.37
  10  -5   9    3.21    0.22
  10   5  -9    3.57    0.37
 -10   5   9    3.54    0.32
  10  -5   9    3.19    0.33
 -10   5   9    3.37    0.30
 -10   5  -9    3.05    0.33
  10  -5  -9    3.65    0.40
 -10  -5   9    3.63    0.32
 -10   6   9    9.19    0.42
  10   6  -9    8.79    0.48
  10  -6   9    9.69    0.37
 -10   6   9   10.01    0.43
  10  -6   9   10.30    0.50
  10  -6   9    9.67    0.48
 -10   6  -9    9.23    0.44
  10  -7   9    4.79    0.22
  10  -7   9    4.48    0.29
  10   7  -9    4.39    0.29
 -10   0  10   10.57    0.58
  10   0  10   11.24    0.61
 -10   1  10    1.45    0.26
 -10   1  10    0.86    0.21
  10   1 -10    1.19    0.26
 -10   1  10    1.20    0.23
  10  -1  10    1.27    0.27
 -10  -1  10    0.90    0.22
  10   2 -10    9.54    0.55
  10  -2  10    8.78    0.55
 -10   2  10    8.89    0.52
 -10   2  10    8.94    0.47
 -10  -2  10    8.29    0.50
 -10   3  10    2.01    0.28
 -10   3  10    2.05    0.25
  10  -3  10    2.29    0.31
  10  -3  10    1.82    0.26
  10   3 -10    2.41    0.31
  10   3 -10    2.82    0.36
 -10  -3  10    1.97    0.27
 -10   4  10    8.82    0.41
  10   4 -10    8.90    0.50
 -10   4  10    8.60    0.46
  10  -4  10    9.42    0.52
 -10   4  10    8.71    0.43
  10   4 -10    9.02    0.54
  10  -4  10    9.20    0.47
 -10  -4  10    9.33    0.47
  10  -5  10    1.21    0.22
 -10   5  10    1.01    0.16
  10  -5  10    1.35    0.20
  10   5 -10    1.51    0.21
  10   5 -10    1.14    0.21
 -10   5  10    1.29    0.17
 -10  -5  10    0.99    0.17
  10   6 -10    7.77    0.35
 -10   0  11    7.29    0.41
 -10   0  11    7.02    0.38
  10   0 -11    6.64    0.42
  10  -1  11   21.45    0.81
  10   1 -11   20.02    0.79
 -10   1  11   20.45    0.74
 -10   1  11   21.51    0.71
  10  -1 -11   19.84    0.78
 -10  -1  11   21.15    0.77
 -10  -1  11   20.58    0.70
  10  -2  11    6.53    0.42
 -10   2  11    6.27    0.33
  10   2 -11    5.60    0.38
 -10  -2  11    5.86    0.36
  10   3 -11    0.41    0.19
 -10   3  11    0.13    0.11
 -10   3  11    0.35    0.14
  10   3 -11    0.36    0.13
  10  -3  11   -0.01    0.15
 -10  -3  11    0.41    0.14
 -10   4  11    3.63    0.22
  10   4 -11    4.10    0.29
  10  -4  11    4.48    0.30
 -10  -4  11    4.66    0.27
  10   0 -12   48.99    1.43
 -11   0   0    0.26    0.24
  11   0   0    0.17    0.28
  11   0   0    0.26    0.17
  11   0   0    0.01    0.14
  11   0   0    0.14    0.16
 -11   0   0    0.21    0.30
  11   0   0    0.12    0.25
 -11   0   0    0.22    0.23
  11  -1   0   10.77    0.93
  11  -1   0   10.63    0.61
 -11  -1   0   10.53    0.68
  11  -1   0   10.77    0.65
 -11   1   0    9.83    0.86
 -11  -1   0    9.49    0.79
 -11   1   0    9.63    0.84
  11   1   0   10.65    0.63
  11  -1   0   10.73    0.65
 -11  -1   0   10.89    0.85
  11   1   0   10.56    0.96
 -11  -1   0   10.99    0.92
  11   1   0   10.72    0.62
  11  -1   0   10.66    1.00
 -11   1   0   10.39    0.80
  11  -2   0   13.53    1.12
  11   2   0   11.60    0.67
  11   2   0   11.15    0.65
  11  -2   0   10.70    0.63
 -11   2   0   11.21    0.84
  11  -2   0   11.42    0.67
 -11  -2   0   11.04    0.86
 -11   2   0   10.05    0.86
 -11  -2   0   10.64    0.87
  11   2   0   12.10    1.03
  11  -2   0   11.82    0.68
  11  -2   0   10.39    0.94
 -11   2   0   11.17    0.89
 -11  -2   0   10.59    0.93
 -11  -2   0   10.77    0.70
  11   3   0    1.30    0.48
  11   3   0    1.20    0.27
  11  -3   0    1.36    0.47
  11   3   0    0.99    0.25
  11  -3   0    1.00    0.53
 -11   3   0    1.11    0.34
  11  -3   0    1.02    0.29
 -11   3   0    1.11    0.40
  11  -3   0    1.33    0.29
 -11  -3   0    0.80    0.37
 -11  -3   0    0.82    0.34
 -11  -3   0    1.37    0.31
  11  -4   0   11.80    0.74
 -11  -4   0   11.38    1.01
  11  -4   0   11.07    0.73
 -11   4   0   12.06    0.85
  11  -4   0   10.04    1.04
  11   4   0   11.72    0.72
  11   4   0   10.48    0.67
 -11  -4   0   12.17    0.78
  11  -4   0   11.44    0.59
 -11  -4   0   10.75    0.97
  11   4   0   11.59    0.71
  11  -4   0   11.26    0.69
 -11  -5   0    2.98    0.57
  11   5   0    3.18    0.41
 -11   5   0    2.49    0.45
  11   5   0    2.87    0.36
  11   5   0    2.22    0.38
  11  -5   0    2.16    0.67
 -11  -5   0    2.59    0.41
  11  -5   0    3.27    0.43
  11   5   0    2.62    0.38
  11  -5   0    2.14    0.36
  11   5   0    3.04    0.42
  11  -5   0    2.55    0.41
  11  -5   0    2.35    0.32
  11   5   0    3.08    0.40
 -11   6   0    7.82    0.54
  11   6   0    7.72    0.62
  11   6   0    7.24    0.54
  11   6   0    8.22    0.62
  11   6   0    7.33    0.50
  11  -6   0    7.56    0.58
 -11  -6   0    9.13    1.00
  11   6   0    8.13    0.56
  11   6   0    7.71    0.57
  11  -6   0    8.57    1.16
  11  -6   0    7.70    0.62
 -11  -6   0    8.19    0.68
  11  -6   0    7.97    0.51
  11   7   0    9.83    0.62
 -11  -7   0    9.74    0.97
  11  -7   0    9.35    0.67
 -11   7   0   11.16    0.77
 -11   7   0   10.00    0.60
  11   7   0   10.06    0.66
  11   7   0   10.16    0.65
  11   7   0   10.39    0.72
  11  -7   0    9.93    0.55
  11   7   0    9.82    0.57
  11   7   0   10.99    0.74
  11  -7   0   10.60    0.68
  11   8   0    3.81    0.42
 -11   8   0    5.22    0.46
  11   8   0    5.33    0.43
 -11  -8   0    4.10    0.47
  11  -8   0    4.62    0.32
  11  -8   0    5.07    0.52
 -11   8   0    4.07    0.45
  11   8   0    5.39    0.42
  11  -8   0    5.20    0.47
 -11   9   0    1.69    0.25
 -11   9   0    1.50    0.24
  11   9   0    1.85    0.24
  11   9   0    1.93    0.27
 -11  -9   0    1.74    0.25
  11  10   0    3.45    0.25
 -11 -10   0    3.76    0.29
 -11  10   0    4.31    0.28
  11  10   0    3.72    0.30
 -11   0   1    0.07    0.22
  11   0  -1    0.04    0.27
  11   0   1   -0.04    0.28
 -11   0   1    0.08    0.16
  11   0  -1    0.05    0.14
 -11   0  -1    0.32    0.26
  11   0   1    0.24    0.17
 -11   0  -1    0.25    0.19
  11   0  -1    0.32    0.19
 -11   0   1   -0.20    0.22
  11   0   1    0.12    0.16
  11   0   1    0.18    0.17
 -11   0   1   -0.12    0.28
  11   0   1    0.17    0.27
 -11   0  -1    0.06    0.29
  11   0  -1    0.10    0.31
 -11  -1  -1   19.93    1.23
  11   1  -1   21.92    0.91
 -11   1   1   19.62    1.24
 -11   1   1   19.21    1.19
  11  -1   1   19.19    0.92
  11  -1   1   18.38    0.91
  11  -1   1   18.69    1.24
 -11   1   1   19.07    0.94
  11   1  -1   20.18    0.95
 -11  -1  -1   20.55    1.20
  11   1  -1   21.26    1.38
  11   1  -1   21.43    1.27
 -11   1   1   18.97    1.09
  11  -1   1   17.41    0.88
  11  -1   1   18.98    1.35
 -11  -1   1   17.71    0.93
 -11   1  -1   19.80    1.21
 -11  -1   1   20.24    1.23
 -11  -1   1   19.89    1.24
  11  -1  -1   20.27    1.32
  11   1   1   18.36    0.91
  11   1   1   20.25    1.37
 -11  -1   1   19.08    1.10
 -11   1  -1   20.82    1.16
  11  -1  -1   21.87    1.40
  11   1   1   19.07    0.91
  11  -1  -1   20.11    0.93
 -11   1  -1   20.41    1.20
  11  -2   1   36.61    1.45
 -11  -2  -1   37.20    1.82
 -11  -2  -1   37.12    1.52
  11   2  -1   34.06    1.42
 -11  -2  -1   34.22    1.79
  11   2  -1   36.50    1.39
  11  -2   1   38.21    2.04
  11  -2   1   36.50    1.43
  11  -2   1   37.44    1.92
  11  -2   1   37.67    1.42
  11   2  -1   35.62    1.93
 -11   2   1   37.34    1.64
 -11   2  -1   34.96    1.73
 -11  -2   1   37.61    1.81
  11  -2  -1   37.13    1.95
  11   2   1   38.22    2.02
 -11   2  -1   36.03    1.68
 -11   2  -1   36.04    1.83
 -11  -2   1   38.07    1.51
  11  -2  -1   35.03    1.96
  11  -2  -1   36.14    1.46
  11   2   1   37.03    1.43
 -11  -2   1   36.53    1.85
  11   2   1   35.69    1.42
 -11  -2   1   37.42    1.68
  11   3  -1   60.37    2.10
  11  -3   1   57.94    2.05
 -11   3   1   59.78    2.32
  11  -3   1   56.98    2.70
 -11  -3  -1   59.50    2.63
  11  -3   1   57.45    2.07
  11   3  -1   57.64    2.74
  11  -3   1   61.38    2.12
 -11  -3  -1   61.36    2.21
  11   3  -1   59.78    2.05
  11  -3  -1   54.50    2.84
 -11  -3   1   60.62    2.20
 -11  -3   1   58.06    2.69
  11   3   1   58.87    2.08
  11   3   1   57.77    2.08
 -11   3  -1   60.92    2.41
 -11   3  -1   59.03    2.67
  11  -3  -1   57.91    2.72
 -11  -3   1   58.77    2.42
  11  -3  -1   60.08    2.13
  11  -3  -1   57.18    2.04
  11   4  -1   79.14    2.50
  11  -4   1   70.39    3.21
  11  -4   1   71.90    2.47
 -11  -4  -1   72.36    3.15
 -11  -4  -1   74.50    2.64
 -11   4   1   75.34    2.75
  11   4  -1   77.88    2.53
  11  -4   1   70.34    2.17
  11   4  -1   73.46    2.21
 -11  -4   1   71.21    3.22
  11   4   1   72.26    2.00
 -11   4  -1   79.04    2.88
  11   4   1   72.41    2.50
 -11  -4   1   69.26    2.95
  11   4   1   71.21    2.53
  11  -4  -1   74.22    2.34
  11  -4  -1   74.46    2.39
 -11  -4   1   72.56    2.64
  11  -4  -1   71.12    3.23
  11   4   1   69.44    2.34
  11  -4  -1   78.41    2.47
  11   4   1   67.08    2.17
  11  -4  -1   76.61    2.56
 -11  -4   1   73.16    2.89
  11  -5   1   59.06    2.03
  11   5  -1   64.46    2.03
  11  -5   1   60.31    2.18
  11   5  -1   63.45    2.08
  11   5  -1   62.68    2.21
  11  -5   1   60.40    2.89
 -11  -5  -1   64.53    2.67
  11   5  -1   61.00    1.94
  11  -5   1   60.17    2.08
  11   5  -1   65.72    2.22
 -11  -5  -1   65.85    2.36
  11  -5   1   58.99    1.89
 -11  -5   1   60.88    2.55
  11   5   1   57.98    2.06
  11  -5  -1   62.34    2.92
  11  -5  -1   65.71    2.16
  11  -5  -1   61.06    2.10
  11   5   1   60.37    1.76
  11   5   1   57.83    1.92
  11   5   1   57.95    2.19
  11  -5  -1   64.50    2.24
 -11  -5   1   60.78    2.31
 -11   5  -1   62.45    2.48
  11   5   1   59.94    2.22
  11  -5  -1   65.05    2.06
  11  -6   1    6.92    0.97
  11  -6   1    7.34    0.58
  11   6  -1    9.04    0.56
 -11  -6  -1    9.44    1.02
  11   6  -1    8.91    0.64
  11  -6   1    6.92    0.41
 -11   6   1    7.52    0.53
 -11  -6  -1    8.92    0.68
  11   6  -1    8.75    0.60
  11   6  -1    9.24    0.66
  11  -6   1    7.61    0.62
 -11   6   1    7.86    0.67
  11   6   1    7.04    0.61
 -11  -6   1    7.02    0.87
 -11   6  -1    8.06    0.54
  11   6   1    7.40    0.57
  11  -6  -1    9.38    0.68
  11  -6  -1    8.76    0.61
 -11   6  -1    7.27    0.68
  11   6   1    7.25    0.63
  11  -6  -1    9.59    0.58
  11  -6  -1    8.35    1.11
  11   6   1    6.99    0.45
  11   6   1    6.87    0.54
 -11  -6   1    7.71    0.65
  11   6   1    6.37    0.55
  11  -7   1   15.27    0.85
 -11   7   1   15.20    0.73
 -11   7   1   14.97    0.81
  11   7  -1   13.38    0.73
  11   7  -1   12.72    0.73
  11  -7   1   14.72    0.57
 -11  -7  -1   12.20    1.09
  11   7   1   15.18    0.65
  11   7   1   15.16    0.78
 -11   7  -1   13.72    0.69
  11   7   1   15.20    0.75
 -11  -7   1   15.21    0.91
  11   7   1   13.80    0.77
 -11  -7   1   15.58    0.85
  11   7   1   14.70    0.86
  11  -7  -1   13.63    0.71
  11   7   1   15.83    0.89
 -11  -7   1   15.35    1.08
  11  -7  -1   11.92    0.74
 -11   8   1    6.34    0.46
 -11  -8  -1    6.73    0.58
  11   8  -1    7.08    0.50
  11   8  -1    7.50    0.54
  11   8  -1    6.24    0.47
 -11   8   1    6.12    0.47
  11  -8   1    6.53    0.55
 -11   8  -1    6.89    0.60
  11   8   1    7.19    0.56
  11   8   1    7.68    0.53
  11  -8  -1    7.24    0.45
 -11   8  -1    7.12    0.49
  11   8   1    6.55    0.49
  11   8   1    5.94    0.48
  11  -8  -1    7.49    0.53
  11   8   1    6.56    0.42
 -11  -8   1    6.66    0.57
 -11  -9  -1    1.10    0.22
  11   9  -1    1.03    0.21
 -11   9   1    0.50    0.17
 -11   9   1    0.93    0.16
  11   9  -1    1.05    0.21
 -11  -9   1    0.56    0.18
 -11   9  -1    1.01    0.22
  11  -9  -1    0.88    0.22
  11  -9  -1    0.96    0.15
 -11   9  -1    1.00    0.22
  11   9   1    0.79    0.16
  11   9   1    0.80    0.21
 -11 -10  -1    1.72    0.22
  11  10  -1    2.17    0.24
 -11  10   1    2.15    0.21
  11  10  -1    2.27    0.26
  11  10   1    2.13    0.25
 -11 -10   1    1.90    0.22
  11  10   1    1.92    0.19
 -11  10  -1    2.15    0.21
 -11   0  -2    0.14    0.22
  11   0   2    0.12    0.15
 -11   0  -2    0.35    0.32
  11   0  -2    0.32    0.19
  11   0   2    0.19    0.16
 -11   0   2   -0.02    0.22
  11   0   2    0.30    0.33
  11   0   2    0.10    0.28
 -11   0   2    0.33    0.20
  11   0  -2    0.08    0.32
  11   0   2    0.08    0.15
 -11   0   2    0.49    0.32
  11   0  -2    0.63    0.33
  11  -1   2    6.71    0.49
  11   1  -2    6.32    0.82
  11  -1   2    6.99    0.89
 -11   1   2    6.13    0.51
  11  -1   2    6.66    0.87
  11  -1   2    5.99    0.51
  11   1  -2    6.84    0.91
 -11   1   2    6.97    0.62
  11  -1   2    6.52    0.52
 -11  -1  -2    8.22    0.69
 -11  -1  -2    7.44    0.88
  11   1  -2    6.54    0.52
 -11  -1   2    6.63    0.54
  11   1   2    5.88    0.52
 -11  -1   2    6.95    0.84
  11   1   2    6.57    0.51
  11  -1  -2    6.63    0.53
 -11  -1   2    6.63    0.74
  11   1   2    6.49    0.50
 -11   1  -2    6.86    0.65
  11  -1  -2    5.46    0.79
 -11   1  -2    7.62    0.88
 -11  -1   2    6.85    0.61
  11  -1  -2    6.10    0.86
  11   1   2    5.87    0.86
  11  -2   2   19.98    0.96
  11  -2   2   18.92    0.93
  11   2  -2   19.34    0.96
  11  -2   2   18.86    0.92
 -11  -2  -2   19.63    1.19
 -11   2   2   21.36    1.09
  11  -2   2   20.71    1.36
 -11  -2  -2   19.36    1.28
  11  -2   2   20.04    1.42
  11  -2  -2   19.09    0.96
  11   2   2   18.27    1.38
 -11  -2   2   20.72    1.16
  11   2   2   19.68    0.95
 -11   2  -2   19.20    1.23
  11   2   2   20.28    1.00
 -11  -2   2   20.64    1.01
  11  -2  -2   20.65    1.40
  11  -2  -2   21.79    1.42
 -11   2  -2   19.63    1.21
 -11  -2   2   19.10    1.29
 -11   2  -2   19.56    1.17
 -11  -2   2   19.73    1.29
  11   2   2   19.42    0.93
 -11  -3  -2   11.16    0.74
  11   3  -2   10.17    0.65
  11  -3   2    9.78    0.99
 -11  -3  -2   10.12    0.89
  11  -3   2   10.60    0.67
 -11   3   2    9.81    0.73
  11  -3   2    9.85    0.65
  11   3   2   10.35    0.67
  11   3   2   10.88    0.68
 -11  -3   2   10.78    0.72
  11  -3  -2    9.17    0.97
 -11   3  -2   10.70    0.87
 -11  -3   2   11.07    0.84
 -11  -3   2   10.75    0.96
 -11   3  -2   10.15    0.89
  11  -3  -2   10.86    0.69
  11   4  -2   16.41    0.82
  11   4  -2   16.65    0.79
  11  -4   2   16.51    0.92
  11  -4   2   17.28    1.34
  11  -4   2   17.75    0.93
  11  -4   2   17.22    0.82
  11  -4   2   18.07    0.91
  11  -4   2   16.72    0.78
 -11  -4  -2   17.58    0.97
  11   4  -2   16.40    0.66
  11   4  -2   18.14    0.91
 -11  -4   2   18.05    0.98
  11  -4  -2   16.53    0.84
  11  -4  -2   16.33    0.86
  11  -4  -2   16.49    1.34
 -11  -4   2   17.60    1.09
 -11  -4   2   17.15    1.27
  11   4   2   16.92    0.92
  11   4   2   17.40    0.90
  11   4   2   16.83    0.86
  11   4   2   17.85    0.68
  11  -4  -2   18.05    0.92
 -11   4  -2   17.76    1.13
 -11   4  -2   16.68    1.21
  11   5  -2    5.74    0.48
  11  -5   2    5.91    0.55
  11  -5   2    6.21    0.49
  11  -5   2    6.62    1.00
  11   5  -2    5.65    0.52
 -11  -5  -2    5.08    0.58
  11  -5   2    5.61    0.53
 -11   5   2    6.17    0.62
  11   5  -2    6.04    0.51
  11   5   2    5.55    0.54
  11   5   2    4.95    0.37
  11   5   2    5.38    0.54
  11  -5  -2    5.45    0.52
 -11  -5   2    5.87    0.58
 -11   5  -2    5.17    0.68
  11  -5  -2    6.09    0.55
  11   5   2    5.35    0.56
  11   5   2    5.28    0.52
  11  -5  -2    5.12    0.86
 -11  -5   2    5.53    0.71
  11  -5  -2    6.67    0.53
 -11   6   2    1.45    0.28
  11   6  -2    1.27    0.30
  11   6  -2    1.19    0.29
  11  -6   2    2.17    0.66
 -11   6   2    1.54    0.34
  11  -6   2    1.76    0.39
  11   6   2    1.50    0.30
  11  -6  -2    1.22    0.29
  11   6   2    1.50    0.31
  11  -6  -2    1.24    0.29
 -11  -6   2    2.06    0.41
  11   6   2    1.69    0.33
  11   6   2    1.48    0.23
 -11   6  -2    1.38    0.39
  11   6   2    1.44    0.32
  11  -6  -2    2.03    0.36
  11   6   2    1.65    0.36
 -11   6  -2    1.70    0.29
  11  -6  -2    1.81    0.61
 -11  -6   2    1.24    0.43
  11  -7   2    1.03    0.31
  11   7  -2    0.93    0.24
 -11   7   2    0.72    0.23
  11   7  -2    0.55    0.23
 -11  -7  -2    0.75    0.51
 -11   7   2    0.79    0.24
  11  -7  -2    0.68    0.23
  11   7   2    0.57    0.23
  11   7   2    0.61    0.22
  11  -7  -2    0.53    0.21
  11   7   2    0.50    0.22
 -11   7  -2    0.64    0.23
  11   7   2    0.42    0.23
  11   7   2    0.30    0.24
 -11  -7   2    0.86    0.39
  11  -7  -2    0.72    0.24
  11   7   2    0.78    0.17
 -11  -7   2    0.72    0.28
 -11   8   2    1.09    0.24
  11   8  -2    0.83    0.24
 -11   8   2    0.88    0.21
 -11  -8  -2    0.63    0.25
  11  -8   2    1.10    0.28
 -11  -8   2    0.81    0.22
  11   8   2    0.92    0.25
  11   8   2    0.97    0.24
  11   8   2    1.10    0.20
  11  -8  -2    0.76    0.22
  11  -8  -2    0.79    0.24
 -11   8  -2    0.61    0.20
 -11   8  -2    0.43    0.29
  11   8   2    1.22    0.28
  11   8   2    1.48    0.28
  11   9  -2    0.86    0.22
 -11   9   2    1.22    0.21
  11   9   2    1.26    0.23
  11   9   2    0.79    0.16
  11  -9  -2    0.91    0.17
 -11  -9   2    1.22    0.21
  11   9   2    0.67    0.21
 -11   9  -2    0.87    0.20
  11   9   2    0.69    0.24
  11  -9  -2    0.77    0.20
 -11   9  -2    0.97    0.23
 -11  10   2    1.59    0.17
  11  10  -2    1.88    0.22
 -11 -10  -2    2.07    0.22
  11  10   2    2.00    0.17
 -11  10  -2    1.73    0.19
  11  10   2    1.85    0.22
 -11  10  -2    1.90    0.18
 -11 -10   2    2.00    0.21
 -11   0  -3    0.13    0.21
  11   0   3    0.33    0.17
 -11   0   3    0.13    0.19
 -11   0   3   -0.04    0.32
  11   0   3    0.07    0.18
  11   0   3    0.20    0.17
  11   0   3    0.16    0.31
 -11   0   3    0.26    0.26
  11   0  -3    0.43    0.35
  11   0   3    0.28    0.35
  11   0  -3    0.02    0.16
 -11   0  -3    0.08    0.30
  11  -1   3    7.36    0.81
  11   1  -3    5.92    0.85
 -11  -1  -3    5.74    0.60
  11  -1   3    6.59    1.02
  11  -1   3    6.09    0.52
  11  -1   3    5.79    0.49
  11   1  -3    4.58    0.45
  11  -1   3    5.87    0.51
 -11   1   3    5.82    0.58
  11  -1  -3    5.62    0.51
 -11   1  -3    5.18    0.60
 -11  -1   3    6.65    0.62
  11   1   3    6.27    0.53
  11   1   3    6.40    0.52
  11   1   3    5.51    0.47
 -11  -1   3    6.16    0.53
  11  -1  -3    5.13    0.80
 -11  -1   3    7.34    0.91
 -11   2   3   38.85    1.56
  11  -2   3   36.96    1.48
 -11  -2  -3   38.40    1.80
  11  -2   3   37.26    1.51
  11  -2   3   34.63    1.94
  11   2  -3   39.62    1.50
  11  -2  -3   38.03    2.05
  11   2   3   35.73    1.45
  11   2   3   36.00    1.46
  11  -2  -3   37.64    1.50
  11  -2  -3   36.91    2.02
  11   2   3   36.36    1.53
 -11  -2   3   37.58    1.64
 -11   2  -3   36.64    1.85
 -11  -2   3   35.72    1.82
 -11  -2   3   37.14    1.53
 -11  -3  -3   50.88    1.90
  11  -3   3   43.46    1.55
  11  -3   3   46.87    1.79
  11  -3   3   44.54    1.73
  11   3  -3   48.39    1.57
  11  -3   3   43.58    1.56
  11   3  -3   47.94    1.74
  11  -3   3   42.71    2.29
 -11  -3  -3   49.09    2.18
  11   3   3   41.37    1.71
  11   3   3   42.57    1.61
  11   3   3   45.41    1.74
 -11  -3   3   40.75    2.12
  11   3   3   44.14    1.54
 -11  -3   3   45.46    1.93
 -11  -3   3   45.40    1.81
  11  -3  -3   48.82    2.43
 -11   3  -3   47.45    2.23
  11   3   3   43.23    1.28
  11  -3  -3   49.19    1.68
  11  -3  -3   48.45    1.78
 -11   3  -3   51.17    2.10
  11   4  -3   26.14    0.98
  11   4  -3   27.18    1.12
  11  -4   3   25.83    1.05
  11   4  -3   26.82    1.17
  11  -4   3   24.31    1.01
 -11  -4  -3   29.15    1.30
  11  -4   3   25.38    0.95
 -11   4   3   25.06    1.13
  11  -4   3   25.53    1.69
  11  -4   3   25.07    1.17
  11  -4   3   25.55    1.20
  11  -4  -3   28.54    1.76
  11   4   3   22.75    1.07
  11   4   3   23.99    1.03
  11   4   3   24.45    0.83
  11   4   3   24.44    1.17
  11  -4  -3   26.79    1.13
  11  -4  -3   27.48    1.16
 -11   4  -3   27.90    1.45
 -11  -4   3   25.93    1.35
  11  -4  -3   28.50    1.23
  11   4   3   24.56    1.18
 -11  -4   3   26.26    1.26
  11   5  -3    7.13    0.44
  11  -5   3    8.46    0.65
 -11  -5  -3    7.55    0.66
  11  -5   3    9.47    0.61
  11   5  -3    7.61    0.56
  11  -5   3    9.65    0.59
  11  -5   3   10.76    1.28
 -11   5   3    9.39    0.63
  11   5  -3    8.37    0.57
  11   5   3    8.07    0.57
 -11   5  -3    7.45    0.86
  11  -5  -3    6.33    0.97
  11  -5  -3    7.68    0.61
  11   5   3    9.14    0.43
 -11  -5   3    8.88    0.78
  11   5   3   10.24    0.69
  11  -5  -3    7.58    0.63
 -11  -5   3    9.20    0.70
  11   5   3    9.56    0.62
  11   5   3    9.64    0.67
  11  -5  -3    6.78    0.56
  11  -6   3   30.06    1.28
 -11   6   3   27.47    1.02
 -11   6   3   27.45    1.10
  11   6  -3   25.99    1.13
  11   6  -3   26.41    1.04
  11  -6   3   27.95    1.06
  11  -6   3   25.73    1.78
  11  -6  -3   26.10    1.15
  11  -6  -3   25.22    1.14
  11  -6  -3   24.72    1.74
 -11  -6   3   28.95    1.33
  11   6   3   29.65    1.29
  11   6   3   27.76    1.10
  11   6   3   27.93    0.89
  11   6   3   26.81    1.16
 -11   6  -3   25.23    1.40
  11  -6  -3   26.46    1.23
 -11  -6   3   27.33    1.35
 -11   6  -3   25.65    1.01
  11   6   3   27.43    1.25
 -11   7   3   11.16    0.59
  11   7  -3    9.44    0.63
  11  -7   3   10.72    0.72
  11  -7   3   10.09    0.58
 -11   7   3   10.14    0.54
  11  -7  -3   10.41    0.68
  11   7   3   10.43    0.47
  11   7   3   10.63    0.66
 -11  -7   3   10.07    0.73
 -11   7  -3   10.57    0.59
  11   7   3   11.11    0.62
  11  -7  -3   10.30    0.63
  11   7   3   10.55    0.70
  11  -7  -3   10.73    0.65
  11   7   3   10.41    0.71
  11   7   3   10.09    0.63
  11  -8   3    8.24    0.63
 -11   8   3    8.61    0.50
 -11  -8  -3    8.42    0.60
  11   8  -3    9.37    0.55
  11  -8   3    8.32    0.48
  11  -8  -3    9.21    0.55
  11   8   3    8.32    0.52
  11  -8  -3    8.53    0.59
 -11   8  -3    8.55    0.50
  11  -8  -3    8.79    0.56
 -11  -8   3    8.26    0.51
  11   8   3    8.83    0.57
  11   8   3    8.83    0.40
  11   8   3    8.84    0.62
  11   8   3    8.29    0.51
  11   9  -3    4.30    0.37
 -11   9   3    4.37    0.32
 -11  -9  -3    4.89    0.35
  11  -9  -3    4.73    0.32
  11   9   3    4.81    0.26
 -11   9  -3    4.50    0.34
 -11   9  -3    5.19    0.44
  11   9   3    4.81    0.38
  11   9   3    5.16    0.38
  11  -9  -3    4.39    0.36
 -11  -9   3    4.43    0.43
 -11  -9   3    4.27    0.34
  11  10  -3    0.82    0.16
 -11  10  -3    0.85    0.14
 -11   0  -4    0.20    0.24
 -11   0   4   -0.06    0.17
  11   0  -4    0.12    0.17
  11   0   4    0.08    0.19
  11   0  -4    0.22    0.33
  11   0   4   -0.13    0.35
  11   0   4    0.27    0.20
  11  -1   4   21.05    1.04
  11   1  -4   19.03    1.41
  11  -1   4   21.14    1.02
 -11  -1  -4   19.74    1.17
  11   1  -4   20.59    1.00
  11  -1   4   20.59    1.41
  11  -1  -4   21.33    1.03
 -11  -1   4   21.45    1.04
 -11  -1   4   21.93    1.05
  11  -1  -4   19.14    1.45
  11   1   4   20.89    1.04
  11   1   4   21.35    1.02
  11   1   4   20.74    0.98
 -11   1  -4   19.80    1.21
  11  -2   4    4.73    0.36
  11  -2   4    5.61    0.51
  11  -2   4    5.56    0.47
  11   2  -4    5.98    0.51
  11  -2   4    5.48    0.47
 -11  -2  -4    6.76    0.67
 -11   2   4    6.75    0.53
  11  -2   4    5.91    0.53
 -11   2   4    6.68    0.65
  11  -2   4    6.41    0.92
  11   2  -4    6.17    0.54
  11  -2  -4    6.66    0.59
  11   2   4    6.05    0.52
  11   2   4    6.00    0.50
 -11  -2   4    6.22    0.92
  11  -2  -4    5.23    0.51
 -11  -2   4    5.76    0.54
 -11  -2   4    5.71    0.58
  11  -2  -4    5.24    0.86
  11   2   4    6.14    0.48
 -11  -2   4    6.12    0.57
  11   2   4    5.81    0.32
  11   2   4    6.64    0.53
 -11   2  -4    5.24    0.71
  11   2   4    6.28    0.56
  11  -3   4   16.42    0.79
  11  -3   4   15.47    0.77
  11  -3   4   16.07    0.66
  11   3  -4   14.23    0.79
  11   3  -4   15.58    0.78
 -11   3   4   16.23    0.82
 -11   3   4   15.40    0.83
  11  -3   4   16.46    0.90
  11  -3   4   16.63    0.89
  11  -3   4   14.99    1.28
  11   3   4   15.67    0.90
 -11  -3   4   14.66    1.25
  11  -3  -4   15.14    1.29
 -11  -3   4   15.44    0.92
  11  -3  -4   16.22    0.89
  11   3   4   15.99    0.87
  11   3   4   16.08    0.88
  11   3   4   14.63    0.80
  11   3   4   15.20    0.56
 -11  -3   4   16.17    0.91
  11   3   4   14.53    0.77
  11  -3  -4   14.74    0.81
  11  -3  -4   15.68    0.86
 -11  -3   4   15.23    0.79
  11  -4   4    6.09    0.56
 -11   4   4    6.07    0.50
  11  -4   4    6.21    0.97
  11  -4   4    6.64    0.58
  11  -4   4    5.69    0.47
  11   4  -4    5.47    0.45
  11  -4   4    5.40    0.52
  11   4  -4    6.17    0.53
 -11  -4  -4    6.36    0.59
  11  -4   4    6.21    0.42
  11   4   4    6.34    0.51
  11   4   4    5.92    0.55
  11   4   4    5.74    0.51
  11  -4  -4    5.46    0.53
 -11  -4   4    6.30    0.59
 -11  -4   4    5.48    0.71
 -11   4  -4    5.97    0.76
  11   4   4    6.20    0.54
  11   4   4    5.78    0.33
  11  -4  -4    6.58    0.64
  11  -4  -4    5.10    0.48
  11  -4  -4    5.94    0.93
  11  -5   4    9.98    0.60
  11  -5   4    8.96    0.69
 -11   5   4    8.73    0.56
  11  -5   4    9.17    0.52
  11  -5   4   10.07    1.26
  11  -5   4    8.25    0.56
  11  -5   4    9.35    0.68
  11   5  -4    8.23    0.51
  11   5  -4    9.01    0.62
 -11  -5   4    8.72    0.69
 -11   5  -4    9.20    0.86
  11  -5  -4    9.40    0.69
  11  -5  -4    9.53    1.19
  11  -5  -4    8.68    0.61
  11   5   4    8.72    0.62
  11  -5  -4    9.04    0.68
  11   5   4    8.99    0.41
  11   5   4    9.28    0.68
  11   5   4    9.34    0.61
  11   5   4    8.76    0.65
  11  -6   4    5.60    0.51
  11   6  -4    5.73    0.37
 -11   6   4    5.91    0.42
  11  -6   4    5.44    1.03
  11   6  -4    6.85    0.52
  11  -6   4    6.55    0.46
 -11   6   4    5.16    0.44
  11  -6   4    6.55    0.52
  11  -6   4    5.91    0.57
  11   6   4    6.05    0.52
 -11   6  -4    6.14    0.47
  11   6   4    5.75    0.56
  11  -6  -4    5.87    0.55
  11  -6  -4    5.48    0.54
 -11  -6   4    4.85    0.56
 -11  -6   4    6.92    0.61
 -11   6  -4    5.64    0.76
  11  -6  -4    6.33    0.51
  11   6   4    5.93    0.55
  11   6   4    6.47    0.34
  11   6   4    5.95    0.49
  11  -7   4    7.16    0.49
  11   7  -4    6.94    0.54
 -11   7   4    7.04    0.47
  11  -7   4    7.71    0.63
 -11   7  -4    7.30    0.49
  11   7   4    7.17    0.57
  11  -7  -4    7.27    0.55
 -11  -7   4    8.15    0.51
 -11  -7   4    6.60    0.61
  11   7   4    7.80    0.60
  11   7   4    7.40    0.51
  11  -7  -4    6.69    0.51
  11   7   4    6.80    0.52
 -11  -7   4    7.27    0.61
  11  -7  -4    6.87    0.54
  11   7   4    7.39    0.56
  11   7   4    7.49    0.36
 -11  -8  -4    2.99    0.41
  11   8  -4    2.76    0.35
  11  -8   4    2.24    0.28
  11  -8   4    2.69    0.42
 -11   8   4    3.14    0.31
  11   8   4    2.85    0.21
  11   8   4    3.17    0.38
 -11   8  -4    2.89    0.33
  11  -8  -4    2.59    0.33
  11  -8  -4    2.81    0.33
  11  -8  -4    3.32    0.39
 -11  -8   4    2.84    0.38
  11   8   4    2.50    0.32
  11   8   4    2.80    0.32
  11   8   4    2.93    0.40
 -11  -8   4    2.87    0.31
 -11  -9  -4    5.48    0.33
 -11   9   4    4.34    0.30
  11   9  -4    4.50    0.35
  11  -9   4    5.21    0.33
 -11   9  -4    4.39    0.32
  11   9   4    5.31    0.37
 -11  -9   4    4.71    0.33
  11  -9  -4    4.56    0.34
  11   9   4    5.07    0.19
 -11  -9   4    5.54    0.36
  11  -9  -4    4.91    0.34
 -11   9  -4    4.46    0.42
  11   9   4    5.09    0.35
 -11   0   5    0.20    0.21
  11   0   5    0.24    0.19
 -11   0   5    0.12    0.19
  11   0  -5    0.10    0.32
  11   0   5   -0.09    0.39
  11   0   5    0.07    0.12
  11   0   5    0.07    0.19
  11   0  -5    0.29    0.21
  11   0   5    0.27    0.20
 -11   0  -5    0.04    0.29
  11   0  -5    0.12    0.26
  11   0   5    0.12    0.20
  11  -1   5    5.87    0.36
  11  -1   5    6.65    0.92
  11  -1   5    6.17    0.50
  11  -1   5    5.69    0.55
  11   1  -5    6.60    0.64
  11  -1   5    6.26    0.54
  11   1  -5    5.45    0.88
  11  -1   5    5.44    0.48
 -11   1   5    5.95    0.51
  11   1  -5    6.66    0.55
  11   1  -5    5.74    0.51
 -11   1   5    5.96    0.51
 -11  -1   5    6.43    0.91
 -11  -1   5    6.22    0.54
  11  -1  -5    6.02    0.55
  11   1   5    6.47    0.59
  11  -1  -5    4.45    0.82
 -11  -1   5    6.12    0.48
  11   1   5    6.41    0.55
  11   1   5    6.53    0.59
  11   1   5    6.60    0.57
  11   1   5    5.93    0.52
  11   1   5    6.44    0.32
 -11  -1   5    5.72    0.54
 -11   2   5   28.40    1.14
  11  -2   5   28.42    1.29
  11  -2   5   27.44    1.10
  11   2  -5   26.66    1.18
  11  -2   5   28.04    1.12
  11  -2   5   29.84    1.80
 -11   2   5   28.11    1.12
  11   2  -5   25.13    1.11
  11  -2   5   28.09    0.91
  11  -2   5   30.31    1.28
  11  -2  -5   25.69    1.14
  11  -2  -5   27.33    1.27
  11   2   5   30.33    1.33
  11   2   5   29.58    1.18
  11   2   5   28.01    1.11
  11   2   5   26.99    0.79
  11  -2  -5   24.94    1.21
  11   2   5   28.84    1.25
  11   2   5   28.84    1.24
 -11  -2   5   28.97    1.30
 -11  -2   5   26.67    1.18
  11  -2  -5   23.95    1.73
 -11  -2   5   28.44    1.14
  11   3  -5   12.78    0.72
  11  -3   5   10.20    0.72
 -11   3   5    9.77    0.60
  11  -3   5   10.04    1.13
  11  -3   5    9.37    0.69
 -11   3   5   11.41    0.68
  11  -3   5   10.64    0.51
  11  -3   5    9.84    0.62
  11   3  -5   12.80    0.71
  11  -3  -5   12.21    1.17
 -11  -3   5   10.60    0.66
  11   3   5   10.57    0.75
  11   3   5   10.01    0.71
 -11  -3   5   10.07    0.70
  11   3   5   10.19    0.65
  11   3   5    9.48    0.66
  11  -3  -5   12.27    0.81
  11  -3  -5   12.66    0.72
  11   3   5   10.65    0.40
  11  -3  -5   12.04    0.73
  11   3   5   10.80    0.71
 -11  -3   5   10.91    0.75
  11  -4   5   12.09    0.69
  11  -4   5   13.44    0.59
  11  -4   5   13.78    0.71
  11  -4   5   13.81    0.82
 -11   4   5   12.71    0.64
  11   4  -5   12.33    0.72
  11   4  -5   10.33    0.65
  11  -4   5   12.54    1.24
  11  -4   5   13.79    0.82
  11   4   5   13.12    0.79
 -11   4  -5   10.31    1.00
  11  -4  -5   11.18    1.19
  11   4   5   13.30    0.75
 -11  -4   5   13.03    0.72
  11   4   5   12.87    0.44
  11   4   5   13.75    0.73
 -11  -4   5   11.27    0.74
 -11  -4   5   13.91    0.85
  11   4   5   13.66    0.80
  11  -4  -5   11.35    0.71
  11  -4  -5   11.30    0.76
  11  -5   5   16.17    0.78
  11  -5   5   14.70    1.36
  11  -5   5   16.98    0.92
  11   5  -5   15.48    0.75
  11   5  -5   15.87    0.83
  11  -5   5   15.97    0.68
  11  -5   5   15.22    0.90
 -11   5   5   16.44    0.66
  11  -5   5   14.60    0.78
  11   5   5   14.96    0.88
  11  -5  -5   15.80    0.81
  11   5   5   16.28    0.90
  11  -5  -5   14.47    1.34
  11   5   5   15.64    0.83
 -11  -5   5   16.09    0.86
  11  -5  -5   14.89    0.87
 -11  -5   5   14.74    0.91
 -11   5  -5   15.61    1.13
  11   5   5   15.76    0.79
  11   5   5   16.09    0.51
  11  -6   5   10.63    0.65
 -11   6   5   11.55    0.59
  11  -6   5   11.86    0.75
  11  -6   5   11.15    0.63
  11  -6   5   11.38    0.57
  11   6  -5   11.58    0.68
 -11   6  -5   11.07    0.59
  11   6   5   10.49    0.39
 -11  -6   5   10.68    0.69
  11   6   5   10.62    0.73
 -11   6  -5    9.98    0.91
  11  -6  -5   10.48    0.64
 -11  -6   5   11.62    0.77
  11   6   5   11.04    0.67
  11   6   5   10.14    0.70
  11  -6  -5   11.24    0.72
  11   6   5   10.82    0.63
  11  -6  -5   10.55    0.70
 -11   7   5   14.15    0.62
  11  -7   5   13.98    0.79
  11  -7   5   12.91    0.62
  11   7  -5   12.41    0.70
  11  -7   5   14.20    0.67
  11  -7  -5   12.87    0.69
 -11   7  -5   13.32    0.63
  11   7   5   12.87    0.63
  11  -7  -5   13.24    0.74
 -11  -7   5   13.14    0.69
  11  -7  -5   13.94    0.73
  11   7   5   13.37    0.71
  11   7   5   13.30    0.77
  11   7   5   13.25    0.41
  11   7   5   12.49    0.76
 -11   8   5    2.50    0.26
  11  -8   5    2.52    0.29
  11   8  -5    2.84    0.33
  11  -8  -5    2.66    0.30
  11  -8  -5    2.86    0.32
  11  -8  -5    2.60    0.32
  11   8   5    2.07    0.33
  11   8   5    2.89    0.32
 -11   8  -5    3.17    0.32
 -11  -8   5    2.30    0.30
  11   8   5    2.10    0.31
  11  -9   5    1.35    0.18
 -11   9   5    1.26    0.16
  11   9  -5    1.01    0.19
  11  -9  -5    1.22    0.19
 -11   9  -5    0.99    0.22
  11   9   5    1.33    0.21
  11  -9  -5    0.87    0.16
 -11   9  -5    1.13    0.18
 -11  -9   5    0.96    0.15
  11   0  -6    0.11    0.21
 -11   0   6   -0.17    0.17
  11   0  -6    0.02    0.40
  11   0   6    0.14    0.10
  11   0   6    0.17    0.21
 -11   0   6    0.20    0.21
  11   0   6   -0.03    0.19
  11   0   6    0.18    0.22
  11   0   6   -0.03    0.18
 -11   0   6    0.01    0.17
  11   1  -6    2.75    0.40
  11  -1   6    3.13    0.40
  11   1  -6    3.54    0.75
  11  -1   6    3.78    0.27
  11  -1   6    4.05    0.53
  11   1  -6    4.18    0.53
 -11   1   6    3.42    0.37
  11  -1   6    2.93    0.38
  11  -1   6    2.89    0.72
 -11   1   6    2.75    0.37
  11  -1   6    3.33    0.46
  11  -1  -6    3.19    0.49
  11   1   6    3.25    0.44
  11   1   6    3.35    0.20
  11  -1  -6    3.10    0.69
  11  -1  -6    2.78    0.43
  11   1   6    4.03    0.45
  11   1   6    3.93    0.51
 -11  -1   6    3.28    0.39
  11   1   6    2.71    0.42
 -11  -1   6    2.40    0.36
  11  -2   6    7.34    1.01
 -11   2   6    7.46    0.48
  11  -2   6    6.76    0.52
  11  -2   6    7.14    0.39
  11  -2   6    8.12    0.62
  11   2  -6    7.69    0.66
 -11   2   6    7.17    0.55
  11  -2   6    7.55    0.64
  11   2  -6    5.81    0.52
  11  -2   6    7.07    0.55
  11   2   6    7.20    0.55
  11   2   6    7.60    0.62
 -11  -2   6    6.86    0.53
  11  -2  -6    7.47    0.61
  11   2   6    7.80    0.57
 -11  -2   6    7.08    0.53
 -11  -2   6    7.30    0.63
  11  -2  -6    7.34    0.66
  11   2   6    7.68    0.64
  11   2   6    7.69    0.27
  11  -2  -6    8.23    1.13
  11   3  -6   13.48    0.75
  11   3  -6   12.77    0.78
  11  -3   6   13.84    0.85
  11  -3   6   13.21    0.56
 -11   3   6   13.73    0.73
  11  -3   6   12.25    0.71
  11  -3   6   12.59    1.24
 -11   3   6   12.93    0.59
  11  -3   6   12.23    0.80
  11   3   6   13.30    0.75
  11  -3  -6   11.09    1.17
  11   3   6   12.00    0.70
  11   3   6   13.24    0.80
  11  -3  -6   12.71    0.74
  11  -3  -6   12.10    0.75
 -11  -3   6   13.62    0.73
  11   3   6   12.99    0.79
 -11  -3   6   12.15    0.70
 -11  -3   6   12.37    0.81
  11  -3  -6   13.20    0.86
  11  -4   6   15.48    0.64
  11  -4   6   15.63    0.92
 -11   4   6   14.74    0.56
  11  -4   6   16.03    0.79
  11   4  -6   15.43    0.81
  11   4  -6   15.29    0.79
  11  -4   6   15.74    0.79
  11  -4   6   15.99    0.89
  11  -4   6   13.26    1.35
  11   4   6   16.51    0.89
  11  -4  -6   15.06    0.85
  11   4   6   15.48    0.88
 -11  -4   6   15.13    0.91
  11  -4  -6   12.45    1.26
 -11  -4   6   15.91    0.78
 -11  -4   6   16.46    0.80
  11   4   6   14.94    0.81
  11   4   6   16.52    0.79
  11  -4  -6   16.01    0.81
  11  -5   6    4.09    0.53
  11   5  -6    2.82    0.37
  11  -5   6    3.60    0.42
  11  -5   6    2.81    0.30
  11  -5   6    3.34    0.45
  11   5  -6    2.88    0.40
  11  -5   6    2.82    0.37
 -11   5   6    2.78    0.34
  11   5   6    3.13    0.45
  11  -5  -6    3.27    0.41
  11  -5  -6    2.39    0.36
 -11  -5   6    3.76    0.49
 -11   5  -6    2.67    0.60
  11   5   6    3.07    0.41
  11   5   6    3.07    0.38
  11   5   6    3.95    0.47
 -11  -5   6    3.43    0.40
  11  -6   6    1.57    0.35
  11  -6   6    1.14    0.21
  11  -6   6    1.29    0.28
  11  -6   6    1.51    0.30
  11   6  -6    0.99    0.21
  11   6  -6    1.15    0.28
 -11   6   6    1.65    0.27
 -11   6  -6    1.04    0.23
  11  -6  -6    1.23    0.27
 -11  -6   6    1.33    0.25
  11   6   6    1.13    0.29
  11   6   6    1.27    0.28
  11  -6  -6    1.35    0.28
 -11  -6   6    1.18    0.34
  11   6   6    1.74    0.32
  11   6   6    1.19    0.25
 -11   7   6    0.54    0.17
  11  -7   6    0.67    0.18
  11   7  -6    0.43    0.20
  11  -7   6    0.41    0.17
  11   7   6    0.83    0.23
 -11   7  -6    0.81    0.20
  11  -7  -6    0.48    0.19
  11   7   6    0.69    0.22
  11  -7  -6    0.68    0.25
  11  -7  -6    0.66    0.20
 -11  -7   6    0.59    0.19
  11  -8   6    2.02    0.25
  11  -8   6    2.13    0.24
  11   8  -6    2.14    0.27
 -11   8   6    2.16    0.23
  11  -8  -6    1.93    0.26
  11   8   6    2.23    0.28
 -11   8  -6    2.44    0.26
  11  -8  -6    2.31    0.27
 -11  -8   6    2.17    0.20
  11   0   7   -0.34    0.18
  11   0  -7    0.00    0.31
  11   0   7   -0.16    0.19
  11   0   7   -0.14    0.19
  11   0  -7    0.45    0.49
 -11   0   7    0.06    0.14
 -11   0   7    0.00    0.18
  11   0   7    0.19    0.08
  11   0   7    0.27    0.23
 -11   0   7    0.18    0.21
  11   1  -7   19.68    0.92
  11  -1   7   18.66    0.89
 -11   1   7   19.38    0.90
  11  -1   7   19.78    1.07
  11  -1   7   18.17    1.53
  11   1  -7   17.89    1.46
  11  -1   7   20.49    1.01
  11  -1   7   18.83    0.62
 -11   1   7   19.21    0.90
  11  -1   7   18.64    0.88
 -11   1   7   19.48    0.72
  11  -1  -7   18.19    1.48
  11   1   7   19.79    1.06
  11  -1  -7   19.68    1.08
  11   1   7   19.62    0.90
  11  -1  -7   20.75    0.99
  11   1   7   19.61    0.98
 -11  -1   7   19.29    0.90
 -11  -1   7   19.11    0.78
  11   2  -7   12.88    0.82
 -11   2   7   14.20    0.74
  11  -2   7   13.77    0.52
  11  -2   7   14.70    0.75
  11  -2   7   14.14    0.81
  11  -2   7   12.98    0.86
  11  -2   7   12.57    1.29
  11   2  -7   12.57    0.73
 -11  -2   7   13.74    0.74
  11  -2  -7   13.36    0.82
 -11  -2   7   13.83    0.64
  11  -2  -7   11.42    1.21
  11   2   7   12.95    0.87
  11  -2  -7   12.25    0.85
  11   2   7   13.51    0.80
  11   2   7   14.69    0.74
  11  -3   7   77.07    3.61
  11  -3   7   84.02    2.93
  11   3  -7   80.57    2.56
  11  -3   7   86.86    2.48
  11  -3   7   82.71    2.77
  11   3  -7   84.46    2.70
  11  -3   7   83.35    2.12
  11  -3   7   84.26    2.51
 -11  -3   7   85.28    2.51
 -11  -3   7   81.19    2.49
 -11  -3   7   81.20    2.87
  11   3   7   84.76    2.78
  11   3   7   83.00    2.72
  11  -3  -7   83.43    2.80
  11   3   7   86.97    2.44
  11  -3  -7   73.65    3.53
  11  -3  -7   78.50    2.95
  11  -4   7    7.41    0.56
  11  -4   7    8.14    0.55
  11   4  -7    7.92    0.57
  11   4  -7    7.53    0.56
  11  -4   7    7.72    0.62
  11  -4   7    8.85    0.69
  11  -4   7    8.33    0.43
 -11  -4   7    7.93    0.55
  11   4   7    8.74    0.62
  11   4   7    7.97    0.57
 -11  -4   7    7.73    0.67
  11  -4  -7    7.54    0.55
  11  -4  -7    7.93    0.59
  11   4   7    7.67    0.54
 -11  -4   7    8.46    0.49
  11   4   7    8.04    0.61
  11  -5   7    3.04    0.38
  11   5  -7    3.34    0.42
  11   5  -7    2.44    0.34
  11  -5   7    2.83    0.28
 -11   5   7    2.79    0.31
  11  -5   7    2.73    0.43
  11  -5   7    2.92    0.38
  11  -5  -7    2.45    0.34
  11   5   7    3.04    0.42
 -11  -5   7    2.90    0.29
  11   5   7    3.07    0.39
  11   5   7    2.12    0.35
 -11  -5   7    3.16    0.35
  11  -5  -7    2.59    0.37
  11   6  -7   33.48    1.17
  11  -6   7   34.13    1.20
  11  -6   7   35.95    1.22
  11   6  -7   35.63    1.25
 -11   6   7   33.43    1.08
  11  -6   7   34.81    1.05
  11   6   7   35.08    1.27
  11  -6  -7   34.43    1.23
  11   6   7   31.89    1.34
  11  -6  -7   33.43    1.32
 -11  -6   7   34.92    1.10
 -11   6  -7   34.81    1.11
  11  -7   7    5.39    0.33
  11  -7   7    6.29    0.41
  11   7  -7    6.29    0.42
 -11   7   7    5.71    0.35
  11  -7  -7    5.01    0.41
  11   7   7    5.96    0.42
  11  -7  -7    5.80    0.44
  11  -7  -7    6.25    0.41
 -11   7  -7    5.47    0.37
  11  -8   7   17.38    0.59
  11   8  -7   18.84    0.68
  11  -8   7   16.95    0.64
  11  -8  -7   18.60    0.70
  11  -8  -7   19.08    0.68
  11   8   7   18.28    0.69
  11   0   8    0.34    0.21
 -11   0   8    0.12    0.18
  11   0   8    0.28    0.26
 -11   0   8    0.22    0.20
  11   0   8    0.30    0.22
  11   1  -8    1.22    0.27
 -11   1   8    1.54    0.30
  11  -1   8    1.01    0.26
  11  -1   8    1.26    0.33
  11  -1   8    0.88    0.30
 -11   1   8    1.14    0.27
  11  -1   8    1.33    0.29
  11   1   8    1.41    0.30
 -11  -1   8    1.08    0.27
  11   1   8    1.33    0.33
  11  -2   8    4.26    0.24
 -11   2   8    4.37    0.45
  11   2  -8    4.53    0.54
  11   2  -8    4.06    0.43
 -11   2   8    4.36    0.44
  11  -2   8    5.13    0.61
  11  -2   8    5.16    0.58
  11  -2   8    4.81    0.49
  11  -2   8    4.05    0.43
  11  -2  -8    3.45    0.52
 -11  -2   8    4.62    0.47
  11   2   8    4.63    0.47
  11  -3   8    8.20    0.37
  11   3  -8    9.02    0.64
  11  -3   8    7.97    0.55
  11   3  -8    8.25    0.56
  11  -3   8    8.18    0.55
  11  -3   8    8.08    0.68
  11  -3  -8    8.53    0.64
 -11  -3   8    8.50    0.55
  11   4  -8    0.19    0.21
  11  -4   8    0.16    0.17
  11  -4   8    0.33    0.19
  11   4  -8    0.48    0.20
  11  -4   8   -0.01    0.11
 -11  -4   8    0.13    0.17
  11  -4  -8    0.34    0.22
  11   5  -8    1.17    0.24
  11  -5   8    1.21    0.25
 -11   5   8    1.19    0.21
  11  -5   8    1.49    0.19
  11   5  -8    1.26    0.27
  11  -5   8    1.51    0.28
  11  -5  -8    1.19    0.26
  11   5   8    1.84    0.29
 -11  -5   8    1.49    0.26
  11  -6   8    0.12    0.15
 -11   6   8    0.18    0.13
  11  -6   8    0.05    0.11
  11   6  -8    0.20    0.15
  11  -6   8    0.22    0.18
  11  -6  -8    0.14    0.15
  11  -6  -8    0.19    0.16
  11   6   8    0.22    0.16
  11   7  -8    0.09    0.12
  11  -7   8    0.26    0.12
 -11   7   8    0.16    0.11
  11  -7   8    0.12    0.10
  11  -7  -8    0.11    0.16
  11   7   8    0.17    0.13
 -11   0   9    0.13    0.18
  11   0   9    0.09    0.23
  11   0   9   -0.12    0.16
  11   1  -9    0.70    0.23
  11  -1   9    1.13    0.27
 -11   1   9    0.29    0.18
  11  -1   9    1.25    0.26
 -11   1   9    0.88    0.25
 -11  -1   9    1.16    0.25
  11   2  -9   28.00    1.15
 -11   2   9   26.19    0.98
 -11   2   9   25.56    1.00
  11   2  -9   25.58    1.02
  11  -2   9   25.71    0.98
  11  -2   9   23.55    1.01
 -11  -2   9   26.00    1.01
  11  -3   9    4.79    0.43
  11   3  -9    5.40    0.46
 -11   3   9    4.93    0.40
  11  -3   9    4.56    0.42
  11   3  -9    5.19    0.43
 -11  -3   9    3.66    0.37
  11  -4   9   22.71    0.90
  11   4  -9   22.12    0.93
  11  -4   9   22.15    0.86
  11  -4   9   22.61    0.62
  11   4  -9   23.74    0.92
 -11  -4   9   23.00    0.87
  11   5  -9   10.07    0.53
 -11   5   9   11.74    0.50
  11  -5   9   11.83    0.53
  11  -5   9   11.43    0.56
  11  -5   9   11.16    0.36
  11   5  -9   10.57    0.55
 -11  -5   9   11.05    0.50
  11  -6   9    4.34    0.19
  11   6  -9    4.32    0.26
  11   6  -9    4.35    0.31
  11  -6   9    4.22    0.30
  11  -6   9    4.36    0.32
 -11   0  10    0.10    0.14
  11   0 -10    0.09    0.13
  11   0  10    0.44    0.20
  11   1 -10    1.13    0.22
 -11   1  10    1.32    0.22
  11  -1  10    0.81    0.23
 -11  -1  10    1.11    0.21
  11   2 -10    2.08    0.31
 -11   2  10    1.57    0.23
  11  -2  10    0.99    0.24
  11   2 -10    1.57    0.25
  11  -2  10    0.98    0.21
 -11  -2  10    1.33    0.22
  11  -3  10    0.51    0.17
  11   3 -10    0.33    0.16
 -11   3  10    0.35    0.15
 -11   3  10    0.47    0.15
  11   3 -10    0.54    0.18
  11  -3  10    0.58    0.19
 -11  -3  10    0.58    0.17
  11   4 -10    0.79    0.18
  11  -4  10    0.86    0.19
  11   4 -10    0.63    0.18
 -11   4  10    0.81    0.16
  11  -4  10    0.84    0.18
 -11  -4  10    0.84    0.17
  11  -5  10    0.14    0.13
  11   5 -10    0.25    0.12
 -11   0  11    0.18    0.13
 -11   0  11    0.14    0.11
  11   0 -11    0.25    0.13
  11   1 -11   17.39    0.67
  11   1 -11   18.48    0.72
  11  -1  11   16.99    0.65
 -11   1  11   16.83    0.61
 -11   1  11   17.43    0.58
 -11  -1  11   17.14    0.64
  11  -1 -11   17.16    0.66
  11   2 -11    2.38    0.24
  11   2 -11    2.33    0.27
  11  -2  11    2.13    0.25
 -11   2  11    1.91    0.21
 -11  -2  11    1.74    0.20
  11  -2 -11    2.68    0.24
  11   3 -11   21.25    0.73
  11  -3  11   21.00    0.74
 -11  -3  11   20.68    0.70
  12   0   0   20.74    0.96
 -12   0   0   18.54    1.35
 -12   0   0   22.19    1.24
 -12   0   0   22.21    1.07
  12   0   0   20.69    1.00
  12   0   0   21.68    1.37
 -12   0   0   20.08    1.30
 -12  -1   0   89.81    3.76
  12  -1   0   93.14    3.73
  12  -1   0   95.78    3.10
  12  -1   0   93.39    2.94
 -12   1   0   85.60    3.37
 -12  -1   0   92.08    3.12
  12  -1   0   90.76    3.03
 -12   1   0   91.44    3.37
  12   1   0   91.55    3.03
  12   1   0   93.41    2.96
 -12   1   0   89.18    3.75
 -12  -1   0   93.38    3.43
  12   2   0    0.79    0.25
  12   2   0    0.77    0.24
  12  -2   0    0.98    0.45
 -12   2   0    0.86    0.32
  12  -2   0    1.08    0.28
 -12  -2   0    0.92    0.37
  12  -2   0    1.00    0.26
 -12   2   0    0.71    0.39
  12  -2   0    1.15    0.28
 -12  -2   0    0.82    0.37
 -12  -2   0    1.10    0.30
  12   3   0    1.25    0.30
 -12  -3   0    0.95    0.31
  12  -3   0    0.75    0.26
  12   3   0    0.85    0.24
  12  -3   0    0.91    0.20
  12  -3   0    1.15    0.29
  12  -3   0    1.02    0.26
 -12  -3   0    1.07    0.38
  12  -3   0    1.09    0.28
  12   3   0    0.86    0.24
 -12   3   0    0.92    0.33
  12  -3   0    0.63    0.41
  12   3   0    0.75    0.24
 -12  -3   0    1.17    0.45
  12   3   0    0.72    0.25
  12  -4   0   24.93    1.11
  12  -4   0   26.23    1.17
 -12  -4   0   25.04    1.22
  12   4   0   23.12    1.00
  12   4   0   23.60    1.14
 -12  -4   0   23.76    1.41
 -12   4   0   24.30    1.29
  12  -4   0   25.39    1.04
  12  -4   0   23.20    1.08
  12  -4   0   25.49    1.70
  12   4   0   24.07    1.08
  12   4   0   24.85    0.93
  12  -4   0   23.39    0.91
  12   4   0   25.32    1.15
  12   5   0    0.59    0.27
  12  -5   0    0.59    0.48
 -12   5   0    0.57    0.32
  12  -5   0    0.68    0.26
  12  -5   0    0.46    0.23
  12  -5   0    0.25    0.17
  12   5   0    0.25    0.20
 -12  -5   0    0.76    0.40
  12   5   0    0.14    0.17
 -12  -5   0    0.80    0.29
  12   5   0    0.37    0.23
  12  -5   0    0.48    0.25
  12   5   0    0.40    0.20
  12   6   0   15.76    0.71
  12   6   0   16.07    0.78
  12  -6   0   15.53    0.86
  12  -6   0   15.08    0.66
  12  -6   0   15.71    1.40
  12  -6   0   14.40    0.82
 -12  -6   0   15.37    0.93
  12   6   0   14.81    0.79
 -12  -6   0   16.12    1.16
  12   6   0   15.86    0.83
  12   6   0   16.40    0.89
  12   6   0   15.95    0.88
  12   7   0    0.30    0.24
  12  -7   0    0.17    0.18
 -12  -7   0   -0.06    0.36
  12  -7   0    0.07    0.23
  12   7   0    0.12    0.16
  12   7   0    0.33    0.19
  12   7   0    0.40    0.22
  12   7   0    0.46    0.21
 -12   7   0    0.33    0.21
 -12   7   0    0.01    0.23
  12  -7   0    0.21    0.13
 -12   8   0   20.58    0.90
  12   8   0   22.18    0.80
  12   8   0   20.20    0.85
 -12  -8   0   20.65    0.97
  12  -8   0   21.58    0.90
  12   8   0   20.72    0.89
 -12   8   0   21.41    0.81
 -12   9   0    2.33    0.24
 -12   9   0    2.62    0.26
 -12  -9   0    2.16    0.27
  12   9   0    2.38    0.28
  12   9   0    2.45    0.25
  12   0   1   70.53    2.94
 -12   0   1   69.39    2.44
  12   0   1   72.65    2.39
 -12   0  -1   63.57    2.67
  12   0  -1   65.62    2.94
 -12   0  -1   63.29    2.91
 -12   0   1   69.60    2.66
  12   0  -1   68.80    2.38
  12   0   1   68.93    2.32
  12   0   1   70.92    2.45
 -12   0   1   69.96    2.91
  12   0  -1   63.02    3.17
 -12   0   1   70.06    3.02
 -12  -1  -1   11.31    0.93
 -12   1   1   13.06    1.03
  12  -1   1   12.88    0.72
  12  -1   1   11.46    0.70
 -12  -1  -1   11.26    0.93
  12  -1   1   11.17    1.02
 -12   1   1   10.88    0.85
  12   1  -1   11.43    0.70
 -12   1   1   12.55    0.75
  12  -1   1   11.61    0.73
 -12  -1   1   11.95    0.90
  12   1   1   12.15    0.71
  12   1   1   10.93    0.70
 -12   1  -1   12.18    0.94
 -12   1  -1   12.17    0.92
  12  -1  -1   12.25    0.72
 -12  -1   1   11.54    0.99
  12  -1  -1   12.69    1.10
 -12  -1   1   11.97    0.76
  12   2  -1   32.46    1.29
 -12   2   1   31.24    1.52
  12  -2   1   30.02    1.29
  12  -2   1   30.63    1.32
 -12  -2  -1   29.63    1.67
  12  -2   1   30.69    1.28
 -12  -2  -1   31.27    1.39
  12   2  -1   31.53    1.32
  12  -2   1   32.38    1.83
 -12  -2  -1   31.42    1.66
 -12   2  -1   33.21    1.57
 -12  -2   1   30.07    1.36
  12   2   1   30.44    1.29
 -12   2  -1   30.87    1.70
  12  -2  -1   30.67    1.81
  12  -2  -1   31.21    1.32
 -12  -2   1   30.56    1.51
  12   2   1   30.73    1.29
 -12  -2   1   28.50    1.69
  12  -3   1   54.29    1.81
 -12  -3  -1   55.94    2.15
  12  -3   1   54.35    2.68
  12  -3   1   58.36    2.06
  12  -3   1   58.58    2.08
  12   3  -1   53.76    2.03
 -12   3   1   57.92    2.29
  12   3  -1   54.70    1.91
  12   3  -1   56.33    2.00
 -12  -3  -1   53.16    2.63
 -12  -3  -1   57.43    2.59
  12  -3   1   56.76    2.02
  12   3  -1   56.14    1.78
  12  -3   1   56.79    1.94
  12  -3  -1   55.10    1.83
  12   3   1   57.43    1.94
  12  -3  -1   53.45    2.68
 -12   3  -1   54.59    2.33
 -12  -3   1   56.14    2.68
  12  -3  -1   55.19    1.85
  12   3   1   56.18    1.62
  12  -3  -1   53.96    1.94
 -12  -3   1   59.12    2.17
  12   3   1   58.44    2.06
  12   3   1   55.90    1.80
 -12   3  -1   53.84    2.62
  12   3   1   59.39    2.06
  12  -3  -1   58.95    2.10
 -12  -3   1   59.10    2.42
  12   4  -1    3.87    0.50
  12  -4   1    3.58    0.41
  12   4  -1    4.33    0.50
  12  -4   1    4.49    0.53
 -12   4   1    4.34    0.53
 -12  -4  -1    4.01    0.72
  12  -4   1    4.29    0.84
  12   4  -1    3.54    0.42
 -12  -4  -1    3.11    0.46
  12   4  -1    4.47    0.52
  12  -4   1    3.86    0.46
  12  -4  -1    3.84    0.41
  12   4   1    3.25    0.45
  12   4   1    4.36    0.50
 -12   4  -1    3.82    0.61
  12   4   1    3.73    0.42
  12   4   1    3.64    0.37
  12   4   1    3.83    0.48
  12  -4  -1    4.38    0.49
  12  -4  -1    4.06    0.52
  12  -4  -1    3.98    0.80
 -12  -4   1    3.67    0.62
  12  -4  -1    4.43    0.52
 -12  -4   1    3.57    0.49
  12  -5   1   25.71    1.17
  12   5  -1   26.16    1.11
  12  -5   1   25.18    1.12
 -12  -5  -1   25.88    1.26
  12  -5   1   24.61    1.04
  12   5  -1   25.78    1.17
  12   5  -1   24.37    1.03
  12  -5   1   25.82    1.75
  12   5  -1   26.03    1.19
 -12  -5  -1   25.58    1.53
  12   5  -1   24.02    1.06
  12  -5  -1   25.89    1.02
  12  -5  -1   25.63    1.21
 -12   5  -1   24.05    1.33
  12  -5  -1   23.49    1.69
  12   5   1   25.27    1.12
 -12  -5   1   25.81    1.45
 -12  -5   1   25.31    1.25
  12   5   1   23.91    1.17
  12  -5  -1   24.17    1.12
  12   5   1   25.73    0.93
  12   5   1   26.35    1.21
  12   5   1   26.13    1.06
  12   6  -1    9.91    0.70
  12   6  -1   10.65    0.61
 -12   6   1    9.47    0.70
  12   6  -1    9.14    0.62
 -12  -6  -1    9.97    1.02
  12  -6   1    9.90    0.66
  12  -6   1   10.61    0.70
  12   6  -1   10.46    0.62
  12  -6   1    9.53    1.25
  12   6  -1    9.58    0.67
 -12  -6  -1    9.75    0.74
  12   6   1   10.56    0.63
  12   6   1    9.07    0.51
  12   6   1   10.44    0.71
  12   6   1   10.03    0.64
 -12  -6   1    9.92    0.73
  12   6   1   10.17    0.66
  12  -6  -1   10.46    1.27
 -12  -6   1    9.63    0.91
  12  -6  -1   10.17    0.73
  12   6   1    9.32    0.69
  12  -6  -1    9.68    0.66
  12  -6  -1   10.38    0.57
 -12   7   1    3.16    0.41
 -12   7   1    3.01    0.36
 -12  -7  -1    2.65    0.57
  12  -7   1    3.79    0.48
  12   7  -1    2.97    0.38
  12   7  -1    2.54    0.36
  12   7  -1    2.41    0.34
  12   7   1    3.42    0.47
 -12  -7   1    2.31    0.54
 -12  -7   1    2.38    0.41
  12  -7  -1    2.59    0.30
  12  -7  -1    2.50    0.37
 -12  -7   1    3.24    0.48
  12   7   1    2.79    0.38
  12   7   1    2.70    0.42
  12   7   1    2.46    0.34
 -12   7  -1    3.09    0.37
  12   7   1    2.75    0.30
  12   7   1    3.17    0.39
 -12   7  -1    2.76    0.46
  12   8  -1    4.19    0.42
 -12  -8  -1    4.13    0.45
 -12   8   1    3.47    0.35
  12  -8   1    3.36    0.43
 -12   8   1    3.48    0.33
  12   8  -1    3.69    0.36
  12   8   1    3.12    0.36
  12  -8  -1    3.83    0.40
 -12   8  -1    4.46    0.39
  12   8   1    3.40    0.41
  12   8   1    3.05    0.34
 -12   8  -1    4.00    0.45
  12   8   1    3.17    0.31
  12  -8  -1    4.07    0.27
  12   8   1    3.54    0.38
  12   9  -1    7.18    0.44
 -12   9   1    8.16    0.42
  12   9  -1    7.50    0.41
 -12  -9  -1    7.84    0.43
 -12   9  -1    7.88    0.41
  12  -9  -1    7.44    0.43
  12   9   1    7.88    0.44
 -12   9  -1    7.38    0.43
  12   9   1    7.91    0.37
 -12  -9   1    8.61    0.44
  12   0  -2  136.83    5.30
  12   0   2  146.15    4.57
  12   0   2  145.57    5.27
  12   0  -2  145.61    4.47
  12   0   2  146.42    4.43
 -12   0   2  144.17    4.56
  12   0   2  141.11    4.37
 -12   0   2  141.94    4.82
 -12   0  -2  136.71    5.39
 -12   1   2    7.30    0.65
  12  -1   2    7.98    0.58
  12  -1   2    7.34    0.55
  12  -1   2    7.65    0.57
  12  -1   2    8.17    0.87
 -12   1   2    7.41    0.58
  12   1  -2    6.44    0.53
 -12  -1  -2    6.41    0.70
 -12  -1   2    6.85    0.57
  12   1   2    7.35    0.56
  12   1   2    7.35    0.54
 -12   1  -2    6.35    0.70
  12   1   2    6.59    0.56
 -12   1  -2    8.16    0.89
  12  -1  -2    6.23    0.54
  12  -1  -2    7.28    0.99
 -12  -1   2    6.43    0.64
  12   2  -2   17.76    0.93
 -12   2   2   20.20    1.07
  12   2  -2   17.31    0.73
 -12  -2  -2   18.24    1.00
  12  -2   2   19.08    0.92
  12  -2   2   20.09    1.37
  12  -2   2   19.78    0.97
  12  -2   2   17.89    0.86
  12  -2   2   19.51    0.95
 -12  -2  -2   17.85    1.21
  12  -2  -2   17.73    0.84
  12  -2  -2   17.12    0.87
  12  -2  -2   18.56    1.38
  12  -2  -2   16.85    0.93
  12   2   2   19.24    0.94
  12   2   2   18.54    0.94
  12   2   2   18.36    0.90
  12   2   2   18.26    0.85
  12   2   2   18.14    0.71
 -12   2  -2   17.28    1.21
 -12  -2   2   19.59    1.15
 -12  -2   2   19.85    1.01
  12  -2  -2   17.68    0.89
 -12   2  -2   19.04    1.16
  12  -3   2   21.50    1.02
 -12  -3  -2   20.75    1.08
  12   3  -2   19.93    0.95
  12   3  -2   19.14    0.73
  12  -3   2   18.85    0.87
  12  -3   2   19.27    1.44
  12   3  -2   20.15    0.99
 -12   3   2   21.11    1.07
  12  -3   2   20.47    0.92
  12  -3   2   19.94    1.00
  12  -3   2   19.81    0.83
  12  -3   2   20.00    0.94
  12   3   2   20.80    1.02
 -12  -3   2   19.92    0.92
  12  -3  -2   18.46    1.47
 -12  -3   2   22.19    1.09
  12   3   2   20.35    0.95
  12  -3  -2   18.80    0.95
  12  -3  -2   18.85    0.88
  12  -3  -2   19.90    1.03
  12   3   2   22.69    1.05
 -12   3  -2   21.39    1.25
  12  -3  -2   20.35    0.92
  12   3   2   19.59    0.90
 -12  -3   2   19.85    1.18
  12   3   2   20.17    0.75
 -12   4   2    6.22    0.66
  12  -4   2    6.03    0.54
  12  -4   2    6.06    0.54
  12  -4   2    5.19    0.87
  12  -4   2    5.27    0.50
  12   4  -2    6.00    0.51
  12   4  -2    6.75    0.55
 -12  -4  -2    6.55    0.61
  12   4  -2    6.49    0.51
  12  -4   2    5.58    0.53
  12   4   2    5.28    0.55
  12  -4  -2    5.79    0.52
 -12   4  -2    7.22    0.84
  12  -4  -2    5.97    0.50
  12  -4  -2    6.04    0.95
  12   4   2    5.41    0.52
  12   4   2    5.52    0.48
 -12  -4   2    5.37    0.55
 -12  -4   2    4.89    0.66
  12   4   2    5.48    0.53
  12   4   2    5.41    0.38
  12  -4  -2    6.31    0.58
  12   5  -2   44.00    1.58
 -12   5   2   41.55    1.65
 -12  -5  -2   45.50    1.84
  12  -5   2   43.69    1.72
  12  -5   2   45.91    1.49
  12  -5   2   42.55    1.50
  12  -5   2   42.82    2.37
  12   5  -2   44.49    1.49
  12   5  -2   45.90    1.73
  12   5   2   42.83    1.52
 -12   5  -2   42.64    1.95
  12  -5  -2   46.84    1.59
  12   5   2   43.34    1.74
  12   5   2   44.34    1.32
  12   5   2   44.20    1.63
  12  -5  -2   43.61    1.63
 -12  -5   2   45.03    1.83
 -12  -5   2   40.14    1.94
  12  -5  -2   47.35    1.79
  12  -5  -2   43.71    2.38
  12   5   2   43.92    1.74
  12  -6   2    7.16    1.05
  12   6  -2    8.10    0.55
 -12   6   2   10.00    0.63
  12  -6   2    9.30    0.67
  12   6  -2    8.86    0.60
  12  -6  -2    8.36    0.66
  12  -6  -2    7.68    0.59
 -12   6  -2    7.74    0.77
 -12  -6   2    9.35    0.72
  12  -6  -2    7.77    1.15
  12   6   2    9.30    0.67
  12   6   2    8.68    0.46
  12   6   2    8.51    0.60
  12   6   2    8.98    0.59
  12   6   2    8.69    0.67
  12  -6  -2    8.43    0.54
 -12  -6   2    8.53    0.80
  12   7  -2    0.66    0.22
 -12   7   2    0.41    0.20
 -12   7   2    0.42    0.20
  12  -7   2    0.82    0.29
  12   7  -2    0.84    0.23
 -12  -7   2    0.86    0.29
  12   7   2    0.81    0.23
  12   7   2    0.61    0.25
  12   7   2    0.92    0.18
  12  -7  -2    1.14    0.22
  12  -7  -2    1.28    0.31
  12   7   2    0.72    0.25
  12   7   2    0.29    0.22
  12   7   2    0.87    0.23
  12  -7  -2    0.87    0.24
 -12   7  -2    1.04    0.25
  12  -8   2    5.50    0.54
  12   8  -2    6.00    0.46
 -12   8   2    5.24    0.39
 -12   8   2    6.01    0.35
 -12  -8  -2    4.68    0.50
  12   8   2    4.90    0.32
  12  -8  -2    6.17    0.45
  12   8   2    5.66    0.43
 -12   8  -2    5.69    0.53
  12   8   2    5.91    0.45
  12  -8  -2    5.62    0.37
  12   8   2    6.26    0.50
 -12   8  -2    6.03    0.41
  12   8   2    5.67    0.42
 -12  -8   2    5.41    0.41
 -12  -9  -2   13.70    0.58
  12   9  -2   14.06    0.62
 -12   9   2   13.34    0.53
 -12   9  -2   14.32    0.55
  12   9   2   13.14    0.60
 -12   9  -2   14.67    0.63
  12   9   2   13.89    0.61
 -12  -9   2   14.04    0.59
  12  -9  -2   13.56    0.60
  12   9   2   13.66    0.48
 -12   0  -3   46.65    2.16
  12   0   3   45.02    1.61
  12   0   3   42.66    1.51
 -12   0   3   44.06    1.58
  12   0  -3   46.87    2.37
  12   0   3   45.97    1.80
  12   0   3   45.83    1.74
  12   0  -3   47.24    1.63
  12   0  -3   48.45    1.79
  12   0   3   44.94    1.34
  12   0   3   45.98    2.22
  12   0   3   45.57    1.71
 -12   0   3   46.95    1.90
 -12   0   3   46.87    1.80
  12  -1   3   15.75    0.87
  12  -1   3   14.49    0.76
 -12  -1  -3   17.13    1.11
  12   1  -3   15.06    0.73
  12  -1   3   14.14    0.74
 -12   1   3   15.77    0.93
  12   1  -3   15.77    1.25
  12   1  -3   16.55    0.87
  12  -1   3   14.84    0.64
  12  -1   3   15.33    0.81
 -12   1   3   13.94    0.78
  12  -1   3   16.45    1.26
  12  -1  -3   16.02    0.86
  12  -1  -3   16.93    1.31
  12  -1  -3   14.62    0.77
  12  -1  -3   15.53    0.81
  12   1   3   14.64    0.78
 -12   1  -3   15.70    1.09
 -12  -1   3   15.36    0.86
 -12  -1   3   14.84    0.78
  12   1   3   13.87    0.74
 -12  -1   3   14.40    0.92
  12   1   3   13.76    0.60
  12   1   3   15.40    0.84
  12   1   3   15.87    0.89
  12   1   3   15.06    0.82
  12  -2   3    6.60    0.53
  12  -2   3    7.40    0.59
  12   2  -3    8.62    0.52
  12   2  -3    9.16    0.64
  12  -2   3    7.15    0.58
 -12   2   3    6.77    0.55
  12  -2   3    6.89    0.51
  12  -2   3    6.52    0.90
  12  -2   3    7.22    0.45
  12  -2   3    6.96    0.54
 -12  -2   3    6.93    0.66
 -12  -2   3    7.51    0.61
  12   2   3    6.58    0.53
  12  -2  -3    7.92    0.58
  12   2   3    6.83    0.56
  12   2   3    7.28    0.61
  12  -2  -3    9.48    1.15
  12   2   3    6.98    0.52
  12  -2  -3    7.85    0.58
 -12  -2   3    6.63    0.52
  12   2   3    6.66    0.38
  12   2   3    7.03    0.57
  12  -2  -3    9.79    0.67
 -12  -3  -3    9.56    0.71
 -12   3   3    8.75    0.66
  12   3  -3    8.97    0.50
 -12   3   3    7.81    0.60
  12  -3   3    8.60    0.50
  12  -3   3    7.06    0.98
  12  -3   3    8.80    0.64
  12  -3   3    8.99    0.65
  12  -3   3    8.67    0.59
  12   3  -3    9.33    0.63
  12  -3   3    8.81    0.58
  12  -3  -3    8.68    0.66
  12   3   3    8.71    0.63
 -12  -3   3    7.59    0.57
  12  -3  -3    9.48    0.63
 -12  -3   3    7.44    0.71
  12   3   3    8.17    0.58
  12  -3  -3    9.02    0.62
 -12   3  -3   10.09    0.91
  12   3   3    8.40    0.60
  12   3   3    8.46    0.64
  12   3   3    7.87    0.42
  12  -3  -3    9.75    1.08
 -12  -3   3    8.73    0.67
 -12   4   3   24.01    1.10
  12  -4   3   24.05    1.01
 -12  -4  -3   25.32    1.24
  12   4  -3   25.08    0.90
  12  -4   3   25.43    1.18
  12   4  -3   25.54    1.14
  12  -4   3   23.92    1.03
  12  -4   3   23.97    1.16
  12  -4   3   23.91    0.93
  12   4  -3   26.47    1.09
  12  -4   3   22.09    1.62
  12   4   3   24.89    1.18
  12   4   3   25.24    0.83
  12  -4  -3   26.71    1.11
  12  -4  -3   24.39    1.10
 -12   4  -3   25.95    1.44
  12   4   3   24.02    1.03
  12   4   3   25.25    1.18
  12  -4  -3   25.25    1.19
  12  -4  -3   22.48    1.67
 -12  -4   3   25.26    1.23
  12   4   3   23.57    1.08
 -12  -4   3   25.23    1.33
 -12   5   3    4.22    0.49
  12  -5   3    3.65    0.43
  12   5  -3    4.68    0.52
  12  -5   3    4.39    0.86
  12  -5   3    4.59    0.46
  12   5  -3    5.24    0.49
 -12  -5  -3    4.87    0.60
  12  -5   3    4.88    0.47
  12  -5   3    3.96    0.51
  12  -5  -3    4.83    0.85
 -12  -5   3    4.47    0.61
  12  -5  -3    4.24    0.46
  12   5   3    3.88    0.47
 -12  -5   3    3.68    0.52
  12  -5  -3    3.57    0.46
  12   5   3    4.52    0.54
  12  -5  -3    4.27    0.52
  12   5   3    3.70    0.29
  12   5   3    4.18    0.47
  12   5   3    3.63    0.47
 -12   5  -3    3.95    0.64
  12  -6   3    4.26    0.44
  12  -6   3    2.78    0.43
  12   6  -3    3.58    0.39
  12  -6   3    3.14    0.37
  12   6  -3    3.58    0.45
 -12   6   3    3.32    0.38
 -12  -6   3    2.61    0.46
  12   6   3    3.11    0.38
  12   6   3    3.03    0.43
  12  -6  -3    3.85    0.49
 -12   6  -3    3.66    0.57
  12   6   3    3.45    0.47
  12   6   3    3.37    0.30
  12   6   3    3.08    0.40
  12  -6  -3    2.69    0.36
  12  -6  -3    2.99    0.42
 -12  -6   3    3.58    0.54
 -12   7   3    3.68    0.34
  12  -7   3    3.93    0.50
 -12   7   3    4.49    0.40
  12  -7   3    3.25    0.35
  12   7  -3    2.60    0.36
  12   7   3    3.46    0.45
  12   7   3    3.58    0.43
 -12   7  -3    3.19    0.34
  12  -7  -3    3.01    0.35
  12  -7  -3    2.78    0.37
  12   7   3    2.87    0.35
  12   7   3    2.80    0.40
  12  -7  -3    2.47    0.39
  12   7   3    3.75    0.40
  12   7   3    3.85    0.27
  12   8  -3    4.42    0.40
 -12   8   3    5.38    0.36
 -12  -8   3    5.36    0.49
  12  -8  -3    4.53    0.36
  12  -8  -3    4.20    0.38
  12   8   3    4.67    0.37
  12  -8  -3    4.08    0.43
  12   8   3    4.85    0.46
 -12  -8   3    5.28    0.37
 -12   8  -3    4.60    0.38
  12   8   3    4.94    0.27
  12   8   3    4.38    0.41
  12   8   3    4.74    0.39
 -12   8  -3    3.98    0.46
 -12  -9  -3    5.27    0.32
  12   9  -3    4.87    0.35
 -12   9   3    4.25    0.28
  12   9   3    4.71    0.22
  12  -9  -3    4.84    0.33
  12   9   3    4.76    0.34
 -12  -9   3    4.46    0.31
  12   9   3    4.56    0.32
  12  -9  -3    5.17    0.25
 -12  -9   3    3.97    0.37
 -12   9  -3    4.70    0.31
 -12   9  -3    5.23    0.38
  12   0  -4    4.17    0.48
  12   0   4    3.39    0.40
  12   0  -4    2.66    0.66
  12   0  -4    3.14    0.39
  12   0   4    4.34    0.48
  12   0   4    3.00    0.42
  12   0  -4    3.01    0.42
 -12   0   4    4.09    0.45
 -12   0   4    3.88    0.49
  12   0   4    3.92    0.48
  12   0   4    3.57    0.42
  12   0   4    4.24    0.32
 -12   1   4   41.43    1.58
  12  -1   4   43.39    1.71
  12   1  -4   39.30    1.62
  12  -1   4   41.68    1.45
  12  -1   4   41.34    2.20
 -12   1   4   43.14    1.51
  12  -1   4   43.23    1.66
  12   1  -4   38.57    1.49
  12  -1   4   41.59    1.53
  12  -1   4   41.60    1.47
  12   1  -4   39.15    2.17
  12  -1   4   40.19    1.23
 -12  -1   4   43.62    1.70
  12  -1  -4   40.34    1.55
  12   1   4   41.44    1.19
  12  -1  -4   39.56    1.52
  12   1   4   39.49    1.45
  12   1   4   41.38    1.53
  12  -1  -4   39.59    1.62
  12   1   4   43.14    1.47
  12   1   4   44.60    1.74
 -12  -1   4   40.83    1.48
  12   1   4   45.34    1.66
  12   1   4   43.01    1.66
  12  -1  -4   40.52    2.23
  12  -2   4   15.97    1.31
 -12   2   4   13.54    0.75
  12  -2   4   13.81    0.74
 -12   2   4   14.04    0.80
  12   2  -4   13.01    0.72
  12  -2   4   14.70    0.85
  12   2  -4   13.69    0.82
  12  -2   4   14.66    0.86
  12  -2   4   13.31    0.60
  12  -2   4   14.37    0.73
  12  -2  -4   12.81    0.77
  12   2   4   14.25    0.87
  12  -2  -4   14.10    0.77
  12   2   4   14.48    0.74
  12   2   4   14.00    0.82
  12  -2  -4   12.98    0.81
  12   2   4   15.08    0.79
 -12  -2   4   14.34    0.87
  12   2   4   14.13    0.80
  12  -2  -4   12.61    1.20
 -12  -2   4   13.39    0.74
  12   2   4   13.82    0.53
 -12   3   4   11.46    0.69
  12  -3   4   10.92    0.75
  12  -3   4   11.12    0.65
  12  -3   4   12.38    0.58
  12  -3   4   10.50    0.65
  12   3  -4   11.20    0.71
  12  -3   4   11.40    0.74
 -12   3   4   11.99    0.71
  12   3  -4   10.52    0.67
  12   3  -4   10.83    0.61
  12  -3   4   10.63    1.12
 -12  -3  -4   11.68    0.81
  12   3   4   11.48    0.47
 -12   3  -4   11.63    0.99
 -12  -3   4   10.80    0.66
  12  -3  -4   10.58    0.69
 -12  -3   4   11.75    0.78
  12   3   4   11.04    0.74
  12  -3  -4    9.94    1.10
  12  -3  -4   11.46    0.75
  12  -3  -4   12.22    0.73
  12   3   4   11.57    0.67
  12   3   4   11.27    0.69
  12   3   4   11.17    0.74
  12  -4   4    6.01    0.52
 -12   4   4    6.11    0.52
 -12  -4  -4    6.77    0.65
  12  -4   4    7.36    0.61
  12  -4   4    6.45    0.45
  12   4  -4    7.65    0.48
  12  -4   4    6.87    0.52
  12  -4   4    6.51    1.00
  12  -4   4    7.34    0.61
  12   4  -4    7.57    0.59
  12   4   4    7.31    0.60
  12   4   4    6.36    0.52
  12  -4  -4    7.68    1.10
  12  -4  -4    7.47    0.59
  12   4   4    6.95    0.58
  12  -4  -4    7.14    0.60
 -12   4  -4    8.09    0.91
  12   4   4    5.99    0.34
 -12  -4   4    6.07    0.60
  12  -4  -4    8.73    0.59
  12   4   4    6.94    0.56
 -12  -4   4    6.38    0.53
  12  -5   4   34.34    1.43
  12  -5   4   30.95    1.97
  12  -5   4   34.30    1.12
  12  -5   4   34.20    1.25
  12   5  -4   31.42    1.26
  12   5  -4   31.25    1.09
 -12   5   4   34.07    1.23
  12  -5   4   32.68    1.20
 -12   5  -4   30.68    1.64
  12  -5  -4   32.31    1.37
  12  -5  -4   29.95    1.93
 -12  -5   4   31.70    1.45
  12  -5  -4   32.09    1.29
  12   5   4   32.06    1.39
  12   5   4   33.40    0.96
  12   5   4   31.93    1.40
  12  -5  -4   33.18    1.32
  12   5   4   32.95    1.24
  12   5   4   32.69    1.32
 -12   6   4    0.87    0.20
  12  -6   4    0.76    0.22
  12   6  -4    1.35    0.30
  12  -6   4    0.50    0.21
  12  -6   4    0.90    0.26
  12  -6   4    0.76    0.25
  12   6   4    0.26    0.22
  12   6   4    0.57    0.14
  12   6   4    0.87    0.26
 -12  -6   4    0.60    0.26
  12  -6  -4    1.08    0.27
 -12  -6   4    1.20    0.30
  12  -6  -4    0.68    0.22
  12  -6  -4    1.07    0.27
 -12   6  -4    1.09    0.42
  12   6   4    0.62    0.26
  12   6   4    0.77    0.24
  12  -7   4    0.61    0.20
 -12   7   4    0.39    0.17
  12   7  -4    0.73    0.24
  12  -7   4    0.41    0.22
 -12  -7   4    0.47    0.17
  12   7   4    0.43    0.11
 -12  -7   4    0.58    0.26
  12   7   4    0.23    0.19
  12  -7  -4    0.89    0.23
  12   7   4    0.45    0.22
  12  -7  -4    0.95    0.26
  12   7   4    0.27    0.16
 -12   7  -4    0.48    0.20
  12   7   4    0.35    0.19
  12  -7  -4    0.76    0.22
  12   8  -4    3.80    0.35
 -12   8   4    4.14    0.31
  12  -8   4    3.92    0.32
  12   8   4    2.64    0.36
  12   8   4    3.41    0.18
  12  -8  -4    3.37    0.31
 -12  -8   4    3.75    0.38
  12   8   4    3.24    0.35
 -12   8  -4    3.56    0.32
 -12  -8   4    3.54    0.32
  12   8   4    3.67    0.31
  12  -8  -4    3.75    0.40
  12  -8  -4    3.67    0.33
  12   9  -4    2.25    0.25
  12   9   4    2.72    0.25
  12  -9  -4    2.14    0.23
  12  -9  -4    1.81    0.18
 -12   9  -4    1.38    0.24
 -12  -9   4    2.55    0.24
  12   0   5   46.25    1.56
  12   0  -5   45.34    1.66
  12   0   5   44.85    1.82
  12   0  -5   45.06    1.75
  12   0   5   43.96    1.74
 -12   0   5   45.43    1.59
  12   0   5   46.37    1.58
  12   0   5   44.59    1.26
 -12   0   5   45.07    1.64
  12   0  -5   42.83    2.37
 -12   1   5   20.83    0.97
  12  -1   5   22.99    0.78
  12  -1   5   23.62    1.16
  12  -1   5   23.16    1.10
  12  -1   5   23.30    1.61
  12  -1   5   21.83    0.97
  12   1  -5   21.83    1.01
  12   1  -5   23.20    1.10
 -12   1   5   23.02    1.01
  12  -1   5   21.72    0.99
  12   1  -5   22.65    1.63
  12  -1  -5   21.47    1.57
 -12  -1   5   22.01    1.03
  12   1   5   23.11    1.03
  12   1   5   24.89    1.18
 -12  -1   5   21.93    0.98
  12   1   5   23.06    1.00
  12  -1  -5   22.32    1.08
  12  -1  -5   23.47    1.06
  12   1   5   23.53    1.11
 -12  -1   5   22.37    1.12
  12   1   5   23.41    0.99
  12   1   5   22.54    0.72
  12  -2   5    5.98    0.57
 -12   2   5    5.40    0.46
  12   2  -5    4.80    0.51
  12  -2   5    6.05    0.95
 -12   2   5    5.66    0.51
  12  -2   5    5.60    0.37
  12  -2   5    5.49    0.52
  12  -2   5    5.42    0.53
  12   2  -5    4.85    0.52
  12  -2   5    4.13    0.45
 -12  -2   5    4.67    0.55
  12   2   5    5.46    0.53
  12  -2  -5    5.36    0.50
 -12  -2   5    5.00    0.50
  12   2   5    5.75    0.53
  12   2   5    5.37    0.53
  12  -2  -5    5.34    0.59
  12   2   5    4.46    0.56
  12  -2  -5    3.60    0.74
 -12  -2   5    4.09    0.48
  12   2   5    5.42    0.48
  12   2   5    5.25    0.28
  12  -2  -5    5.03    0.55
  12  -3   5   25.63    1.07
 -12  -3  -5   26.60    1.32
 -12   3   5   28.49    1.11
  12   3  -5   24.03    1.07
 -12   3   5   28.04    1.07
  12   3  -5   25.12    1.11
  12  -3   5   29.18    1.27
  12  -3   5   27.17    1.77
  12  -3   5   26.39    1.26
  12  -3   5   25.64    0.91
  12  -3   5   25.53    1.09
  12   3   5   26.61    1.09
  12   3   5   26.13    1.20
  12  -3  -5   25.51    1.17
  12  -3  -5   26.85    1.23
 -12  -3   5   27.31    1.11
  12   3   5   26.47    1.14
 -12  -3   5   26.77    1.17
  12  -3  -5   22.96    1.69
  12   3   5   26.79    0.77
 -12  -3   5   27.54    1.27
  12   3   5   27.64    1.23
  12  -3  -5   25.67    1.12
  12  -4   5    0.53    0.25
  12   4  -5    0.45    0.19
  12  -4   5    0.79    0.19
 -12   4   5    0.71    0.20
  12  -4   5    0.62    0.27
  12   4  -5    0.41    0.22
  12  -4   5    0.63    0.56
  12  -4   5    0.73    0.23
  12  -4   5    0.55    0.22
  12  -4  -5    0.56    0.27
  12   4   5    0.40    0.23
  12   4   5    0.46    0.21
  12  -4  -5    0.31    0.21
 -12   4  -5    0.20    0.38
  12   4   5    0.74    0.24
  12   4   5    0.48    0.11
 -12  -4   5    0.21    0.21
  12  -4  -5    0.55    0.46
  12   4   5    0.64    0.24
 -12  -4   5    0.78    0.30
 -12  -4   5    0.78    0.29
  12  -4  -5    0.63    0.25
  12  -5   5    6.70    0.61
  12   5  -5    6.53    0.43
 -12   5   5    7.10    0.40
  12  -5   5    6.72    0.43
  12  -5   5    5.59    0.48
  12  -5   5    6.21    0.52
  12   5  -5    6.07    0.51
  12  -5   5    5.48    0.55
  12   5   5    6.44    0.59
 -12  -5   5    6.56    0.60
  12  -5  -5    6.29    0.53
  12   5   5    6.90    0.52
  12   5   5    6.05    0.57
  12  -5  -5    5.73    0.55
 -12  -5   5    7.00    0.57
  12  -5  -5    6.20    0.50
  12   5   5    6.05    0.27
 -12   5  -5    5.93    0.79
  12   5   5    6.03    0.52
  12  -6   5    3.73    0.40
  12  -6   5    3.60    0.47
  12   6  -5    3.38    0.24
  12   6  -5    3.43    0.42
  12  -6   5    3.87    0.40
  12  -6   5    3.38    0.35
  12   6   5    3.43    0.44
  12   6   5    3.43    0.18
 -12  -6   5    3.42    0.49
  12   6   5    3.71    0.41
  12  -6  -5    3.11    0.37
  12   6   5    3.28    0.40
  12  -6  -5    3.47    0.43
 -12  -6   5    3.00    0.40
  12   6   5    3.33    0.46
  12  -6  -5    3.22    0.42
  12  -7   5    5.01    0.37
 -12   7   5    4.25    0.34
  12  -7   5    3.66    0.50
  12   7  -5    4.53    0.44
  12  -7   5    5.16    0.40
  12  -7  -5    3.43    0.37
  12   7   5    4.80    0.37
  12  -7  -5    4.47    0.42
 -12  -7   5    4.53    0.40
  12  -7  -5    4.34    0.41
  12   7   5    5.36    0.43
  12   7   5    4.96    0.47
 -12   8   5    9.24    0.41
  12  -8   5    9.02    0.44
  12   8  -5    9.11    0.48
  12  -8   5    9.02    0.45
  12  -8  -5    9.18    0.46
 -12  -8   5    8.50    0.45
  12  -8  -5    9.47    0.49
  12   8   5    9.53    0.44
 -12   8  -5    8.99    0.43
  12   8   5    8.74    0.50
 -12   0   6   16.17    0.76
  12   0  -6   14.95    0.85
  12   0   6   15.40    0.87
  12   0   6   14.62    0.79
  12   0   6   15.37    0.53
  12   0   6   15.89    0.81
  12   0  -6   14.96    0.86
  12   0  -6   13.33    1.31
  12   0   6   14.87    0.92
 -12   0   6   16.57    0.81
  12  -1   6    6.29    0.54
  12  -1   6    7.26    0.63
  12  -1   6    6.42    0.36
 -12   1   6    6.66    0.47
 -12   1   6    6.09    0.53
  12  -1   6    6.84    0.58
  12  -1   6    4.68    0.48
  12   1  -6    6.30    0.56
  12   1  -6    5.63    0.50
  12  -1   6    4.41    0.88
  12   1  -6    6.40    1.01
  12  -1  -6    3.98    0.82
 -12  -1   6    7.05    0.54
  12   1   6    7.24    0.54
  12  -1  -6    6.83    0.57
 -12  -1   6    6.53    0.50
  12  -1  -6    4.77    0.55
  12   1   6    6.69    0.28
  12   1   6    6.10    0.60
  12   1   6    6.84    0.61
  12   1   6    6.52    0.55
 -12   2   6   15.89    0.79
  12  -2   6   13.15    1.30
  12  -2   6   15.22    0.59
  12  -2   6   14.64    0.76
  12  -2   6   15.79    0.87
  12   2  -6   13.89    0.78
  12  -2   6   14.95    0.91
  12   2  -6   13.91    0.82
 -12   2   6   15.33    0.69
  12  -2  -6   14.50    0.86
  12   2   6   15.36    0.86
 -12  -2   6   14.99    0.78
  12  -2  -6   14.63    0.87
  12  -2  -6   13.18    1.26
  12   2   6   15.09    0.93
  12   2   6   15.28    0.43
  12   2   6   14.57    0.79
 -12  -2   6   15.56    0.90
  12   2   6   14.78    0.77
 -12  -2   6   15.21    0.77
  12  -3   6   12.33    0.76
  12  -3   6   11.36    0.79
  12  -3   6   11.17    1.26
  12  -3   6   12.23    0.54
 -12   3   6   12.34    0.68
 -12   3   6   11.59    0.55
  12   3  -6   12.61    0.73
  12  -3   6   11.24    0.68
  12  -3   6   11.97    0.69
 -12  -3  -6   10.65    0.81
  12   3  -6   11.53    0.69
  12   3   6   11.71    0.70
 -12  -3   6   12.23    0.68
  12  -3  -6   11.51    0.68
  12  -3  -6   11.66    0.75
 -12  -3   6   12.53    0.68
  12  -3  -6    7.93    1.07
  12   3   6   12.47    0.69
  12  -3  -6   11.65    0.77
  12   3   6   11.96    0.77
  12   3   6   12.37    0.77
 -12  -3   6   12.44    0.79
  12   4  -6   51.45    1.76
  12  -4   6   50.83    1.94
  12  -4   6   52.31    2.03
  12  -4   6   53.63    1.73
  12  -4   6   52.03    1.74
  12   4  -6   51.41    1.78
  12  -4   6   54.81    1.51
 -12  -4   6   52.02    1.78
  12  -4  -6   55.55    1.82
  12   4   6   53.81    1.70
  12  -4  -6   53.76    1.96
  12   4   6   50.32    1.93
  12  -4  -6   55.78    1.91
 -12  -4   6   52.47    1.72
  12   4   6   50.80    1.80
  12   4   6   49.62    1.92
 -12  -4   6   50.65    2.00
  12  -5   6    1.03    0.20
  12  -5   6    1.78    0.31
  12   5  -6    0.89    0.22
  12  -5   6    1.21    0.31
  12  -5   6    1.42    0.30
  12   5  -6    1.10    0.27
  12  -5  -6    0.84    0.25
  12  -5  -6    1.02    0.25
 -12  -5   6    1.08    0.26
  12   5   6    1.13    0.27
  12   5   6    1.30    0.26
  12   5   6    1.58    0.32
 -12  -5   6    1.94    0.37
  12  -5  -6    1.43    0.31
  12   5   6    1.21    0.27
  12   6  -6    8.23    0.53
  12  -6   6    9.13    0.54
  12   6  -6    8.68    0.39
  12  -6   6    8.72    0.61
  12  -6   6    8.24    0.46
  12  -6   6    9.21    0.54
 -12  -6   6    8.41    0.49
  12   6   6    8.79    0.59
  12   6   6    8.13    0.50
  12  -6  -6    8.61    0.57
  12   6   6    8.32    0.55
  12  -6  -6    8.67    0.54
  12  -6  -6    8.26    0.57
  12   6   6    8.44    0.59
  12  -7   6    3.22    0.33
  12   7  -6    2.89    0.32
 -12   7   6    3.46    0.28
  12  -7   6    3.17    0.29
  12  -7  -6    2.60    0.33
  12   7   6    2.80    0.32
  12   7   6    3.24    0.38
  12  -7  -6    3.71    0.33
  12  -7  -6    2.94    0.32
 -12  -7   6    3.04    0.29
  12   8  -6    0.53    0.15
  12  -8   6    0.57    0.14
  12  -8   6    0.59    0.12
  12   8   6    0.35    0.14
  12  -8  -6    0.78    0.15
  12  -8  -6    0.46    0.15
 -12   0   7   32.88    1.12
 -12   0   7   34.92    1.28
  12   0   7   33.46    1.49
  12   0  -7   31.56    1.25
  12   0   7   33.69    1.28
  12   0  -7   32.80    1.36
  12   0   7   34.17    1.26
  12   0  -7   27.79    1.91
  12   0   7   34.47    0.83
  12   0   7   34.40    1.41
 -12   1   7   32.60    1.04
  12   1  -7   34.12    1.26
  12  -1   7   32.32    1.46
 -12   1   7   33.36    1.24
  12  -1   7   32.01    1.25
  12   1  -7   31.78    1.32
  12  -1   7   31.80    0.88
  12  -1   7   31.47    1.37
  12  -1   7   31.98    1.22
  12  -1  -7   33.25    1.36
  12  -1  -7   28.15    2.06
 -12  -1   7   31.97    1.23
  12   1   7   32.03    1.45
 -12  -1   7   31.86    1.12
  12  -1  -7   32.58    1.35
  12   1   7   31.86    1.37
  12   1   7   31.98    1.21
  12   2  -7    3.49    0.44
  12   2  -7    4.03    0.47
  12  -2   7    4.53    0.51
  12  -2   7    5.36    0.62
  12  -2   7    3.13    0.41
 -12   2   7    3.14    0.39
  12  -2   7    3.84    0.27
  12  -2   7    3.54    0.42
  12  -2  -7    3.76    0.45
  12   2   7    3.48    0.42
 -12  -2   7    2.98    0.37
 -12  -2   7    3.68    0.35
  12   2   7    3.06    0.50
  12   2   7    3.47    0.46
  12  -3   7   -0.12    0.19
  12  -3   7    0.43    0.24
  12   3  -7    0.11    0.20
  12  -3   7    0.02    0.19
  12  -3   7    0.05    0.16
  12   3  -7   -0.05    0.17
  12  -3   7    0.25    0.13
 -12   3   7    0.20    0.20
  12   3   7    0.55    0.22
 -12  -3   7    0.39    0.28
  12   3   7    0.14    0.20
  12  -3  -7    0.19    0.21
 -12  -3   7    0.25    0.15
  12   3   7    0.02    0.19
 -12  -3   7    0.31    0.21
  12  -4   7   18.19    0.84
  12   4  -7   18.42    0.81
  12   4  -7   17.70    0.84
  12  -4   7   17.61    0.82
  12  -4   7   16.20    0.91
  12  -4   7   18.98    0.67
  12  -4   7   17.56    1.02
  12  -4  -7   17.85    0.91
  12   4   7   17.83    0.84
  12   4   7   17.76    0.91
  12  -4  -7   17.35    0.94
 -12  -4   7   17.79    0.80
  12   4   7   18.45    0.80
 -12  -4   7   17.71    0.73
  12  -4  -7   19.41    0.84
  12  -5   7    3.62    0.30
  12  -5   7    3.19    0.36
  12  -5   7    4.89    0.52
  12  -5   7    3.77    0.39
  12   5  -7    3.86    0.35
  12   5  -7    3.77    0.41
  12  -5  -7    3.79    0.44
  12   5   7    3.99    0.41
 -12  -5   7    4.04    0.39
  12   5   7    3.91    0.45
  12   5   7    4.26    0.39
  12  -5  -7    4.06    0.40
  12  -5  -7    3.23    0.41
 -12  -5   7    3.67    0.30
  12   5   7    3.95    0.47
  12  -6   7    1.37    0.24
  12   6  -7    1.19    0.16
  12  -6   7    1.22    0.19
  12   6  -7    1.03    0.22
  12  -6   7    1.32    0.25
  12  -6  -7    1.27    0.23
  12  -6  -7    1.36    0.26
  12   6   7    1.16    0.27
  12  -6  -7    0.97    0.23
  12   6   7    1.14    0.23
  12  -7   7    2.24    0.21
  12  -7   7    1.81    0.23
  12   7  -7    2.72    0.29
  12  -7  -7    2.82    0.28
  12  -7  -7    2.00    0.26
  12   7   7    1.96    0.25
  12   0   8    8.43    0.68
 -12   0   8    8.60    0.57
  12   0   8    8.97    0.57
  12   0   8    8.37    0.63
  12   0   8    8.95    0.59
  12   0  -8    8.61    0.56
  12   0  -8    7.79    0.62
  12  -1   8    2.64    0.37
  12  -1   8    2.50    0.39
 -12   1   8    2.18    0.33
  12   1  -8    1.87    0.31
  12  -1   8    1.81    0.33
  12  -1   8    1.71    0.35
  12   1  -8    2.98    0.42
  12   1   8    1.61    0.38
 -12  -1   8    1.69    0.30
  12   1   8    2.50    0.34
  12   1   8    2.32    0.39
  12   2  -8    0.47    0.24
  12  -2   8    0.34    0.20
  12  -2   8    0.36    0.08
  12  -2   8    0.30    0.25
  12  -2   8    0.30    0.25
 -12   2   8    0.13    0.19
  12   2  -8    0.15    0.18
  12  -2   8    0.21    0.22
 -12  -2   8    0.77    0.21
  12   2   8    0.35    0.20
  12  -3   8    1.90    0.18
  12   3  -8    1.51    0.28
  12  -3   8    1.72    0.35
  12  -3   8    1.71    0.29
  12  -3   8    1.62    0.31
  12   3  -8    1.89    0.30
 -12  -3   8    1.88    0.29
  12   3   8    2.05    0.29
  12  -3  -8    1.92    0.32
  12  -4   8   18.84    0.82
  12  -4   8   18.79    0.79
  12  -4   8   18.51    0.60
  12   4  -8   19.64    0.82
  12   4  -8   19.22    0.83
  12  -4  -8   17.61    0.88
 -12  -4   8   19.33    0.79
  12   5  -8    8.96    0.46
  12  -5   8    9.14    0.37
  12  -5   8    8.50    0.49
  12   5  -8    8.96    0.50
  12  -5   8    9.08    0.53
  12  -5  -8    8.47    0.56
 -12  -5   8    7.82    0.45
  12   5   8    9.12    0.50
  12  -5  -8    8.77    0.55
  12  -6   8    1.17    0.14
  12  -6   8    1.24    0.22
  12   6  -8    1.38    0.23
  12  -6   8    1.43    0.22
  12   6   8    1.07    0.20
  12  -6  -8    1.70    0.25
 -12   0   9   31.37    1.13
  12   0  -9   31.02    1.14
  12   0   9   30.86    1.08
  12   0  -9   34.58    1.28
  12   0   9   30.00    1.13
  12   1  -9   15.98    0.80
  12  -1   9   15.34    0.69
  12   1  -9   15.69    0.72
 -12   1   9   14.71    0.69
  12  -1   9   15.21    0.73
  12   1   9   15.54    0.69
 -12  -1   9   14.23    0.69
  12  -1  -9   16.29    0.71
  12  -2   9    2.76    0.35
  12   2  -9    3.56    0.36
 -12   2   9    3.05    0.32
  12  -2   9    2.93    0.33
  12   2  -9    3.91    0.42
 -12  -2   9    2.80    0.32
  12  -3   9    2.76    0.32
  12   3  -9    2.77    0.31
  12   3  -9    2.55    0.32
  12  -3   9    2.69    0.32
 -12  -3   9    2.27    0.28
  12  -4   9    1.76    0.25
  12   4  -9    1.92    0.27
  12   4  -9    1.57    0.24
  12  -4   9    2.03    0.27
 -12  -4   9    1.83    0.23
  12  -5   9    1.05    0.19
  12  -5   9    1.39    0.21
  12   5  -9    1.62    0.22
  12  -5  -9    1.44    0.23
 -12   0  10    5.58    0.38
  12   0 -10    6.51    0.40
  12   0 -10    7.55    0.49
 -12   1  10    5.37    0.35
  12   1 -10    5.09    0.40
  12   1 -10    4.77    0.35
  12  -1  10    5.29    0.40
 -12  -1  10    5.50    0.36
  12  -1 -10    4.35    0.41
  12  -1 -10    4.19    0.33
  12  -2  10    0.11    0.15
  12   2 -10    0.25    0.15
  12  -2  10   -0.05    0.15
  12   2 -10    0.06    0.13
 -12  -2  10    0.26    0.14
  12  -2 -10    0.11    0.13
  12  -3  10   -0.17    0.14
  12   3 -10    0.06    0.12
  12  -3  10    0.18    0.12
  12   3 -10   -0.07    0.11
  12  -3 -10    0.24    0.16
 -12  -3  10    0.02    0.10
  12   4 -10    8.56    0.40
  12  -4  10    9.51    0.43
  12   4 -10    8.40    0.38
 -12  -1  11    3.16    0.23
 -13   0   0    0.07    0.19
 -13   0   0    0.01    0.33
 -13   0   0    0.47    0.34
  13   0   0    0.05    0.17
  13   0   0    0.33    0.35
  13   0   0    0.24    0.18
  13   0   0    0.21    0.20
  13   0   0    0.04    0.18
  13   1   0   33.79    1.30
  13   1   0   34.47    1.36
  13  -1   0   34.22    1.44
  13  -1   0   34.71    1.37
  13  -1   0   35.80    1.39
 -13   1   0   35.85    1.71
  13  -1   0   33.32    1.29
  13   1   0   33.61    1.18
 -13   1   0   34.24    1.90
 -13  -1   0   33.48    1.88
  13  -1   0   34.40    1.92
  13   1   0   35.59    1.40
 -13   1   0   35.93    1.50
  13   1   0   35.34    1.25
  13   1   0   33.48    1.43
 -13  -1   0   34.61    1.50
 -13  -1   0   33.47    1.68
  13  -2   0    2.39    0.38
 -13  -2   0    2.52    0.42
  13   2   0    2.46    0.38
  13  -2   0    2.10    0.35
 -13  -2   0    2.15    0.49
  13   2   0    2.91    0.41
  13   2   0    2.13    0.33
  13  -2   0    1.60    0.31
  13  -2   0    2.17    0.60
  13  -2   0    2.38    0.41
  13   2   0    1.38    0.30
 -13   2   0    1.97    0.47
 -13   2   0    1.73    0.38
  13   2   0    2.56    0.39
  13   2   0    2.19    0.32
  13  -3   0   40.64    1.55
 -13   3   0   40.61    1.85
  13  -3   0   41.67    1.23
  13  -3   0   41.29    1.65
  13   3   0   39.81    1.32
  13   3   0   41.32    1.42
  13  -3   0   43.02    1.60
  13   3   0   39.53    1.52
  13  -3   0   39.94    1.47
  13   3   0   40.28    1.63
 -13  -3   0   41.27    1.72
 -13  -3   0   40.50    1.95
  13   3   0   42.80    1.63
  13  -3   0   40.25    2.26
  13   4   0    1.78    0.34
 -13  -4   0    2.48    0.58
 -13  -4   0    1.57    0.35
  13  -4   0    1.70    0.32
  13   4   0    1.55    0.33
  13   4   0    1.91    0.31
  13  -4   0    1.64    0.66
  13   4   0    2.04    0.37
  13  -4   0    1.45    0.32
 -13   4   0    2.00    0.46
  13   4   0    2.35    0.35
  13  -4   0    1.52    0.32
  13  -4   0    2.47    0.38
  13  -4   0    1.91    0.20
 -13   5   0   27.41    1.32
  13   5   0   26.76    1.09
  13   5   0   27.88    1.02
 -13  -5   0   26.90    1.31
  13   5   0   27.31    1.27
  13   5   0   27.47    1.24
  13  -5   0   25.07    1.77
  13   5   0   26.92    1.16
  13  -5   0   30.02    1.28
 -13  -5   0   28.48    1.53
  13  -5   0   26.54    1.11
  13  -5   0   27.82    1.21
  13  -5   0   27.65    0.88
  13  -5   0   27.79    1.19
  13  -6   0   72.05    2.44
  13  -6   0   72.43    2.36
  13   6   0   72.84    2.28
 -13   6   0   73.63    2.49
 -13  -6   0   70.07    2.61
  13   6   0   74.16    2.35
  13   6   0   71.64    2.17
 -13  -6   0   73.27    2.94
  13   6   0   73.69    2.54
  13   6   0   72.50    2.48
  13   6   0   73.88    2.03
  13   7   0    2.42    0.29
  13   7   0    2.83    0.35
  13   7   0    1.98    0.31
 -13  -7   0    2.03    0.35
  13  -7   0    3.06    0.38
 -13   7   0    2.48    0.37
  13   7   0    2.38    0.33
  13   7   0    2.37    0.40
  13   8   0    4.13    0.31
  13   8   0    3.34    0.34
 -13   8   0    3.82    0.35
  13   8   0    3.53    0.34
  13   9   0    6.05    0.31
  13   9   0    5.95    0.36
 -13   9   0    6.09    0.27
 -13  -9   0    6.40    0.35
 -13   0   1    0.24    0.26
  13   0  -1    0.40    0.24
 -13   0   1    0.08    0.19
 -13   0  -1    0.00    0.30
  13   0   1    0.06    0.17
  13   0   1    0.02    0.17
  13   0   1   -0.07    0.33
  13   0  -1    0.44    0.23
  13   0   1    0.35    0.21
  13   0  -1    0.14    0.35
  13   0  -1    0.04    0.12
  13   0  -1    0.20    0.22
  13   0   1    0.32    0.22
  13   0   1    0.16    0.16
 -13   0  -1   -0.17    0.31
  13   0   1    0.31    0.22
  13   0   1    0.32    0.20
  13   1  -1    2.59    0.40
  13  -1   1    2.51    0.41
 -13  -1  -1    2.57    0.54
  13  -1   1    2.46    0.40
  13  -1   1    1.82    0.54
  13  -1   1    2.14    0.33
 -13  -1  -1    2.63    0.44
  13  -1   1    1.54    0.27
  13  -1   1    2.50    0.37
 -13   1   1    1.67    0.33
 -13   1   1    2.09    0.45
  13   1  -1    2.00    0.33
  13  -1   1    1.72    0.33
  13   1  -1    2.40    0.41
  13  -1   1    2.21    0.38
 -13  -1   1    1.76    0.55
 -13  -1   1    2.51    0.48
  13  -1  -1    2.14    0.36
  13  -1  -1    2.54    0.26
  13   1   1    2.30    0.31
  13   1   1    1.78    0.32
  13   1   1    1.98    0.37
  13   1   1    2.20    0.36
  13  -1  -1    2.79    0.64
  13   1   1    2.62    0.39
  13  -1  -1    1.76    0.34
  13  -1  -1    2.14    0.37
  13   1   1    1.82    0.31
 -13   1  -1    2.40    0.54
 -13  -1   1    2.51    0.42
  13  -2   1   26.93    1.04
 -13   2   1   28.62    1.42
  13   2  -1   28.67    1.26
  13  -2   1   27.07    1.21
  13  -2   1   25.44    1.69
  13   2  -1   27.71    1.16
  13  -2   1   26.77    1.10
 -13  -2  -1   28.97    1.33
  13  -2   1   27.46    1.26
  13  -2   1   26.59    1.16
  13  -2   1   27.79    1.24
 -13  -2  -1   27.92    1.53
  13   2   1   27.79    1.24
  13   2   1   27.19    1.08
  13   2   1   26.72    1.16
  13  -2  -1   29.19    1.79
 -13  -2   1   27.33    1.45
  13  -2  -1   26.87    1.18
 -13  -2   1   28.50    1.31
  13   2   1   27.60    0.97
 -13   2  -1   31.21    1.55
  13  -2  -1   27.52    0.98
  13  -2  -1   29.08    1.15
 -13  -2   1   28.13    1.14
  13   2   1   28.97    1.25
  13   2   1   26.49    1.11
  13  -2  -1   28.66    1.27
 -13  -3  -1    2.39    0.42
  13  -3   1    3.19    0.75
 -13   3   1    3.30    0.51
  13  -3   1    3.19    0.45
  13  -3   1    3.56    0.54
  13   3  -1    2.65    0.37
  13  -3   1    3.07    0.44
  13   3  -1    2.23    0.37
  13  -3   1    2.77    0.36
 -13  -3  -1    2.49    0.58
  13   3  -1    2.27    0.37
  13  -3   1    3.96    0.49
 -13  -3   1    3.46    0.50
 -13   3  -1    2.72    0.53
  13   3   1    3.88    0.50
  13   3   1    3.06    0.34
  13  -3  -1    2.36    0.39
  13  -3  -1    2.60    0.43
 -13  -3   1    4.08    0.61
  13   3   1    2.84    0.41
  13   3   1    2.96    0.38
  13  -3  -1    2.42    0.30
  13   3   1    2.79    0.38
  13  -3  -1    2.67    0.68
  13  -3  -1    2.44    0.40
  13  -4   1    5.74    0.50
 -13  -4  -1    5.91    0.60
  13   4  -1    6.01    0.48
  13   4  -1    6.48    0.55
  13  -4   1    5.88    0.92
  13  -4   1    5.38    0.58
  13  -4   1    5.93    0.52
  13   4  -1    6.04    0.56
 -13   4   1    5.46    0.65
 -13  -4  -1    6.91    0.93
  13  -4  -1    7.02    0.55
 -13  -4   1    5.70    0.74
  13   4   1    5.77    0.54
  13   4   1    5.55    0.54
  13   4   1    5.84    0.51
  13  -4  -1    5.95    0.43
  13   4   1    6.03    0.41
 -13   4  -1    5.63    0.70
  13  -4  -1    6.19    0.53
  13  -4  -1    5.89    0.93
 -13  -4   1    6.37    0.61
  13   4   1    5.04    0.50
  13  -4  -1    6.50    0.55
  13  -5   1    3.34    0.43
  13  -5   1    3.26    0.40
  13   5  -1    3.00    0.45
  13   5  -1    2.65    0.39
  13  -5   1    3.88    0.83
  13   5  -1    2.56    0.36
  13  -5   1    4.03    0.50
 -13  -5  -1    3.52    0.69
 -13   5   1    3.33    0.48
  13   5  -1    2.60    0.37
 -13  -5  -1    3.13    0.48
  13  -5  -1    2.62    0.77
  13  -5  -1    2.73    0.30
  13   5   1    3.89    0.50
  13   5   1    4.01    0.51
 -13  -5   1    3.04    0.45
  13  -5  -1    1.91    0.34
 -13   5  -1    2.41    0.47
 -13  -5   1    3.55    0.62
  13   5   1    2.93    0.32
  13   5   1    3.02    0.38
  13   5   1    3.89    0.47
  13  -5  -1    2.90    0.42
  13   6  -1   12.61    0.67
 -13  -6  -1   13.27    1.13
 -13  -6  -1   13.65    0.89
 -13   6   1   16.16    0.86
  13  -6   1   15.09    0.80
  13   6  -1   14.46    0.72
  13   6  -1   13.90    0.75
  13  -6   1   15.32    0.84
  13   6  -1   14.97    0.84
 -13  -6   1   15.23    1.05
  13   6   1   16.10    0.77
  13  -6  -1   13.71    0.78
  13   6   1   15.96    0.87
  13  -6  -1   13.61    0.62
 -13  -6   1   14.90    0.91
  13  -6  -1   14.53    0.82
  13   6   1   15.33    0.65
  13   6   1   15.49    0.87
  13   6   1   15.11    0.80
  13   7  -1    4.63    0.46
  13  -7   1    4.28    0.48
 -13   7   1    3.53    0.39
  13   7  -1    3.50    0.37
  13   7  -1    4.27    0.38
  13   7   1    3.63    0.34
  13   7   1    3.83    0.42
  13   7   1    4.02    0.42
  13   7   1    4.11    0.50
  13   7   1    3.93    0.43
  13  -7  -1    4.36    0.26
  13  -7  -1    4.64    0.47
 -13   7  -1    5.34    0.55
 -13   8   1    3.68    0.31
  13   8  -1    3.86    0.37
  13   8  -1    3.82    0.34
 -13   8  -1    3.58    0.37
  13  -8  -1    3.73    0.35
  13   8   1    3.35    0.35
  13   8   1    4.53    0.30
  13   8   1    4.11    0.42
  13   8   1    3.93    0.36
  13   8   1    3.74    0.36
  13   9  -1    3.25    0.29
 -13  -9  -1    2.97    0.27
  13   9  -1    3.72    0.26
 -13   9  -1    2.92    0.25
 -13  -9   1    3.10    0.26
  13   9   1    3.20    0.28
  13   9   1    2.83    0.22
 -13   0   2    0.14    0.18
  13   0   2    0.16    0.18
  13   0   2    0.07    0.19
  13   0  -2    0.08    0.19
 -13   0   2    0.35    0.22
  13   0  -2    0.08    0.16
  13   0   2    0.07    0.18
  13   0  -2   -0.12    0.34
 -13   0   2    0.29    0.24
  13   0   2    0.29    0.21
  13   0  -2    0.19    0.20
  13   0   2   -0.03    0.15
  13   0   2    0.16    0.20
  13   0   2    0.08    0.19
  13  -1   2   17.91    0.89
  13  -1   2   19.28    0.78
  13  -1   2   19.96    0.98
  13   1  -2   18.06    0.74
  13  -1   2   18.74    0.95
  13  -1   2   17.90    1.38
  13   1  -2   18.80    0.97
  13   1  -2   18.10    0.90
 -13   1   2   18.09    1.06
  13  -1   2   19.11    0.85
  13  -1   2   18.81    0.87
  13  -1   2   19.63    1.01
  13  -1  -2   17.54    0.90
  13   1   2   18.09    0.88
 -13  -1   2   17.54    0.88
  13   1   2   19.40    1.02
  13  -1  -2   17.78    0.79
  13   1   2   18.32    0.94
 -13  -1   2   19.00    1.15
  13   1   2   18.35    0.87
  13  -1  -2   18.51    1.42
 -13   1  -2   19.92    1.25
  13   1   2   19.90    0.75
  13  -1  -2   18.86    0.98
 -13  -1   2   19.89    1.02
  13   1   2   18.56    0.85
  13   1   2   19.40    0.98
  13   2  -2   45.76    1.41
  13  -2   2   42.84    1.56
  13  -2   2   46.31    1.77
 -13  -2  -2   51.18    1.94
  13  -2   2   44.45    2.36
  13  -2   2   47.02    1.77
  13  -2   2   46.07    1.44
  13  -2   2   43.48    1.64
  13  -2   2   46.27    1.81
 -13   2   2   46.86    1.90
  13  -2   2   44.25    1.52
  13   2  -2   48.21    1.68
  13   2  -2   49.84    1.82
  13   2   2   45.87    1.77
 -13  -2   2   45.53    2.00
  13   2   2   45.00    1.76
  13  -2  -2   47.13    1.82
  13   2   2   44.22    1.35
  13   2   2   43.99    1.66
 -13  -2   2   45.50    1.60
  13  -2  -2   46.43    1.69
 -13  -2   2   45.49    1.85
  13   2   2   43.84    1.55
 -13   2  -2   50.94    2.15
  13  -2  -2   46.33    2.43
  13  -2  -2   47.88    1.57
  13  -3   2    9.69    0.67
  13  -3   2    9.45    0.60
  13  -3   2    9.60    1.04
  13  -3   2    9.41    0.54
 -13   3   2   10.26    0.70
  13  -3   2    9.13    0.58
  13   3  -2   10.09    0.68
  13  -3   2    9.66    0.64
  13  -3   2    9.77    0.67
 -13  -3  -2    9.67    0.74
  13   3  -2    9.75    0.63
  13  -3  -2    8.47    0.65
 -13   3  -2    9.35    0.88
  13   3   2    9.91    0.68
  13  -3  -2    9.23    0.64
 -13  -3   2    9.76    0.62
  13  -3  -2    8.42    0.56
 -13  -3   2    8.93    0.80
  13   3   2    8.81    0.62
  13   3   2    9.63    0.68
  13   3   2    9.80    0.62
  13   3   2    9.33    0.49
 -13  -3   2    9.49    0.72
  13  -3  -2    7.17    1.00
  13  -4   2   17.03    0.92
 -13   4   2   16.47    0.92
  13  -4   2   17.66    0.79
 -13  -4  -2   16.08    0.98
 -13   4   2   17.00    0.84
  13   4  -2   14.86    0.75
  13  -4   2   17.19    0.82
  13   4  -2   16.15    0.90
  13  -4   2   16.98    0.86
  13  -4   2   15.79    1.37
 -13  -4   2   18.29    1.00
  13   4   2   18.20    0.95
  13   4   2   15.73    0.85
  13   4   2   18.25    0.83
  13  -4  -2   15.64    0.86
 -13  -4   2   16.03    1.08
 -13   4  -2   17.13    1.14
  13   4   2   17.83    0.69
  13  -4  -2   16.27    0.94
  13   4   2   17.99    0.95
  13  -4  -2   14.98    1.32
  13  -4  -2   15.14    0.76
  13  -5   2    2.87    0.43
  13  -5   2    1.71    0.66
  13   5  -2    3.35    0.38
 -13   5   2    3.34    0.45
  13   5  -2    2.67    0.41
 -13  -5  -2    4.81    0.59
  13  -5   2    2.74    0.38
  13   5  -2    4.13    0.48
  13  -5  -2    3.51    0.42
  13   5   2    1.72    0.33
  13  -5  -2    3.96    0.52
 -13   5  -2    2.99    0.52
  13   5   2    2.02    0.38
  13  -5  -2    4.31    0.39
 -13  -5   2    2.47    0.51
  13  -5  -2    3.36    0.76
  13   5   2    2.29    0.29
  13   5   2    3.02    0.40
 -13  -5   2    2.72    0.44
  13   5   2    2.15    0.36
  13  -6   2    2.66    0.41
  13   6  -2    2.04    0.35
 -13  -6  -2    1.88    0.60
 -13   6   2    1.64    0.31
  13   6  -2    2.01    0.30
  13   6   2    1.41    0.33
  13   6   2    1.24    0.28
 -13  -6   2    1.12    0.43
  13  -6  -2    2.50    0.42
  13   6   2    1.40    0.28
  13  -6  -2    1.92    0.27
  13  -6  -2    1.68    0.31
  13   6   2    1.44    0.32
 -13   6  -2    1.61    0.41
 -13  -6   2    1.82    0.37
  13   6   2    1.67    0.23
  13  -7   2   33.84    1.36
  13   7  -2   35.69    1.26
 -13   7   2   34.12    1.22
  13   7  -2   35.90    1.19
  13  -7  -2   34.15    1.14
  13   7   2   35.79    1.05
  13   7   2   33.85    1.39
  13  -7  -2   34.24    1.35
  13   7   2   32.32    1.38
  13  -7  -2   33.70    1.28
  13   7   2   33.88    1.28
  13   7   2   33.96    1.20
  13   8  -2   10.74    0.56
 -13   8   2   10.46    0.41
  13  -8  -2   10.81    0.56
  13   8   2   10.91    0.53
 -13   8  -2   10.31    0.59
  13   8   2   10.16    0.56
 -13  -8   2   10.01    0.51
  13   8   2   10.09    0.42
  13   8   2   10.32    0.62
  13   8   2   10.84    0.54
 -13  -9  -2    3.24    0.26
  13   9  -2    3.65    0.28
  13   9   2    3.55    0.19
 -13  -9   2    3.47    0.26
 -13   9  -2    2.81    0.25
  13   0  -3   -0.07    0.16
 -13   0   3    0.27    0.20
  13   0   3    0.03    0.14
  13   0  -3    0.67    0.42
  13   0  -3    0.17    0.21
  13   0  -3    0.00    0.19
 -13   0   3    0.03    0.22
  13   0   3    0.07    0.20
 -13   0   3    0.46    0.24
  13   0   3    0.06    0.19
  13   0   3    0.29    0.20
  13   0   3   -0.17    0.15
  13   0   3    0.19    0.20
  13   0   3    0.25    0.23
 -13   1   3    6.34    0.52
  13  -1   3    5.82    0.55
  13  -1   3    5.01    0.49
  13   1  -3    6.84    0.54
  13  -1   3    6.17    0.55
  13   1  -3    6.33    0.45
 -13   1   3    5.83    0.60
  13  -1   3    6.66    0.54
  13  -1   3    6.15    0.42
  13  -1   3    6.75    0.52
  13   1  -3    6.80    0.56
  13  -1   3    5.91    0.51
  13  -1   3    6.78    0.96
  13   1   3    5.32    0.37
  13   1   3    5.50    0.50
  13  -1  -3    6.49    0.46
  13  -1  -3    6.85    0.53
  13   1   3    6.68    0.52
  13  -1  -3    6.31    0.95
  13   1   3    6.50    0.57
 -13  -1   3    6.20    0.50
  13   1   3    6.15    0.49
  13  -1  -3    5.68    0.54
  13   1   3    5.91    0.53
  13   1   3    5.71    0.57
 -13  -1   3    6.50    0.57
 -13  -1   3    6.34    0.63
  13  -2   3    9.54    0.63
  13   2  -3    8.91    0.62
  13  -2   3   10.14    0.69
 -13  -2  -3    9.15    0.74
  13  -2   3   10.02    0.53
 -13   2   3    9.34    0.78
  13   2  -3    8.94    0.66
  13   2  -3    8.78    0.50
 -13   2   3   10.00    0.64
  13  -2   3   10.38    0.64
  13  -2   3    9.29    0.60
  13  -2   3   10.03    0.70
  13  -2   3    8.58    1.08
  13   2   3   10.60    0.71
 -13  -2   3   10.61    0.72
  13  -2  -3    8.45    0.60
 -13   2  -3    9.85    0.94
  13  -2  -3    9.13    1.18
 -13  -2   3   10.73    0.79
  13   2   3    9.73    0.61
  13   2   3    9.79    0.47
  13   2   3   10.12    0.64
  13  -2  -3    9.13    0.66
  13   2   3    9.39    0.67
  13  -2  -3    9.18    0.58
 -13  -2   3   10.26    0.64
  13  -3   3   20.84    1.04
  13   3  -3   19.49    0.75
  13  -3   3   18.52    0.86
 -13   3   3   19.72    0.92
  13  -3   3   17.93    1.48
  13  -3   3   19.63    0.92
  13   3  -3   19.60    1.00
  13  -3   3   18.26    0.77
  13  -3   3   19.89    0.92
  13  -3   3   18.23    0.99
 -13  -3  -3   21.32    1.11
 -13   3   3   20.11    1.00
 -13  -3   3   18.31    0.89
  13  -3  -3   20.68    1.06
 -13   3  -3   19.51    1.29
  13  -3  -3   20.18    0.96
  13   3   3   19.26    0.90
 -13  -3   3   18.95    1.13
  13  -3  -3   20.59    1.57
  13  -3  -3   20.65    0.92
  13   3   3   20.74    1.02
 -13  -3   3   19.71    1.06
  13   3   3   17.98    0.98
  13   3   3   19.95    0.71
  13   3   3   18.63    0.93
  13  -4   3   11.39    0.60
  13  -4   3   10.68    1.18
 -13  -4  -3   10.73    0.80
 -13   4   3   11.71    0.72
  13  -4   3   11.92    0.76
  13  -4   3   11.99    0.66
 -13   4   3   11.95    0.69
  13  -4   3   12.15    0.68
  13   4  -3   10.89    0.68
  13   4  -3   11.28    0.75
  13  -4   3   11.29    0.74
  13   4   3   11.28    0.50
  13   4   3   11.02    0.66
 -13  -4   3   10.98    0.86
  13  -4  -3   10.36    0.68
  13  -4  -3   11.08    0.65
  13   4   3   12.99    0.79
  13  -4  -3    9.70    1.24
  13  -4  -3   11.52    0.77
  13   4   3   11.41    0.70
 -13  -4   3   10.53    0.77
  13   4   3   12.46    0.78
 -13   4  -3   10.29    0.97
  13  -5   3   12.93    0.80
  13  -5   3   13.56    0.70
 -13  -5  -3   11.23    0.82
  13  -5   3   12.70    0.67
 -13   5   3   12.53    0.70
  13   5  -3   11.95    0.70
  13   5   3   12.15    0.78
  13   5   3   12.20    0.78
  13  -5  -3   11.95    0.78
 -13  -5   3   11.93    0.82
  13   5   3   12.55    0.52
 -13   5  -3   12.83    0.95
  13   5   3   12.27    0.68
  13  -5  -3   12.79    0.68
  13  -5  -3   11.79    0.71
 -13  -5   3   11.16    0.88
  13   5   3   12.25    0.72
  13   6  -3    3.22    0.36
 -13   6   3    3.02    0.36
  13  -6   3    3.07    0.42
  13   6  -3    2.71    0.36
  13  -6   3    2.95    0.37
  13  -6   3    3.46    0.39
  13   6   3    2.80    0.44
  13   6   3    3.21    0.26
 -13  -6   3    3.45    0.49
 -13   6  -3    2.14    0.50
  13  -6  -3    3.31    0.37
  13   6   3    3.35    0.42
  13   6   3    3.60    0.41
  13   6   3    3.22    0.46
  13  -6  -3    3.10    0.40
  13  -6  -3    3.35    0.47
  13  -7   3   15.81    0.85
  13   7  -3   16.26    0.76
 -13   7   3   17.09    0.65
  13  -7  -3   17.58    0.70
  13   7   3   16.64    0.86
  13   7   3   17.02    0.80
  13   7   3   15.74    0.86
  13  -7  -3   17.38    0.86
  13   7   3   17.18    0.58
 -13  -7   3   16.34    0.70
  13  -7  -3   18.22    0.81
  13   7   3   16.57    0.73
  13   8  -3    1.12    0.22
 -13  -8   3    1.65    0.22
  13  -8  -3    1.48    0.17
 -13  -8   3    1.84    0.32
  13  -8  -3    1.64    0.25
 -13   8  -3    1.22    0.29
  13   8   3    1.96    0.27
  13   8   3    2.02    0.25
  13   8   3    1.94    0.17
  13   9  -3    1.70    0.20
 -13   9  -3    1.67    0.21
  13   0   4    0.05    0.19
  13   0   4    0.04    0.21
  13   0   4    0.00    0.12
  13   0  -4    0.08    0.20
  13   0   4    0.11    0.20
 -13   0   4    0.02    0.23
  13   0  -4    0.03    0.19
  13   0   4   -0.11    0.17
 -13   0   4    0.11    0.18
  13   0   4    0.03    0.19
  13   0  -4    0.24    0.21
  13   0  -4    0.08    0.38
  13  -1   4    2.11    0.69
  13   1  -4    4.14    0.50
  13   1  -4    4.28    0.44
  13  -1   4    3.24    0.42
  13  -1   4    2.37    0.35
 -13   1   4    3.32    0.47
 -13   1   4    2.96    0.39
  13  -1   4    2.55    0.40
  13  -1   4    2.27    0.35
  13  -1   4    3.37    0.47
  13  -1   4    3.35    0.32
  13   1   4    2.75    0.46
  13  -1  -4    3.70    0.43
 -13  -1   4    3.23    0.46
 -13  -1   4    3.30    0.47
 -13  -1   4    2.34    0.35
  13  -1  -4    3.33    0.75
  13   1   4    3.83    0.47
  13   1   4    3.44    0.48
  13   1   4    2.98    0.42
  13  -1  -4    3.51    0.41
  13  -1  -4    4.36    0.54
  13   1   4    2.45    0.36
  13   1   4    2.89    0.28
  13   1   4    3.51    0.43
 -13   2   4    7.71    0.58
  13   2  -4    7.66    0.51
  13   2  -4    8.52    0.63
  13  -2   4    7.96    0.57
  13  -2   4    7.92    0.62
  13  -2   4    7.48    0.44
  13  -2   4    6.87    0.52
  13  -2   4    7.71    0.63
 -13   2   4    7.71    0.60
  13  -2   4    6.55    1.00
  13   2   4    6.88    0.56
 -13  -2   4    8.08    0.66
  13   2   4    7.79    0.39
  13   2   4    7.29    0.60
  13   2   4    7.98    0.57
  13  -2  -4    8.64    0.59
  13  -2  -4    7.75    0.61
  13   2   4    7.39    0.65
 -13  -2   4    7.33    0.56
  13  -2  -4    7.69    0.58
  13  -2  -4    7.53    1.07
  13   2   4    8.28    0.62
 -13   3   4   30.55    1.24
  13  -3   4   31.89    1.40
  13   3  -4   31.95    1.35
  13   3  -4   32.73    1.27
  13  -3   4   29.11    1.02
  13   3  -4   31.74    1.12
  13  -3   4   30.27    1.20
 -13  -3  -4   32.34    1.47
  13  -3   4   27.37    1.86
  13  -3   4   30.45    1.36
  13  -3   4   30.19    1.17
 -13   3   4   30.75    1.20
 -13  -3   4   31.38    1.21
 -13  -3   4   30.24    1.39
  13   3   4   29.98    1.34
  13   3   4   30.33    1.26
  13  -3  -4   33.28    1.27
  13   3   4   32.17    1.38
  13  -3  -4   29.57    1.91
  13   3   4   30.39    0.93
  13  -3  -4   30.79    1.37
  13  -3  -4   30.72    1.25
  13   3   4   30.57    1.20
 -13   3  -4   33.03    1.71
  13  -4   4    6.13    0.56
  13   4  -4    5.57    0.50
  13  -4   4    5.88    0.59
  13  -4   4    6.21    0.51
 -13  -4  -4    5.66    0.65
  13   4  -4    5.87    0.37
  13  -4   4    5.94    0.43
 -13   4   4    6.66    0.50
  13  -4   4    5.83    1.00
  13  -4   4    6.42    0.50
  13  -4  -4    5.84    0.50
  13   4   4    5.25    0.50
  13   4   4    6.52    0.57
  13   4   4    6.20    0.33
  13  -4  -4    5.11    0.95
 -13  -4   4    6.58    0.60
  13   4   4    6.11    0.50
  13  -4  -4    6.05    0.57
  13   4   4    5.56    0.53
 -13   4  -4    6.23    0.78
 -13  -4   4    5.90    0.50
  13  -4  -4    6.11    0.52
  13  -5   4    7.49    0.53
  13  -5   4    8.24    0.56
  13  -5   4    8.36    0.63
 -13   5   4    7.03    0.48
  13  -5   4    7.29    0.48
  13   5  -4    6.25    0.53
  13  -5  -4    7.88    0.55
 -13   5  -4    6.61    0.83
  13  -5  -4    7.64    0.53
  13   5   4    7.17    0.56
  13   5   4    7.51    0.35
  13   5   4    7.11    0.61
 -13  -5   4    8.02    0.66
 -13  -5   4    8.17    0.64
  13  -5  -4    7.45    0.60
  13   5   4    9.12    0.65
  13   5   4    7.40    0.54
  13  -6   4   24.80    1.15
 -13   6   4   25.80    0.90
  13  -6   4   26.70    0.95
  13   6  -4   26.69    1.06
  13  -6   4   25.41    0.99
  13  -6   4   25.14    0.97
  13   6   4   24.23    1.14
  13  -6  -4   27.17    1.17
  13   6   4   26.26    1.01
  13  -6  -4   27.23    1.03
  13  -6  -4   26.82    1.08
 -13  -6   4   24.88    1.08
  13   6   4   25.23    1.08
  13   6   4   25.52    0.75
  13   6   4   25.72    1.17
  13  -7   4    2.72    0.29
  13   7  -4    2.97    0.35
  13  -7   4    2.87    0.30
 -13  -7   4    3.01    0.37
  13  -7  -4    3.44    0.32
  13  -7  -4    2.97    0.34
  13  -7  -4    3.31    0.39
  13   7   4    3.09    0.32
  13   7   4    2.56    0.17
  13   7   4    2.94    0.38
  13   7   4    2.95    0.36
  13   8  -4   16.81    0.68
  13  -8  -4   17.10    0.60
  13   8   4   16.24    0.62
  13  -8  -4   16.65    0.68
  13   8   4   17.13    0.71
 -13  -8   4   15.80    0.69
 -13   0   5    0.07    0.22
  13   0  -5    0.22    0.44
 -13   0   5    0.05    0.19
  13   0   5    0.39    0.23
  13   0   5    0.14    0.20
  13   0   5   -0.11    0.10
  13   0   5    0.02    0.19
  13   0   5    0.17    0.20
  13   0  -5   -0.01    0.19
  13   0   5    0.22    0.22
  13   0  -5   -0.02    0.19
 -13   1   5    5.51    0.49
  13  -1   5    5.28    0.93
  13  -1   5    5.77    0.54
  13  -1   5    4.77    0.49
  13   1  -5    5.69    0.53
  13  -1   5    5.88    0.37
  13  -1   5    4.66    0.48
  13  -1   5    5.48    0.55
  13   1  -5    5.15    0.48
 -13   1   5    5.52    0.47
  13   1   5    5.45    0.59
  13   1   5    4.90    0.49
  13  -1  -5    5.55    0.49
  13  -1  -5    5.71    0.50
  13   1   5    5.00    0.29
  13   1   5    5.65    0.65
  13  -1  -5    6.17    0.55
  13  -1  -5    3.80    0.77
  13   1   5    5.63    0.50
 -13  -1   5    5.11    0.50
  13   1   5    4.70    0.48
 -13  -1   5    4.12    0.45
  13  -2   5    5.46    0.55
  13  -2   5    6.07    0.55
  13  -2   5    5.89    1.00
 -13   2   5    4.67    0.48
  13  -2   5    6.24    0.50
  13  -2   5    5.16    0.37
  13   2  -5    5.91    0.59
  13   2  -5    5.49    0.47
  13  -2   5    4.38    0.52
 -13   2   5    4.81    0.46
 -13  -2   5    5.77    0.58
  13  -2  -5    4.73    0.49
  13  -2  -5    5.44    0.90
 -13  -2   5    5.19    0.52
 -13  -2   5    5.67    0.56
  13   2   5    5.55    0.29
  13   2   5    5.38    0.52
  13   2   5    5.76    0.54
  13   2   5    5.68    0.50
  13   2   5    4.51    0.47
  13  -2  -5    5.40    0.52
  13   2   5    4.98    0.57
  13  -2  -5    6.08    0.50
  13   3  -5    7.62    0.49
 -13   3   5    7.86    0.52
 -13   3   5    8.41    0.56
 -13  -3  -5    8.08    0.70
  13  -3   5    7.32    0.61
  13  -3   5    6.83    0.54
  13  -3   5    7.88    0.44
  13  -3   5    7.66    0.54
  13  -3   5    7.21    1.06
  13  -3   5    7.75    0.65
  13   3  -5    8.03    0.59
  13   3   5    7.86    0.34
  13   3   5    8.50    0.64
 -13  -3   5    7.81    0.56
  13  -3  -5    7.70    0.64
 -13  -3   5    7.68    0.60
  13   3   5    7.35    0.60
  13  -3  -5    6.93    1.00
  13   3   5    7.49    0.56
  13  -3  -5    8.19    0.57
 -13  -3   5    7.53    0.64
  13  -3  -5    7.52    0.58
  13   3   5    8.31    0.56
  13  -4   5    0.72    0.24
  13   4  -5    0.75    0.20
  13  -4   5    0.72    0.22
  13  -4   5    0.84    0.19
  13  -4   5    0.46    0.25
  13  -4   5    0.58    0.28
  13   4  -5    0.34    0.22
 -13   4   5    0.62    0.20
  13  -4  -5    0.61    0.24
  13   4   5    0.54    0.25
 -13  -4   5    0.72    0.26
 -13   4  -5    0.47    0.44
  13  -4  -5    0.34    0.21
  13  -4  -5    0.79    0.24
 -13  -4   5    0.67    0.27
  13   4   5    0.81    0.28
 -13  -4   5    0.44    0.22
  13   4   5    0.64    0.25
  13   4   5    0.64    0.11
  13   4   5    0.50    0.21
  13   5  -5    1.07    0.25
  13  -5   5    1.14    0.25
 -13   5   5    1.08    0.17
  13  -5   5    1.19    0.31
  13  -5   5    0.91    0.21
  13  -5   5    0.95    0.26
  13   5   5    1.11    0.31
 -13  -5   5    1.25    0.29
 -13  -5   5    1.15    0.30
  13   5   5    0.78    0.24
  13  -5  -5    0.75    0.23
  13  -5  -5    0.86    0.27
  13   5   5    0.97    0.28
  13   5   5    1.09    0.11
  13   5   5    1.35    0.26
  13  -5  -5    1.16    0.26
  13  -6   5    3.43    0.44
  13  -6   5    2.46    0.27
  13  -6   5    3.77    0.38
  13   6  -5    3.60    0.40
  13  -6   5    3.66    0.37
  13  -6  -5    4.03    0.37
  13   6   5    3.32    0.40
  13  -6  -5    3.24    0.41
  13   6   5    2.86    0.35
  13   6   5    3.15    0.35
  13   6   5    2.42    0.37
 -13  -6   5    2.94    0.36
  13  -6  -5    4.13    0.38
  13  -7   5   11.15    0.48
  13  -7   5   10.22    0.50
  13   7  -5   10.67    0.55
  13  -7  -5   10.66    0.54
  13   7   5    9.86    0.56
  13  -7  -5   10.57    0.51
  13  -7  -5    9.00    0.57
 -13  -7   5    9.83    0.51
  13   7   5   10.42    0.51
  13   7   5    9.30    0.59
  13   8  -5   11.54    0.50
  13  -8  -5   11.36    0.50
  13   8   5   10.71    0.51
  13  -8  -5   11.51    0.43
 -13  -8   5   10.19    0.43
  13   0   6    0.11    0.10
 -13   0   6    0.14    0.18
  13   0   6    0.27    0.21
  13   0  -6    0.35    0.49
 -13   0   6   -0.07    0.18
  13   0   6   -0.13    0.20
  13   0  -6    0.02    0.19
  13   0   6    0.15    0.19
  13   0   6    0.03    0.21
  13   0  -6    0.07    0.21
  13   1  -6    0.22    0.20
 -13   1   6    0.16    0.18
  13  -1   6    0.21    0.20
  13  -1   6    0.36    0.23
  13  -1   6    0.25    0.12
 -13   1   6    0.03    0.15
  13  -1   6   -0.02    0.19
  13  -1   6    0.33    0.20
 -13  -1   6    0.17    0.17
  13   1   6    0.20    0.08
  13   1   6    0.04    0.24
  13   1   6    0.30    0.25
  13  -1  -6    0.18    0.19
  13  -1  -6    0.42    0.47
  13   1   6    0.22    0.19
 -13  -1   6   -0.05    0.17
  13  -1  -6    0.12    0.22
  13   1   6   -0.18    0.19
  13  -2   6   17.34    0.84
  13  -2   6   16.99    0.85
 -13   2   6   17.92    0.74
  13  -2   6   17.63    0.65
  13   2  -6   17.64    0.86
  13  -2   6   17.22    0.98
  13  -2   6   18.05    0.95
 -13   2   6   18.04    0.84
  13   2  -6   17.98    0.85
 -13  -2   6   18.32    0.82
  13  -2  -6   17.36    0.88
 -13  -2   6   17.79    0.84
  13   2   6   17.79    0.85
  13  -2  -6   17.26    0.93
  13   2   6   18.15    0.87
  13   2   6   18.80    0.97
  13   2   6   17.32    1.01
  13   3  -6   23.05    0.95
  13  -3   6   24.67    1.02
  13  -3   6   23.73    0.99
  13   3  -6   22.76    1.00
  13  -3   6   25.12    0.82
 -13   3   6   25.95    1.01
 -13   3   6   23.23    0.84
 -13  -3  -6   21.25    1.17
  13  -3   6   24.53    1.19
  13  -3   6   23.58    1.13
  13   3   6   23.41    1.11
  13  -3  -6   21.84    1.09
  13   3   6   24.97    1.14
 -13  -3   6   24.78    1.00
  13  -3  -6   23.67    1.01
 -13  -3   6   24.74    0.99
  13   3   6   24.53    1.05
 -13  -3   6   22.81    1.13
  13   3   6   26.32    1.02
  13  -3  -6   23.55    1.06
  13  -4   6   12.08    0.76
  13  -4   6   12.85    0.69
  13  -4   6   12.59    0.86
  13   4  -6   11.25    0.67
  13   4  -6   11.36    0.59
  13  -4   6   12.54    0.55
  13  -4   6   14.48    0.70
  13  -4  -6   10.70    0.72
 -13  -4   6   11.87    0.63
  13  -4  -6   11.36    0.70
  13  -4  -6   11.12    0.65
 -13  -4   6   12.83    0.66
  13   4   6   13.72    0.77
  13   4   6   12.35    0.69
  13   4   6   13.28    0.75
  13   4   6   13.17    0.66
 -13  -4   6   12.06    0.86
  13  -5   6   10.15    0.50
  13  -5   6   11.33    0.62
  13  -5   6   10.89    0.70
  13   5  -6   11.00    0.61
  13  -5   6   10.67    0.59
 -13  -5   6   11.17    0.57
  13   5   6   11.30    0.67
  13  -5  -6   10.32    0.67
  13  -5  -6   11.38    0.62
  13  -5  -6   11.44    0.64
  13   5   6   10.97    0.62
  13   5   6   11.36    0.59
  13   5   6   10.26    0.67
  13   6  -6    6.46    0.45
  13  -6   6    7.54    0.45
  13  -6   6    8.04    0.46
  13  -6   6    7.62    0.39
  13   6   6    6.97    0.52
  13   6   6    7.21    0.47
 -13  -6   6    7.87    0.42
  13  -6  -6    6.76    0.44
  13  -6  -6    6.57    0.45
  13  -6  -6    5.23    0.47
  13   6   6    7.55    0.43
  13  -7   6   12.03    0.47
  13   7  -6   11.58    0.54
  13  -7   6   12.02    0.51
 -13  -7   6   11.75    0.44
  13  -7  -6   11.28    0.51
  13   7   6   12.38    0.57
  13  -7  -6   11.62    0.53
  13   0   7    0.24    0.24
  13   0   7    0.14    0.21
  13   0  -7    0.28    0.20
 -13   0   7    0.01    0.18
 -13   0   7    0.17    0.14
  13   0   7    0.28    0.20
  13   0   7    0.10    0.20
  13  -1   7    0.53    0.10
  13   1  -7    0.75    0.25
 -13   1   7    0.90    0.15
 -13   1   7    0.68    0.22
  13   1  -7    0.88    0.25
  13  -1   7    0.62    0.25
  13  -1   7    0.92    0.28
  13  -1   7    0.56    0.24
  13  -1   7    0.77    0.29
 -13  -1   7    0.83    0.18
 -13  -1   7    0.78    0.23
  13  -1  -7    1.14    0.29
  13   1   7    0.97    0.25
  13   1   7    0.61    0.26
  13   1   7    0.96    0.33
  13  -1  -7    0.80    0.27
  13  -2   7    6.65    0.59
  13  -2   7    7.24    0.34
  13  -2   7    7.57    0.54
  13  -2   7    6.45    0.61
 -13   2   7    6.56    0.50
  13  -2   7    7.38    0.53
  13   2  -7    7.38    0.53
  13   2  -7    7.55    0.54
  13  -2  -7    8.02    0.59
  13  -2  -7    7.73    0.55
  13   2   7    7.40    0.53
  13   2   7    7.40    0.59
 -13  -2   7    6.40    0.50
 -13  -2   7    6.97    0.42
  13  -3   7    8.94    0.41
 -13   3   7    8.57    0.53
  13   3  -7    8.54    0.52
  13   3  -7    8.10    0.55
  13  -3   7    9.61    0.58
  13  -3   7    8.00    0.62
  13  -3   7   10.67    0.61
  13   3   7    9.00    0.55
  13   3   7    8.49    0.61
  13  -3  -7    8.63    0.59
  13   3   7    7.75    0.54
 -13  -3   7    9.14    0.56
  13  -3  -7    9.02    0.61
 -13  -3   7    8.82    0.46
  13  -4   7    5.39    0.49
  13  -4   7    5.22    0.31
  13   4  -7    4.66    0.43
  13  -4   7    4.70    0.44
  13  -4   7    5.56    0.43
  13   4  -7    4.69    0.37
  13   4   7    4.56    0.48
  13   4   7    4.85    0.42
 -13  -4   7    5.70    0.33
  13   4   7    5.37    0.44
  13  -4  -7    5.19    0.47
 -13  -4   7    4.95    0.41
  13  -4  -7    5.26    0.47
  13  -4  -7    4.85    0.42
  13  -5   7    0.16    0.17
  13  -5   7    0.33    0.15
  13   5  -7    0.08    0.15
  13  -5   7    0.23    0.11
  13   5   7    0.47    0.17
  13   5   7    0.09    0.20
  13   5   7   -0.22    0.14
  13  -5  -7    0.21    0.15
  13  -5  -7    0.14    0.16
  13  -5  -7    0.04    0.16
  13   6  -7    5.69    0.38
  13  -6   7    5.68    0.37
  13  -6   7    5.61    0.36
  13  -6   7    5.11    0.29
  13  -6  -7    5.48    0.37
  13   6   7    5.25    0.37
  13  -6  -7    5.38    0.35
  13  -7   7    0.95    0.17
  13   7  -7    1.38    0.18
  13  -7   7    0.83    0.12
  13  -7  -7    1.54    0.18
  13   0   8    0.15    0.20
  13   0   8   -0.19    0.19
  13   0  -8    0.09    0.16
 -13   0   8    0.01    0.15
  13   0  -8    0.22    0.22
  13   0   8    0.07    0.16
  13  -1   8    1.14    0.31
  13  -1   8    1.33    0.26
 -13   1   8    0.89    0.22
  13   1  -8    1.58    0.27
  13   1  -8    1.45    0.29
  13  -1   8    1.64    0.30
  13   1   8    1.01    0.28
 -13  -1   8    0.97    0.22
  13   1   8    1.04    0.24
  13  -1  -8    1.92    0.32
  13   2  -8   11.51    0.62
  13  -2   8   10.63    0.63
 -13   2   8   11.83    0.60
  13   2  -8   12.04    0.63
  13  -2   8   12.13    0.62
  13  -2  -8   11.27    0.65
  13   2   8   12.04    0.60
 -13  -2   8   11.18    0.60
  13  -3   8   18.57    0.52
  13   3  -8   19.69    0.79
  13  -3   8   18.67    0.79
  13   3  -8   19.19    0.81
  13  -3   8   19.03    0.83
  13  -3  -8   19.47    0.84
 -13  -3   8   18.53    0.78
  13   3   8   19.81    0.76
  13  -3  -8   18.80    0.87
  13  -4   8    5.97    0.43
  13   4  -8    7.11    0.45
  13  -4   8    5.98    0.26
  13  -4   8    5.79    0.41
  13   4  -8    6.63    0.38
  13  -4  -8    6.42    0.50
  13  -4  -8    6.23    0.44
 -13  -4   8    6.41    0.40
  13  -5   8    2.01    0.16
  13  -5   8    1.79    0.25
  13   5  -8    1.52    0.22
  13  -5   8    1.60    0.22
  13  -5  -8    1.34    0.22
  13  -6   8    9.73    0.29
  13  -6   8    9.53    0.43
  13   6  -8    9.72    0.44
  13  -6  -8   10.00    0.43
 -13   0   9    0.06    0.14
  13   0   9   -0.20    0.18
  13   0  -9    0.21    0.15
  13   0   9    0.07    0.14
  13   0  -9   -0.03    0.18
  13  -1   9    2.34    0.31
  13  -1   9    2.24    0.28
  13   1  -9    2.46    0.29
 -13   1   9    2.05    0.26
  13   1  -9    2.13    0.29
 -13  -1   9    1.75    0.24
  13   1   9    2.00    0.26
  13  -1  -9    2.25    0.31
  13  -2   9   10.11    0.54
  13  -2   9    9.74    0.50
 -13   2   9    9.21    0.47
  13   2  -9    9.40    0.49
  13   2  -9    9.70    0.50
  13  -2  -9    9.51    0.54
 -13  -2   9    9.88    0.50
  13   3  -9    3.39    0.30
  13  -3   9    3.56    0.32
  13  -3   9    3.60    0.34
  13   3  -9    2.91    0.27
 -13  -3   9    3.27    0.28
  13  -3  -9    3.20    0.32
  13   4  -9    2.38    0.25
  13  -4   9    1.85    0.24
  13  -4   9    2.11    0.24
  13   4  -9    1.85    0.19
 -13  -4   9    1.62    0.19
  13  -4  -9    1.74    0.23
  13   0 -10   -0.05    0.12
 -13   0  10    0.07    0.11
  13   0 -10   -0.08    0.12
  13   1 -10    5.41    0.32
 -13   1  10    4.80    0.30
  13   1 -10    4.99    0.33
  13  -1  10    5.46    0.34
  13  -1 -10    5.65    0.36
 -13  -1  10    4.79    0.32
  13   2 -10    6.76    0.36
  13  -2  10    7.59    0.40
  13   2 -10    7.12    0.37
  13  -2 -10    7.13    0.41
 -13  -2  10    7.75    0.38
  13   3 -10   10.24    0.40
  14   0   0    5.26    0.53
  14   0   0    5.96    0.49
  14   0   0    5.10    0.48
 -14   0   0    5.48    0.73
  14   0   0    5.58    0.52
 -14   0   0    4.32    0.51
  14   0   0    4.46    0.47
 -14   1   0   42.65    1.95
 -14  -1   0   44.04    1.77
  14   1   0   42.05    1.57
  14   1   0   41.67    1.36
  14  -1   0   42.11    1.68
  14  -1   0   44.45    1.65
  14  -1   0   41.97    1.51
  14   1   0   41.68    1.43
  14   1   0   39.10    1.48
  14   1   0   43.32    1.64
  14  -1   0   39.15    2.21
  14   1   0   43.35    1.70
 -14   1   0   43.24    1.74
  14  -1   0   42.03    1.58
 -14  -1   0   41.02    1.95
 -14  -2   0   16.98    0.85
  14  -2   0   15.95    0.86
 -14  -2   0   17.18    1.13
  14   2   0   17.75    0.88
 -14   2   0   17.03    1.12
 -14  -2   0   16.92    0.98
  14  -2   0   16.89    0.88
  14  -2   0   18.31    1.46
  14   2   0   18.34    0.82
  14   2   0   16.26    0.90
  14   2   0   18.05    0.78
  14  -2   0   15.94    0.83
  14   2   0   18.86    0.97
  14  -2   0   16.56    0.94
  14   3   0    0.92    0.26
  14  -3   0    0.55    0.24
  14   3   0    0.73    0.21
 -14   3   0    0.77    0.37
  14  -3   0    0.90    0.56
  14  -3   0    0.96    0.28
  14   3   0    0.72    0.26
  14   3   0    0.56    0.23
 -14  -3   0    0.49    0.27
  14  -3   0    0.98    0.28
  14   3   0    1.04    0.28
 -14  -3   0    0.54    0.45
  14  -3   0    0.82    0.27
  14   4   0    0.49    0.23
 -14  -4   0    0.64    0.27
  14  -4   0    0.50    0.23
  14  -4   0    0.91    0.58
  14   4   0    0.70    0.21
 -14   4   0    0.47    0.29
  14   4   0    0.58    0.25
  14  -4   0    0.52    0.27
 -14  -4   0    0.31    0.38
  14  -4   0    0.71    0.27
  14   4   0    0.57    0.26
  14   4   0    0.25    0.18
  14  -4   0    0.34    0.23
  14   5   0    2.73    0.44
  14  -5   0    3.49    0.42
  14   5   0    2.57    0.41
 -14  -5   0    2.76    0.44
  14   5   0    2.97    0.35
  14  -5   0    2.25    0.36
  14   5   0    2.68    0.39
  14   5   0    2.91    0.36
 -14  -5   0    2.85    0.60
  14   6   0    7.89    0.54
  14   6   0    6.65    0.57
 -14   6   0    6.25    0.60
  14  -6   0    7.63    0.55
  14   6   0    7.60    0.59
  14   6   0    6.71    0.47
  14   6   0    6.69    0.44
  14   7   0    6.00    0.45
  14   7   0    5.55    0.43
  14   7   0    5.41    0.49
 -14   7   0    5.39    0.45
  14   7   0    5.87    0.38
  14   7   0    6.18    0.43
  14  -7   0    5.47    0.43
  14   8   0   13.82    0.52
 -14   8   0   13.23    0.56
  14   8   0   12.07    0.56
  14   0   1   36.42    1.50
  14   0   1   36.65    1.28
 -14   0   1   36.90    1.71
  14   0  -1   34.39    1.33
  14   0   1   37.46    1.36
  14   0  -1   33.01    1.47
 -14   0   1   39.23    1.58
 -14   0  -1   34.29    1.55
  14   0   1   37.89    1.22
  14   0   1   37.83    1.49
  14   0  -1   34.02    1.39
  14   0  -1   32.29    2.05
  14   0   1   36.59    1.42
 -14   0  -1   35.12    1.79
 -14   1   1    1.46    0.43
 -14  -1  -1    1.79    0.39
  14  -1   1    1.80    0.34
  14  -1   1    1.52    0.53
 -14   1   1    1.75    0.35
  14  -1   1    1.71    0.34
 -14  -1  -1    2.30    0.53
  14  -1   1    1.85    0.28
  14  -1   1    1.54    0.28
  14   1  -1    1.69    0.34
  14   1  -1    1.63    0.32
  14  -1   1    1.12    0.30
  14  -1   1    1.43    0.31
  14   1   1    1.11    0.23
  14   1   1    1.61    0.31
 -14   1  -1    1.93    0.49
  14   1   1    1.03    0.30
  14  -1  -1    1.98    0.36
  14   1   1    1.14    0.29
 -14  -1   1    1.45    0.34
  14  -1  -1    1.13    0.30
 -14  -1   1    1.32    0.29
 -14   1  -1    2.02    0.42
  14  -1  -1    2.06    0.36
  14  -1  -1    2.19    0.64
  14   1   1    1.99    0.36
 -14  -1   1    2.04    0.48
  14   1   1    1.53    0.34
  14  -2   1    4.84    0.54
 -14   2   1    4.09    0.60
  14  -2   1    3.65    0.74
  14  -2   1    5.51    0.53
  14   2  -1    4.87    0.49
  14  -2   1    4.23    0.49
  14  -2   1    4.21    0.50
  14  -2   1    4.64    0.43
 -14  -2  -1    5.02    0.73
 -14  -2  -1    4.55    0.55
  14   2  -1    5.40    0.48
  14   2   1    4.38    0.50
  14   2   1    3.83    0.37
  14  -2  -1    6.46    1.00
  14   2   1    4.06    0.48
  14  -2  -1    5.23    0.54
 -14  -2   1    4.72    0.57
  14  -2  -1    4.57    0.26
  14   2   1    3.86    0.49
 -14  -2   1    4.21    0.68
  14  -2  -1    5.72    0.55
  14   2   1    5.06    0.50
  14   2   1    4.35    0.51
 -14   2  -1    5.43    0.75
  14  -2  -1    4.92    0.58
 -14  -2   1    4.27    0.45
 -14  -3  -1   22.89    1.38
  14  -3   1   23.56    1.10
  14   3  -1   21.53    1.02
  14  -3   1   21.47    1.03
  14  -3   1   20.82    1.04
  14   3  -1   22.06    0.93
  14  -3   1   20.66    1.57
  14   3  -1   22.65    1.10
  14  -3   1   21.84    0.97
 -14   3   1   21.87    1.18
 -14  -3  -1   22.74    1.18
  14  -3  -1   22.49    1.04
  14  -3  -1   22.86    1.00
  14  -3  -1   22.25    0.76
 -14  -3   1   22.05    1.31
  14   3   1   22.41    0.85
  14   3   1   21.45    1.09
  14   3   1   22.08    1.08
  14  -3  -1   22.43    1.60
 -14  -3   1   21.68    1.02
  14  -3  -1   23.97    1.14
 -14   3  -1   21.40    1.29
  14   3   1   22.65    0.96
 -14  -3   1   20.91    1.14
 -14  -4  -1    0.77    0.42
  14   4  -1    0.43    0.21
  14  -4   1    0.61    0.25
  14   4  -1    0.62    0.22
 -14  -4  -1    0.62    0.30
  14  -4   1    0.80    0.57
  14  -4   1    0.60    0.25
  14   4  -1    0.36    0.23
  14  -4   1    0.70    0.24
  14   4  -1    0.64    0.24
  14   4   1    0.38    0.24
  14  -4  -1   -0.38    0.46
  14   4   1    1.17    0.29
  14   4   1    0.58    0.19
  14  -4  -1    0.59    0.14
  14   4   1    0.60    0.22
  14   4   1    0.80    0.25
  14  -4  -1    0.54    0.23
 -14  -4   1    1.14    0.43
  14  -4  -1    0.32    0.21
 -14   4  -1    0.64    0.34
 -14  -4   1    0.54    0.26
 -14   5   1   11.40    0.76
 -14  -5  -1   11.24    1.03
  14   5  -1   11.17    0.68
 -14  -5  -1   11.41    0.80
  14  -5   1   12.07    0.70
  14   5  -1   11.39    0.62
  14  -5   1   12.41    0.68
  14   5  -1   11.98    0.75
  14   5  -1   10.47    0.60
  14  -5   1   12.23    0.73
 -14  -5   1   10.64    0.78
  14   5   1   12.06    0.70
  14   5   1   11.53    0.74
  14   5   1   10.30    0.73
  14  -5  -1   11.49    0.43
  14  -5  -1   11.13    0.73
 -14  -5   1   12.37    0.96
  14   5   1   10.85    0.55
  14   5   1   10.75    0.64
  14  -5  -1   11.60    0.70
  14  -6   1   16.62    0.80
 -14   6   1   16.13    0.82
  14   6  -1   16.41    0.86
  14   6  -1   14.77    0.72
  14   6  -1   15.04    0.70
  14  -6   1   16.06    0.83
  14   6   1   15.93    0.75
  14   6   1   14.85    0.83
  14  -6  -1   15.85    0.80
  14   6   1   16.55    0.66
  14   6   1   17.33    0.89
  14   6   1   15.85    0.80
  14   7  -1    1.82    0.25
 -14   7   1    2.10    0.29
  14   7  -1    2.13    0.29
  14   7  -1    2.05    0.30
 -14   7  -1    1.85    0.32
  14   7   1    2.31    0.31
  14   7   1    1.80    0.26
  14   7   1    1.84    0.23
  14  -7  -1    1.95    0.29
  14   7   1    2.00    0.32
 -14   8   1    1.21    0.17
  14   8  -1    1.76    0.21
  14   8  -1    1.49    0.22
  14   8   1    1.20    0.21
  14  -8  -1    2.04    0.25
  14   8   1    1.17    0.16
  14   8   1    1.21    0.21
 -14   8  -1    1.56    0.23
 -14  -8   1    1.20    0.19
  14   0   2   64.24    2.29
  14   0   2   63.63    2.05
  14   0   2   64.47    2.00
  14   0  -2   65.67    2.17
  14   0   2   60.61    2.13
  14   0  -2   63.32    1.92
 -14   0   2   66.10    2.38
  14   0   2   61.19    2.27
 -14   0  -2   65.62    2.73
  14   0  -2   63.51    2.98
 -14   0   2   66.42    2.57
  14   0  -2   67.94    2.35
  14   0   2   64.03    1.83
  14   0   2   66.78    2.40
 -14   1   2   41.78    1.52
  14   1  -2   44.70    1.60
  14  -1   2   40.51    1.49
  14   1  -2   41.51    1.25
  14  -1   2   41.74    1.66
 -14   1   2   44.74    1.86
  14  -1   2   44.36    1.76
  14  -1   2   42.97    1.34
  14  -1   2   40.37    2.25
  14  -1   2   42.75    1.67
  14  -1   2   42.55    1.59
  14   1  -2   44.08    1.74
  14  -1   2   40.52    1.44
 -14  -1  -2   43.31    1.80
  14   1   2   41.04    1.30
  14   1   2   41.88    1.68
  14   1   2   41.83    1.58
 -14  -1   2   43.26    1.54
  14   1   2   42.16    1.51
  14  -1  -2   44.55    1.61
  14  -1  -2   42.01    1.37
 -14  -1   2   41.80    1.74
 -14  -1   2   44.48    1.90
  14   1   2   42.24    1.47
  14  -1  -2   40.83    2.29
 -14   1  -2   44.20    2.04
  14   1   2   44.03    1.69
  14  -1  -2   42.53    1.72
  14  -2   2   73.15    3.34
  14  -2   2   73.98    2.56
  14   2  -2   69.82    2.37
  14  -2   2   75.72    2.08
  14   2  -2   74.77    2.60
 -14   2   2   77.04    2.34
  14  -2   2   72.78    2.20
  14  -2   2   76.25    2.67
 -14   2   2   76.16    2.76
  14  -2   2   74.52    2.55
  14  -2   2   70.09    2.28
 -14  -2  -2   71.27    2.69
  14  -2   2   74.87    2.41
  14  -2  -2   71.17    2.41
  14   2   2   74.42    2.43
 -14  -2   2   74.70    2.68
 -14  -2   2   71.52    2.30
  14   2   2   73.81    2.01
  14  -2  -2   72.24    3.37
  14   2   2   75.02    2.31
  14   2   2   75.26    2.60
 -14   2  -2   79.19    3.03
  14  -2  -2   73.06    2.25
 -14  -2   2   74.41    2.85
  14  -2  -2   77.24    2.64
  14   2   2   77.33    2.59
  14   2   2   73.30    2.24
  14  -3   2   28.05    1.27
  14   3  -2   28.81    1.28
  14  -3   2   28.26    1.13
 -14  -3  -2   27.98    1.35
 -14   3   2   28.44    1.15
  14  -3   2   30.01    1.11
  14  -3   2   28.09    1.87
  14  -3   2   28.73    1.20
  14  -3   2   29.13    1.31
  14   3  -2   27.24    1.17
  14  -3   2   29.37    1.06
  14   3   2   28.31    1.20
 -14   3  -2   27.76    1.54
 -14  -3   2   27.16    1.43
  14  -3  -2   26.25    1.81
  14  -3  -2   26.92    1.28
 -14  -3   2   30.07    1.16
  14   3   2   30.13    1.32
  14   3   2   26.77    1.10
  14   3   2   29.39    1.30
  14   3   2   28.25    0.96
 -14  -3   2   29.09    1.35
  14  -3  -2   28.99    1.22
  14  -3  -2   27.31    1.02
  14  -4   2   21.05    1.65
  14   4  -2   22.56    1.11
  14  -4   2   22.80    0.92
 -14   4   2   23.71    1.10
  14  -4   2   24.66    1.13
  14  -4   2   23.54    0.98
 -14  -4  -2   22.40    1.19
  14   4  -2   21.81    1.01
 -14   4   2   24.03    1.01
  14   4  -2   21.98    0.92
  14  -4   2   24.08    1.05
  14   4   2   24.42    1.00
  14   4   2   22.54    0.81
  14  -4  -2   22.90    1.04
  14   4   2   23.23    1.11
  14  -4  -2   18.86    1.55
  14   4   2   23.56    1.13
  14   4   2   24.02    1.06
 -14   4  -2   21.51    1.29
  14  -4  -2   21.52    1.10
  14  -4  -2   22.21    0.87
 -14  -4   2   23.30    1.18
 -14  -4   2   22.12    1.28
 -14  -5  -2    5.59    0.82
 -14   5   2    5.85    0.53
  14  -5   2    5.64    0.58
  14  -5   2    4.79    0.51
 -14  -5  -2    5.53    0.58
  14  -5   2    5.79    0.52
  14   5  -2    4.35    0.49
  14   5  -2    5.15    0.43
 -14  -5   2    5.55    0.67
  14  -5  -2    4.97    0.50
  14   5   2    4.58    0.45
  14   5   2    5.14    0.34
  14   5   2    5.84    0.53
 -14   5  -2    4.27    0.60
  14  -5  -2    5.35    0.48
 -14  -5   2    4.68    0.57
  14   5   2    5.44    0.50
  14  -5  -2    4.93    0.36
  14   5   2    5.12    0.52
  14  -6   2    0.32    0.21
 -14   6   2    0.66    0.23
  14   6  -2    0.46    0.20
  14   6  -2    0.36    0.16
  14  -6  -2    0.38    0.18
  14   6   2    0.21    0.18
  14   6   2    0.48    0.22
  14   6   2    0.37    0.19
  14   6   2    0.17    0.13
  14  -6  -2    0.41    0.14
  14  -6  -2   -0.02    0.19
  14   6   2    0.35    0.22
 -14   7   2    3.97    0.33
  14   7  -2    4.63    0.39
  14   7   2    3.53    0.41
  14   7   2    3.82    0.38
  14  -7  -2    4.55    0.38
  14   7   2    4.27    0.28
 -14   7  -2    4.84    0.47
  14   7   2    3.34    0.37
  14   8  -2    1.53    0.22
  14   8  -2    1.86    0.24
 -14  -8   2    1.65    0.20
 -14   8  -2    1.51    0.24
  14  -8  -2    1.84    0.23
  14   8   2    1.27    0.20
  14   8   2    1.64    0.16
  14   8   2    1.51    0.21
 -14   0   3   11.14    0.67
  14   0  -3   10.45    0.67
  14   0  -3    9.52    1.22
  14   0   3   11.57    0.66
  14   0   3   12.48    0.75
  14   0  -3    9.84    0.56
  14   0   3   11.79    0.56
  14   0  -3   10.13    0.72
  14   0   3   11.98    0.70
  14   0   3   12.08    0.80
  14   0   3   12.49    0.78
  14   0   3   11.38    0.69
 -14   0   3   13.01    0.82
  14  -1   3   13.70    0.77
  14  -1   3   14.50    0.73
  14   1  -3   14.07    0.85
 -14   1   3   14.74    0.77
  14  -1   3   13.97    1.27
  14  -1   3   13.58    0.79
  14  -1   3   14.67    0.63
  14  -1   3   13.55    0.86
  14  -1   3   14.08    0.83
  14  -1   3   13.84    0.74
  14   1  -3   13.26    0.60
  14   1  -3   12.76    0.75
  14   1   3   13.65    0.59
 -14  -1   3   13.18    0.84
  14   1   3   13.98    0.83
  14   1   3   14.83    0.79
  14  -1  -3   10.99    1.21
  14   1   3   15.00    0.84
 -14  -1   3   15.00    0.91
  14  -1  -3   13.30    0.65
  14  -1  -3   13.09    0.76
  14   1   3   13.28    0.73
  14  -1  -3   13.17    0.84
 -14  -1   3   13.22    0.73
  14   1   3   14.24    0.73
 -14   2   3    0.30    0.21
  14   2  -3    0.29    0.23
  14  -2   3    0.59    0.49
  14  -2   3    0.65    0.23
  14  -2   3    0.39    0.17
  14  -2   3    0.35    0.23
  14  -2   3    0.26    0.19
  14   2  -3    0.15    0.20
  14  -2   3    0.22    0.19
  14   2  -3    0.37    0.13
 -14  -2  -3    0.23    0.25
 -14   2   3    0.52    0.27
  14  -2   3    0.62    0.28
  14  -2  -3    0.27    0.46
  14  -2  -3    0.16    0.20
  14   2   3    0.19    0.22
  14   2   3    0.56    0.25
 -14  -2   3    0.68    0.32
 -14   2  -3    0.47    0.35
  14   2   3    0.28    0.14
 -14  -2   3    0.68    0.27
 -14  -2   3    0.27    0.19
  14  -2  -3    0.13    0.20
  14  -2  -3    0.47    0.17
  14   2   3    1.31    0.29
  14   2   3    0.29    0.19
 -14   3   3   10.23    0.64
 -14  -3  -3   10.58    0.78
  14  -3   3   10.50    0.73
  14  -3   3   10.03    0.61
  14  -3   3    9.19    0.64
  14  -3   3   10.68    0.73
  14  -3   3   11.30    1.31
  14   3  -3   11.74    0.73
 -14   3   3   10.60    0.70
  14  -3   3   10.62    0.64
  14  -3   3    9.87    0.55
 -14   3  -3   11.38    0.98
  14  -3  -3   10.71    0.58
  14   3   3   10.99    0.73
  14   3   3   10.51    0.72
  14  -3  -3   10.44    0.66
 -14  -3   3   10.71    0.64
  14  -3  -3    9.62    1.21
  14   3   3   10.20    0.67
  14   3   3    9.60    0.48
 -14  -3   3    9.81    0.84
  14  -3  -3   11.09    0.74
 -14  -3   3   11.13    0.77
  14   3   3   10.74    0.64
  14  -4   3    9.36    0.69
 -14   4   3    9.57    0.65
  14  -4   3   10.48    0.62
 -14  -4  -3   11.74    0.81
  14  -4   3   10.75    0.61
 -14   4   3    9.71    0.62
  14   4  -3   10.14    0.70
 -14   4  -3   10.95    0.96
  14   4   3   10.07    0.71
 -14  -4   3    8.84    0.72
 -14  -4   3    8.21    0.80
  14   4   3   10.20    0.67
  14  -4  -3   10.82    0.57
  14   4   3   10.25    0.71
  14  -4  -3   11.30    0.67
  14   4   3    9.98    0.62
  14   4   3    9.63    0.47
  14  -4  -3   11.17    0.71
  14  -5   3   20.76    1.03
 -14  -5  -3   21.35    1.12
  14  -5   3   21.11    0.90
  14   5  -3   21.54    0.93
 -14   5   3   20.83    0.92
  14  -5   3   21.60    0.86
  14  -5  -3   19.98    1.00
  14   5   3   21.72    0.97
 -14   5  -3   19.38    1.20
  14   5   3   20.33    1.02
 -14  -5   3   21.15    1.09
  14  -5  -3   21.34    0.85
  14  -5  -3   21.29    0.95
  14   5   3   21.17    0.71
  14   5   3   20.96    1.03
  14   5   3   20.02    0.89
  14  -6   3    8.99    0.54
  14   6  -3    8.61    0.54
  14  -6   3    9.18    0.62
 -14   6   3    9.15    0.50
  14   6   3    8.79    0.39
  14   6   3    8.94    0.58
  14  -6  -3    9.08    0.60
  14  -6  -3    8.54    0.55
  14  -6  -3    9.04    0.46
  14   6   3    8.70    0.62
  14   6   3    9.38    0.55
  14   6   3    8.25    0.62
  14   7  -3    4.79    0.39
  14   7   3    5.00    0.38
  14  -7  -3    5.36    0.39
  14  -7  -3    5.79    0.27
  14   7   3    5.95    0.44
 -14  -7   3    5.07    0.36
  14   7   3    6.21    0.47
  14   7   3    5.23    0.26
  14  -7  -3    5.48    0.48
 -14  -7   3    5.40    0.48
  14   8  -3    1.98    0.24
  14  -8  -3    1.91    0.23
  14   8   3    2.48    0.24
  14   8   3    2.63    0.28
 -14  -8   3    2.56    0.29
 -14   8  -3    1.94    0.27
  14   0   4    5.23    0.52
 -14   0   4    4.19    0.45
  14   0   4    4.76    0.34
 -14   0   4    4.78    0.52
  14   0  -4    6.27    0.96
  14   0   4    4.93    0.48
  14   0   4    5.41    0.62
  14   0   4    4.11    0.44
  14   0   4    4.31    0.47
  14  -1   4   19.88    0.73
  14   1  -4   18.24    0.99
  14  -1   4   18.94    1.02
  14   1  -4   17.51    0.79
  14  -1   4   18.14    0.86
  14  -1   4   18.51    0.88
  14  -1   4   19.59    0.92
 -14   1   4   18.18    0.88
 -14   1   4   18.71    0.93
  14  -1   4   19.02    1.00
  14   1   4   18.04    0.90
  14   1   4   19.65    0.89
  14   1   4   19.43    1.04
  14   1   4   20.11    0.98
  14  -1  -4   17.10    0.96
  14  -1  -4   15.43    1.40
  14   1   4   18.63    0.86
  14  -1  -4   17.52    0.89
  14   1   4   19.13    0.68
 -14  -1   4   18.86    1.00
  14   1   4   19.35    1.00
 -14  -1   4   18.08    0.87
 -14  -1   4   19.26    0.98
  14  -1  -4   17.02    0.82
 -14  -2  -4   23.61    1.21
 -14   2   4   22.47    0.98
  14  -2   4   21.55    0.82
  14  -2   4   21.93    1.12
  14   2  -4   23.64    1.10
  14  -2   4   22.79    0.96
  14  -2   4   20.57    0.96
 -14   2   4   21.70    1.00
  14  -2   4   20.77    1.64
  14  -2   4   21.55    1.08
  14   2  -4   21.38    0.84
  14  -2  -4   22.32    0.93
 -14  -2   4   23.17    0.99
  14   2   4   22.86    1.02
  14   2   4   22.94    1.12
 -14  -2   4   22.31    1.12
  14   2   4   22.30    0.74
 -14  -2   4   23.21    1.07
  14  -2  -4   20.61    1.60
  14   2   4   21.75    1.07
  14  -2  -4   23.50    1.11
  14  -2  -4   23.25    1.02
  14   2   4   23.48    0.98
  14   3  -4   19.35    0.98
 -14  -3  -4   20.06    1.09
  14  -3   4   20.22    0.89
  14  -3   4   18.67    1.00
  14  -3   4   20.16    0.78
  14  -3   4   18.72    0.89
 -14   3   4   19.41    0.91
 -14   3   4   20.65    0.91
  14   3  -4   18.80    0.71
  14  -3   4   19.42    1.03
 -14   3  -4   18.68    1.31
  14  -3  -4   18.58    0.85
  14   3   4   20.21    1.01
 -14  -3   4   20.56    1.00
  14   3   4   19.42    0.94
  14   3   4   20.01    0.67
  14   3   4   19.60    0.89
 -14  -3   4   19.20    1.03
 -14  -3   4   19.90    0.89
  14   3   4   18.99    1.00
  14  -3  -4   20.01    0.93
  14  -4   4    3.76    0.48
 -14   4   4    3.82    0.41
  14   4  -4    3.82    0.43
 -14  -4  -4    4.63    0.57
  14  -4   4    4.66    0.46
  14  -4   4    3.51    0.48
 -14   4   4    4.34    0.43
  14  -4   4    3.76    0.35
  14  -4   4    3.24    0.37
 -14  -4   4    3.76    0.46
  14   4   4    3.64    0.40
  14  -4  -4    4.39    0.50
  14  -4  -4    4.00    0.46
  14  -4  -4    4.18    0.42
  14   4   4    3.68    0.25
 -14  -4   4    3.72    0.40
  14   4   4    3.48    0.42
 -14   4  -4    4.31    0.71
  14   4   4    3.92    0.51
  14   4   4    3.83    0.48
 -14  -4   4    3.13    0.45
  14   5  -4    1.03    0.26
  14  -5   4    0.84    0.19
  14  -5   4    1.28    0.30
 -14   5   4    1.19    0.23
  14  -5   4    1.17    0.24
  14  -5   4    1.51    0.28
 -14  -5   4    1.54    0.33
  14   5   4    1.28    0.32
  14  -5  -4    1.15    0.26
  14   5   4    1.22    0.28
  14  -5  -4    0.91    0.22
  14   5   4    0.99    0.25
  14  -5  -4    1.23    0.29
  14   5   4    1.25    0.15
  14   5   4    1.07    0.25
  14   6  -4    2.50    0.32
  14  -6   4    2.51    0.39
  14  -6   4    2.58    0.29
  14  -6   4    2.83    0.32
 -14   6   4    2.88    0.22
  14  -6   4    2.57    0.28
  14   6   4    2.36    0.32
  14  -6  -4    2.12    0.29
  14   6   4    2.30    0.37
  14   6   4    2.62    0.17
  14   6   4    2.25    0.35
  14   6   4    2.20    0.29
 -14  -6   4    2.55    0.35
  14  -6  -4    2.46    0.33
  14  -6  -4    2.67    0.29
  14  -7   4    5.48    0.34
  14  -7   4    4.97    0.34
  14   7  -4    5.29    0.38
  14  -7  -4    5.57    0.39
  14   7   4    5.56    0.39
  14   7   4    5.28    0.36
 -14  -7   4    5.50    0.41
  14  -7  -4    5.60    0.29
  14   8   4   11.24    0.49
  14  -8  -4   10.70    0.46
 -14  -8   4   10.41    0.47
  14   0   5   36.26    1.34
  14   0  -5   36.07    1.33
  14   0   5   36.68    1.52
 -14   0   5   35.81    1.34
 -14   0   5   36.62    1.37
  14   0   5   35.13    1.05
  14   0   5   36.62    1.38
  14   0   5   36.74    1.59
  14   0   5   34.63    1.30
  14   0  -5   37.78    1.50
  14  -1   5    6.73    0.53
  14   1  -5    7.52    0.62
  14  -1   5    6.87    0.39
  14   1  -5    6.83    0.49
  14  -1   5    6.95    0.63
 -14   1   5    6.83    0.53
  14  -1   5    7.89    0.64
  14  -1   5    7.66    0.56
 -14   1   5    8.05    0.55
  14  -1  -5    6.40    0.50
  14   1   5    7.80    0.36
  14   1   5    7.41    0.66
  14  -1  -5    7.06    0.60
  14   1   5    7.55    0.62
  14   1   5    7.78    0.56
  14  -1  -5    7.77    0.55
 -14  -1   5    7.47    0.54
  14   1   5    6.77    0.53
  14   1   5    6.95    0.53
 -14  -1   5    6.92    0.55
  14   2  -5    4.64    0.38
 -14   2   5    5.03    0.42
  14   2  -5    5.94    0.53
  14  -2   5    5.23    0.52
  14  -2   5    5.31    0.54
 -14   2   5    5.55    0.47
 -14  -2  -5    5.29    0.60
  14  -2   5    5.42    0.36
  14  -2   5    5.08    0.50
  14  -2   5    5.14    0.45
  14  -2  -5    5.05    0.43
  14   2   5    4.30    0.45
  14   2   5    5.74    0.50
 -14  -2   5    4.39    0.44
  14  -2  -5    5.57    0.53
  14  -2  -5    5.70    0.48
  14   2   5    4.75    0.57
  14   2   5    5.30    0.28
 -14  -2   5    5.22    0.57
  14   2   5    5.59    0.49
 -14  -2   5    5.29    0.54
 -14  -3  -5    7.58    0.69
  14  -3   5    7.65    0.57
 -14   3   5    9.12    0.57
  14  -3   5    8.52    0.56
  14   3  -5    6.90    0.58
  14  -3   5    9.11    0.67
  14  -3   5    8.40    0.46
  14   3  -5    6.77    0.43
 -14   3   5    8.69    0.51
  14  -3   5    8.90    0.65
  14  -3  -5    8.22    0.57
  14  -3  -5    8.74    0.63
  14   3   5    8.60    0.62
 -14  -3   5    7.88    0.58
  14   3   5    8.32    0.64
 -14  -3   5    7.51    0.53
  14   3   5    8.35    0.32
  14   3   5    8.67    0.57
  14   3   5    8.20    0.58
 -14   3  -5    8.20    0.97
 -14  -3   5    8.38    0.67
  14  -3  -5    6.99    0.52
  14  -4   5   10.77    0.62
  14   4  -5   11.47    0.63
  14  -4   5   10.64    0.71
  14  -4   5   10.26    0.59
  14  -4   5   11.18    0.52
 -14   4   5   10.03    0.50
  14   4   5   10.46    0.33
  14   4   5   10.23    0.63
  14   4   5    9.34    0.67
 -14  -4   5   10.09    0.62
 -14  -4   5    9.86    0.58
  14   4   5    9.48    0.59
  14  -4  -5   10.47    0.67
  14  -4  -5   10.75    0.62
  14   4   5    9.61    0.68
  14  -4  -5   12.03    0.62
  14  -5   5   12.75    0.63
  14  -5   5   12.25    0.74
  14  -5   5   13.19    0.56
  14  -5   5   12.42    0.63
  14   5  -5   12.77    0.65
  14  -5  -5   11.94    0.61
  14   5   5   13.24    0.68
  14  -5  -5   11.72    0.69
 -14  -5   5   12.47    0.64
  14   5   5   11.67    0.71
  14   5   5   12.59    0.63
  14   5   5   12.36    0.73
  14  -5  -5   12.49    0.65
  14   6  -5    6.87    0.45
  14  -6   5    6.81    0.38
  14  -6   5    6.26    0.43
  14  -6   5    6.93    0.42
  14  -6  -5    7.01    0.40
  14   6   5    6.49    0.49
  14  -6  -5    7.08    0.48
  14   6   5    6.98    0.48
  14   6   5    6.91    0.43
  14  -6  -5    6.64    0.43
 -14  -6   5    7.32    0.44
  14  -7   5    1.01    0.17
  14  -7   5    0.72    0.14
  14   7  -5    1.20    0.19
 -14  -7   5    1.14    0.19
  14   7   5    1.06    0.18
  14  -7  -5    1.05    0.14
  14  -7  -5    1.19    0.20
  14   7   5    1.14    0.21
 -14   0   6   31.61    1.13
  14   0   6   30.85    1.41
  14   0   6   30.55    0.84
  14   0  -6   29.82    1.18
 -14   0   6   31.68    1.19
  14   0   6   30.95    1.18
  14   0  -6   28.88    1.26
  14   0   6   29.83    1.15
  14   0   6   31.34    1.33
  14  -1   6   26.70    1.21
 -14   1   6   27.13    1.08
  14  -1   6   26.00    1.25
  14  -1   6   25.32    1.07
  14  -1   6   25.55    1.06
  14  -1   6   27.05    0.81
  14   1  -6   26.26    1.06
 -14   1   6   27.61    1.01
  14   1   6   25.57    1.27
  14   1   6   27.91    1.23
  14   1   6   26.47    1.06
  14  -1  -6   27.17    1.08
 -14  -1   6   26.86    1.04
  14   1   6   27.86    0.71
  14   1   6   25.93    1.06
 -14  -1   6   26.13    1.07
  14  -1  -6   27.84    1.20
  14  -2   6   12.53    0.49
 -14   2   6   11.42    0.65
  14  -2   6   11.76    0.78
  14  -2   6   11.47    0.74
  14   2  -6   11.39    0.59
  14  -2   6   11.88    0.68
 -14   2   6   11.25    0.55
  14  -2   6   11.70    0.66
 -14  -2  -6   10.55    0.79
 -14  -2   6   11.37    0.64
 -14  -2   6   11.54    0.61
  14  -2  -6   11.48    0.65
  14   2   6   12.05    0.67
  14  -2  -6   12.30    0.74
  14   2   6   12.29    0.67
  14   2   6   11.58    0.74
  14  -3   6    3.54    0.30
  14  -3   6    3.40    0.39
  14   3  -6    4.10    0.34
 -14   3   6    3.34    0.37
  14  -3   6    3.37    0.41
  14   3  -6    4.75    0.45
 -14   3   6    3.47    0.25
  14  -3   6    4.13    0.50
  14  -3  -6    4.77    0.42
  14  -3  -6    4.54    0.41
 -14  -3   6    3.73    0.37
  14   3   6    4.49    0.45
  14  -3  -6    4.01    0.45
  14   3   6    3.35    0.39
 -14  -3   6    3.06    0.35
  14   3   6    3.87    0.45
  14  -4   6    2.13    0.30
  14  -4   6    1.44    0.20
  14   4  -6    1.68    0.28
  14   4  -6    1.49    0.18
  14  -4   6    1.86    0.33
  14  -4   6    1.72    0.29
 -14  -4   6    1.64    0.24
  14  -4  -6    1.66    0.31
 -14  -4   6    1.65    0.25
  14   4   6    1.48    0.27
  14  -4  -6    1.45    0.27
  14   4   6    1.25    0.29
  14   4   6    1.75    0.31
  14  -4  -6    1.71    0.27
  14   4   6    1.77    0.28
  14   5  -6    1.05    0.22
  14  -5   6    0.96    0.21
  14  -5   6    0.77    0.15
  14  -5   6    1.03    0.22
 -14  -5   6    0.96    0.19
  14  -5  -6    1.02    0.21
  14  -5  -6    1.17    0.25
  14  -5  -6    1.03    0.21
  14   5   6    1.11    0.24
  14   5   6    1.22    0.23
  14   5   6    1.17    0.23
  14  -6   6    0.91    0.18
  14  -6   6    0.74    0.18
  14  -6   6    0.64    0.14
  14   6  -6    0.84    0.19
  14  -6  -6    0.83    0.18
  14   6   6    0.66    0.18
 -14  -6   6    0.77    0.16
  14  -6  -6    0.90    0.17
  14   6   6    1.13    0.19
  14  -7   6    3.26    0.22
  14  -7  -6    4.09    0.20
  14   7   6    3.62    0.28
  14   0   7    0.78    0.23
  14   0   7    0.71    0.27
 -14   0   7    0.61    0.14
  14   0   7    0.75    0.23
  14   0  -7    0.68    0.22
 -14   0   7    0.31    0.19
 -14   1   7    2.97    0.35
  14  -1   7    3.51    0.41
  14   1  -7    3.82    0.40
  14  -1   7    3.50    0.44
  14  -1   7    3.50    0.40
  14  -1  -7    3.86    0.42
 -14  -1   7    3.12    0.36
 -14  -1   7    3.51    0.28
  14   1   7    3.26    0.44
  14  -1  -7    4.12    0.41
  14   1   7    4.18    0.44
  14   2  -7    3.14    0.35
  14  -2   7    3.06    0.35
  14   2  -7    3.00    0.32
  14  -2   7    2.66    0.19
  14  -2   7    3.02    0.41
 -14   2   7    2.87    0.32
  14  -2   7    3.03    0.37
  14   2   7    3.28    0.42
  14  -2  -7    3.19    0.36
 -14  -2   7    3.48    0.27
  14   2   7    2.63    0.33
  14  -2  -7    3.49    0.41
 -14  -2   7    2.15    0.30
  14   3  -7    1.82    0.28
  14   3  -7    2.35    0.27
  14  -3   7    1.75    0.18
  14  -3   7    2.66    0.34
 -14   3   7    1.86    0.27
  14  -3   7    1.92    0.30
  14   3   7    1.87    0.29
 -14  -3   7    1.94    0.21
  14  -3  -7    1.93    0.28
 -14  -3   7    2.26    0.28
  14   3   7    2.29    0.29
  14  -3  -7    2.09    0.34
  14  -4   7   27.68    0.99
  14   4  -7   26.82    0.98
  14  -4   7   27.48    1.01
  14   4  -7   27.27    0.86
  14  -4   7   27.95    0.79
 -14  -4   7   27.75    0.84
 -14  -4   7   27.03    0.95
  14  -4  -7   26.18    1.09
  14   4   7   27.31    0.95
  14   4   7   27.17    1.01
  14  -4  -7   27.35    1.00
  14  -5   7    8.38    0.45
  14  -5   7    8.06    0.34
  14   5  -7    8.77    0.46
  14  -5   7    8.82    0.46
  14  -5  -7    8.29    0.43
  14   5   7    7.87    0.41
  14   5   7    7.81    0.45
  14  -5  -7    8.03    0.43
  14  -6   7    1.56    0.14
  14  -6   7    1.69    0.20
  14   6  -7    1.73    0.21
  14  -6  -7    1.78    0.18
  14   0  -8   32.72    1.14
  14   0   8   30.13    1.07
 -14   0   8   29.76    1.07
  14   0   8   28.81    1.05
  14  -1   8    9.27    0.55
  14  -1   8    9.73    0.53
 -14   1   8    9.61    0.52
  14   1  -8    9.18    0.51
  14   1  -8    9.29    0.52
  14  -1  -8    9.38    0.54
  14   1   8   10.14    0.53
 -14  -1   8    9.39    0.51
  14  -2   8    3.74    0.37
  14   2  -8    3.38    0.34
 -14   2   8    3.64    0.33
  14  -2   8    2.92    0.34
  14   2  -8    3.87    0.31
  14  -2  -8    4.16    0.35
 -14  -2   8    3.15    0.32
  14   2   8    3.89    0.35
  14   3  -8    2.30    0.24
  14  -3   8    2.32    0.29
  14   3  -8    1.89    0.26
  14  -3   8    3.32    0.32
  14   3   8    2.77    0.28
 -14  -3   8    2.23    0.26
  14  -3  -8    1.93    0.26
  14   4  -8    1.58    0.21
  14  -4   8    1.81    0.24
  14  -4   8    2.00    0.25
 -14  -4   8    1.65    0.20
  14  -4  -8    1.42    0.21
  14  -5   8    1.44    0.19
  14  -5   8    1.81    0.21
  14   5  -8    1.35    0.19
  14  -5  -8    1.37    0.17
  14   0  -9   16.10    0.63
 -14   0   9   13.66    0.59
  14   0   9   14.26    0.58
  14   1  -9    0.67    0.17
  14  -1   9    1.06    0.19
  14   1  -9    0.74    0.16
 -14   1   9    0.48    0.15
  14  -1   9    0.91    0.19
 -14  -1   9    0.42    0.14
  14   1   9    0.86    0.18
  14  -1  -9    0.79    0.19
  14   2  -9    0.16    0.11
  14   2  -9    0.15    0.14
  14  -2   9    0.17    0.14
 -14   2   9    0.18    0.12
  14  -2   9    0.09    0.12
  14  -2  -9    0.15    0.13
 -14  -2   9    0.03    0.10
  14  -3   9    2.30    0.24
  14  -3   9    1.59    0.20
  14   3  -9    1.60    0.16
  14   3  -9    1.85    0.21
 -14  -3   9    1.49    0.19
  14  -3  -9    1.36    0.19
 -15   0   0    0.17    0.29
  15   0   0    0.29    0.22
  15   0   0   -0.08    0.17
  15   0   0   -0.15    0.18
  15   0   0   -0.23    0.17
  15   0   0   -0.12    0.18
 -15   0   0    0.43    0.23
  15   1   0    4.90    0.45
  15   1   0    4.44    0.54
  15  -1   0    5.15    0.54
  15   1   0    3.75    0.43
 -15  -1   0    4.77    0.68
 -15   1   0    4.96    0.56
  15  -1   0    5.08    0.52
  15   1   0    5.47    0.48
  15  -1   0    6.19    1.00
 -15  -1   0    4.45    0.53
  15  -1   0    3.60    0.49
 -15   1   0    5.16    0.70
  15   1   0    5.15    0.50
  15   2   0    9.16    0.67
  15   2   0    8.15    0.61
  15  -2   0    7.73    0.58
 -15  -2   0    8.79    0.60
 -15   2   0    8.40    0.75
  15  -2   0    7.83    0.60
  15   2   0    8.50    0.60
  15  -2   0    8.30    0.63
  15   2   0    8.25    0.54
  15  -2   0    8.22    1.14
  15   2   0    8.08    0.51
 -15  -2   0    7.08    0.86
 -15  -2   0    8.69    0.69
  15   3   0    1.05    0.26
 -15  -3   0    1.67    0.50
  15   3   0    1.35    0.32
  15   3   0    1.46    0.30
  15  -3   0    1.38    0.30
  15  -3   0    1.49    0.63
 -15   3   0    1.53    0.42
  15   3   0    1.24    0.27
  15  -3   0    1.87    0.35
 -15  -3   0    1.21    0.36
  15   3   0    1.20    0.31
  15  -3   0    1.38    0.31
  15   4   0    1.97    0.36
  15   4   0    2.22    0.37
 -15   4   0    2.05    0.44
  15  -4   0    1.63    0.33
  15  -4   0    2.16    0.36
 -15  -4   0    1.46    0.48
  15   4   0    2.56    0.34
  15   4   0    2.09    0.32
  15   4   0    2.15    0.36
 -15  -4   0    1.65    0.36
  15  -4   0    1.90    0.32
  15  -5   0    2.01    0.34
  15   5   0    2.61    0.36
  15   5   0    2.06    0.36
  15   5   0    2.78    0.33
  15   5   0    3.00    0.34
 -15   6   0   17.04    0.84
  15   6   0   17.36    0.79
  15   6   0   17.32    0.74
  15  -6   0   17.21    0.79
  15   6   0   17.13    0.87
  15   6   0   16.96    0.67
  15   7   0   22.88    0.80
  15  -7   0   21.26    0.82
  15   7   0   21.22    0.73
 -15   7   0   20.77    0.85
 -15   8   0    0.43    0.12
  15   8   0    0.50    0.12
 -15  -8   0    0.35    0.13
 -15   0   1    0.17    0.18
  15   0   1   -0.03    0.15
  15   0   1   -0.15    0.17
  15   0   1    0.12    0.19
  15   0   1   -0.09    0.15
  15   0  -1   -0.15    0.18
 -15   0  -1    0.13    0.30
 -15   0   1    0.27    0.23
  15   0   1    0.01    0.16
 -15   0   1    0.14    0.23
  15   0  -1    0.13    0.18
 -15   0  -1   -0.14    0.21
  15   0   1    0.25    0.19
  15   1  -1    3.80    0.46
 -15  -1  -1    3.39    0.49
  15  -1   1    3.23    0.78
  15  -1   1    3.22    0.39
  15  -1   1    3.25    0.47
  15  -1   1    2.65    0.39
  15  -1   1    3.18    0.37
  15  -1   1    3.49    0.44
  15   1  -1    3.53    0.48
 -15   1   1    3.29    0.54
 -15  -1  -1    3.94    0.70
  15  -1   1    2.69    0.41
  15   1   1    3.06    0.40
 -15  -1   1    1.81    0.37
 -15  -1   1    3.78    0.45
  15   1   1    2.38    0.40
  15   1   1    2.64    0.32
  15  -1  -1    2.42    0.37
  15  -1  -1    3.69    0.85
  15   1   1    2.50    0.37
 -15  -1   1    2.74    0.57
 -15   1  -1    3.54    0.65
 -15   1  -1    3.95    0.53
  15   1   1    2.59    0.39
  15  -1  -1    3.37    0.46
  15   1   1    2.64    0.38
  15   2  -1    2.66    0.41
  15  -2   1    4.61    0.88
  15  -2   1    4.11    0.47
  15  -2   1    3.90    0.50
  15  -2   1    4.06    0.47
  15  -2   1    4.02    0.41
  15   2  -1    2.24    0.38
 -15   2   1    3.18    0.50
 -15  -2  -1    2.40    0.57
  15  -2   1    3.93    0.49
 -15  -2  -1    3.23    0.50
 -15  -2   1    3.97    0.63
 -15   2  -1    2.56    0.43
  15  -2  -1    1.88    0.33
  15   2   1    2.94    0.40
 -15   2  -1    1.88    0.52
 -15  -2   1    3.57    0.42
  15   2   1    2.85    0.41
  15   2   1    3.56    0.36
  15   2   1    4.17    0.43
  15   2   1    5.03    0.54
  15  -2  -1    2.20    0.72
 -15  -2   1    3.34    0.47
  15  -2  -1    2.26    0.39
  15  -3   1    0.20    0.19
  15  -3   1    0.11    0.18
 -15  -3  -1    0.37    0.26
  15  -3   1    0.14    0.19
  15  -3   1    0.37    0.24
  15   3  -1    0.46    0.22
  15   3  -1    0.87    0.27
  15   3  -1    0.57    0.21
 -15  -3  -1    0.23    0.42
  15   3  -1    0.51    0.21
 -15   3   1    0.41    0.27
  15   3   1    0.29    0.20
 -15  -3   1    0.14    0.19
  15   3   1    0.20    0.16
 -15  -3   1    0.22    0.32
  15  -3  -1    0.71    0.25
  15   3   1    0.23    0.21
  15  -3  -1    0.44    0.23
 -15  -3   1    0.45    0.26
  15   3   1    0.05    0.17
 -15   3  -1    0.36    0.37
  15   3   1    0.25    0.22
  15   4  -1    8.67    0.54
  15  -4   1    9.57    0.65
 -15  -4  -1    9.48    1.01
  15   4  -1    8.87    0.67
  15   4  -1    9.28    0.61
 -15   4   1    9.67    0.61
  15  -4   1    9.38    0.61
 -15  -4  -1    8.85    0.70
  15   4  -1    8.67    0.54
  15  -4   1    9.19    0.62
  15   4   1    9.27    0.50
 -15  -4   1    8.87    0.69
 -15  -4   1    8.28    0.80
  15   4   1   10.11    0.64
  15  -4  -1    9.97    0.64
  15  -4  -1    9.71    0.67
  15   4   1    9.45    0.57
 -15   4  -1    8.30    0.76
  15   4   1    9.68    0.68
  15   4   1   10.54    0.68
  15  -5   1   10.94    0.63
  15  -5   1   11.10    0.65
 -15   5   1   11.34    0.62
  15   5  -1   10.96    0.57
  15   5  -1    9.97    0.68
  15   5  -1    9.76    0.55
  15   5  -1   10.12    0.62
 -15   5   1   11.61    0.72
  15  -5   1   11.33    0.69
  15  -5  -1    9.82    0.62
  15   5   1   11.95    0.62
  15   5   1   11.19    0.70
  15   5   1   11.31    0.66
  15   5   1   11.67    0.53
  15  -5  -1   10.52    0.69
  15   5   1   11.08    0.71
  15   6  -1    0.26    0.21
 -15   6   1    0.36    0.20
  15  -6   1    0.23    0.17
  15   6  -1    0.18    0.14
  15   6  -1    0.06    0.14
  15   6   1    0.32    0.20
  15   6   1    0.40    0.18
  15   6   1    0.13    0.11
  15  -6  -1    0.20    0.16
  15   6   1    0.26    0.15
  15   7  -1    4.06    0.32
  15   7  -1    4.66    0.33
 -15   7   1    5.00    0.35
  15   7   1    5.28    0.30
  15   7   1    5.24    0.36
  15   7   1    5.54    0.39
  15  -7  -1    4.62    0.35
 -15   7  -1    4.44    0.41
 -15  -8  -1    7.01    0.36
 -15   8  -1    7.19    0.35
 -15  -8   1    6.93    0.33
  15   8   1    6.63    0.28
  15   0   2    0.07    0.14
  15   0   2    0.24    0.21
 -15   0   2    0.26    0.29
  15   0   2    0.54    0.24
  15   0  -2   -0.07    0.17
  15   0  -2    0.18    0.23
  15   0   2    0.18    0.20
 -15   0   2    0.49    0.26
 -15   0   2   -0.08    0.19
  15   0   2    0.17    0.21
 -15   0  -2    0.25    0.42
 -15   0  -2    0.36    0.26
  15   0   2    0.17    0.17
  15   1  -2    4.55    0.55
 -15  -1  -2    3.61    0.50
  15   1  -2    4.14    0.46
  15  -1   2    4.41    0.39
 -15  -1  -2    4.13    0.69
  15  -1   2    4.74    0.47
 -15   1   2    4.36    0.56
  15  -1   2    4.19    0.47
  15  -1   2    4.41    0.44
  15  -1   2    4.83    0.50
  15  -1   2    4.82    0.56
 -15   1   2    4.58    0.48
 -15   1  -2    3.50    0.64
 -15  -1   2    4.05    0.49
  15   1   2    3.78    0.45
  15   1   2    4.20    0.49
  15   1   2    3.97    0.42
  15   1   2    4.22    0.34
 -15   1  -2    3.43    0.50
  15   1   2    4.02    0.45
 -15  -1   2    4.59    0.48
  15   1   2    3.31    0.45
  15  -1  -2    3.34    0.76
 -15  -1   2    4.29    0.59
  15  -1  -2    3.80    0.48
  15  -1  -2    3.73    0.44
  15  -2   2   25.26    1.16
 -15  -2  -2   25.67    1.53
  15   2  -2   26.41    1.12
 -15   2   2   25.65    1.09
  15  -2   2   26.99    1.19
 -15  -2  -2   27.11    1.30
  15  -2   2   25.31    1.06
  15  -2   2   25.36    0.95
  15   2  -2   25.85    1.20
  15  -2   2   26.73    1.02
  15  -2   2   24.67    1.78
  15  -2   2   24.89    1.10
  15   2   2   25.94    0.90
 -15  -2   2   25.41    1.06
  15   2   2   24.70    1.10
  15  -2  -2   26.95    1.23
  15  -2  -2   25.75    0.81
  15   2   2   26.04    1.04
 -15  -2   2   24.65    1.31
  15   2   2   25.31    1.06
  15  -2  -2   23.46    1.71
  15  -2  -2   25.15    1.12
  15   2   2   25.49    1.19
 -15   2  -2   24.78    1.45
 -15  -2   2   26.17    1.26
  15   2   2   25.24    1.19
  15  -3   2    7.40    0.55
  15  -3   2    6.64    0.58
  15   3  -2    8.54    0.58
 -15  -3  -2    9.75    0.73
  15   3  -2    9.10    0.65
  15  -3   2    6.31    0.54
  15  -3   2    6.39    0.50
 -15  -3  -2    8.48    0.92
 -15   3   2    7.57    0.66
 -15   3   2    7.25    0.55
  15  -3   2    7.80    0.49
  15  -3  -2    9.88    0.68
  15   3   2    7.52    0.58
 -15   3  -2    9.27    0.87
 -15  -3   2    7.68    0.65
  15   3   2    7.46    0.60
  15   3   2    8.17    0.54
  15  -3  -2    9.42    0.37
  15   3   2    7.27    0.43
  15   3   2    7.72    0.61
  15  -3  -2    7.94    0.58
 -15  -3   2    7.70    0.55
 -15  -3   2    7.36    0.76
 -15  -4  -2    2.30    0.61
  15   4  -2    1.47    0.33
  15  -4   2    1.26    0.26
 -15   4   2    1.25    0.26
 -15  -4  -2    1.49    0.38
  15  -4   2    1.29    0.28
  15   4  -2    1.76    0.31
  15  -4   2    1.92    0.31
 -15   4   2    1.24    0.32
  15  -4   2    1.82    0.35
 -15  -4   2    1.42    0.35
  15  -4  -2    1.65    0.34
  15  -4  -2    1.63    0.30
 -15  -4   2    1.17    0.44
  15   4   2    1.59    0.31
  15   4   2    1.96    0.36
  15   4   2    1.76    0.35
 -15   4  -2    1.21    0.41
  15   4   2    1.59    0.30
  15   4   2    1.49    0.22
  15  -5   2    1.99    0.31
 -15   5   2    2.26    0.35
  15   5  -2    1.69    0.27
  15  -5   2    2.24    0.32
  15   5  -2    1.73    0.32
  15  -5   2    1.77    0.32
  15   5   2    1.94    0.32
  15   5   2    2.14    0.36
  15  -5  -2    1.25    0.28
  15   5   2    1.91    0.30
  15   5   2    2.22    0.25
  15  -5  -2    1.84    0.33
  15   5   2    2.69    0.39
 -15   6   2   12.40    0.60
  15   6  -2   12.35    0.57
  15   6   2   12.25    0.65
  15  -6  -2   12.70    0.65
  15  -6  -2   11.65    0.69
  15   6   2   12.28    0.73
  15   6   2   12.88    0.49
  15   6   2   12.34    0.60
  15   7  -2    7.26    0.42
 -15   7   2    7.82    0.37
  15   7   2    8.27    0.34
  15  -7  -2    7.76    0.45
  15   7   2    7.84    0.46
  15   7   2    7.80    0.43
 -15  -7   2    7.71    0.40
 -15   7  -2    7.27    0.48
 -15   8  -2   13.47    0.56
  15   0  -3    0.02    0.19
 -15   0   3    0.00    0.18
 -15   0  -3   -0.15    0.23
  15   0   3    0.13    0.19
  15   0   3    0.12    0.19
  15   0   3    0.02    0.18
  15   0  -3    0.03    0.11
  15   0   3    0.08    0.19
  15   0  -3    0.20    0.18
  15   0   3   -0.09    0.15
  15   0   3   -0.06    0.12
  15   1  -3    6.08    0.51
  15  -1   3    7.11    0.43
 -15  -1  -3    6.41    0.62
 -15   1   3    6.06    0.51
  15  -1   3    6.60    0.58
  15  -1   3    7.28    0.53
  15  -1   3    7.18    0.54
  15  -1   3    6.69    0.49
  15  -1   3    6.52    0.59
  15   1  -3    6.43    0.58
 -15   1   3    6.27    0.64
  15  -1  -3    6.10    0.51
  15  -1  -3    5.65    0.54
 -15  -1   3    6.64    0.61
  15   1   3    6.42    0.53
 -15   1  -3    6.45    0.82
 -15  -1   3    5.57    0.48
  15   1   3    6.54    0.53
  15   1   3    6.97    0.59
  15  -1  -3    4.55    0.86
  15   1   3    6.26    0.55
  15  -1  -3    6.37    0.38
  15   1   3    6.15    0.49
  15   1   3    7.52    0.41
  15   2  -3    2.10    0.36
  15  -2   3    2.70    0.31
  15  -2   3    2.77    0.39
 -15   2   3    2.81    0.42
 -15  -2  -3    1.99    0.40
  15  -2   3    3.16    0.45
 -15   2   3    2.93    0.38
  15  -2   3    2.27    0.37
  15  -2   3    2.98    0.37
  15   2  -3    1.49    0.32
  15  -2   3    2.27    0.36
 -15  -2   3    2.90    0.38
  15   2   3    2.14    0.35
  15   2   3    3.57    0.49
 -15   2  -3    2.56    0.58
  15  -2  -3    1.83    0.35
  15  -2  -3    1.70    0.24
  15   2   3    2.14    0.25
  15  -2  -3    1.23    0.29
 -15  -2   3    2.03    0.39
  15   2   3    2.15    0.33
  15   2   3    3.25    0.43
 -15   3   3   12.88    0.75
 -15  -3  -3   13.23    0.88
  15  -3   3   11.96    0.81
  15  -3   3   13.66    0.72
  15  -3   3   13.28    0.73
  15  -3   3   12.58    0.78
  15   3  -3   12.61    0.77
  15  -3   3   13.52    0.69
 -15   3   3   13.29    0.71
  15  -3   3   12.62    0.62
  15   3   3   13.90    0.81
 -15   3  -3   13.53    1.05
  15   3   3   13.87    0.55
  15  -3  -3   14.17    0.82
  15   3   3   14.08    0.76
  15   3   3   13.50    0.81
 -15  -3   3   14.06    0.72
  15   3   3   12.22    0.68
  15  -3  -3   13.84    0.59
 -15  -3   3   12.23    0.81
  15  -3  -3   12.42    0.72
 -15   4   3   16.78    0.80
 -15   4   3   16.21    0.76
  15  -4   3   16.78    0.88
  15  -4   3   16.64    0.78
  15  -4   3   16.64    0.70
  15  -4   3   16.52    0.74
  15   4  -3   15.36    0.85
  15  -4  -3   15.69    0.87
  15   4   3   16.87    0.61
  15  -4  -3   15.24    0.63
 -15  -4   3   14.99    0.90
  15   4   3   16.49    0.83
  15   4   3   16.26    0.78
  15   4   3   16.44    0.88
  15  -4  -3   14.40    0.78
  15   4   3   17.02    0.88
  15  -5   3   27.21    0.95
  15  -5   3   27.34    1.17
  15  -5   3   29.00    1.05
  15  -5   3   28.65    0.98
 -15   5   3   26.96    1.04
  15   5   3   24.80    1.15
  15  -5  -3   25.93    0.87
  15  -5  -3   25.93    1.16
  15   5   3   28.08    1.03
  15   5   3   27.59    1.11
  15  -5  -3   26.98    1.09
  15   5   3   28.09    0.82
  15   5   3   28.58    1.20
 -15   6   3   21.17    0.76
  15   6  -3   21.33    0.85
  15  -6   3   22.10    0.82
  15  -6   3   20.55    0.77
  15   6   3   21.18    0.89
 -15  -6   3   22.91    0.95
  15   6   3   21.51    0.82
  15  -6  -3   19.27    0.92
  15   6   3   21.31    0.97
  15   6   3   21.15    0.64
  15  -6  -3   20.49    0.87
  15   7  -3    6.84    0.39
  15   7   3    7.55    0.42
 -15  -7   3    6.81    0.44
  15  -7  -3    6.98    0.41
  15   7   3    7.28    0.39
  15   7   3    6.68    0.24
 -15   0   4    0.07    0.23
 -15   0   4    0.23    0.19
  15   0   4   -0.07    0.15
  15   0  -4    0.22    0.20
  15   0   4    0.21    0.20
  15   0   4    0.12    0.21
  15   0  -4    0.23    0.15
  15   0   4    0.16    0.20
  15   0   4   -0.05    0.18
  15   0  -4   -0.03    0.17
  15   0   4    0.13    0.12
 -15  -1  -4    7.41    0.68
  15  -1   4    7.45    0.56
 -15   1   4    6.69    0.56
  15  -1   4    7.27    0.42
  15   1  -4    7.54    0.60
  15  -1   4    7.26    0.60
  15  -1   4    6.74    0.50
  15  -1   4    6.79    0.53
  15   1  -4    7.08    0.37
  15  -1   4    6.07    0.61
 -15   1   4    6.76    0.53
 -15  -1   4    7.09    0.51
  15   1   4    6.60    0.54
  15  -1  -4    7.65    0.60
  15   1   4    7.12    0.38
  15  -1  -4    7.03    0.44
 -15  -1   4    6.14    0.57
  15   1   4    7.04    0.60
  15   1   4    7.17    0.58
  15   1   4    7.29    0.53
  15  -1  -4    7.57    0.55
  15   1   4    6.74    0.54
  15  -2   4   10.07    0.74
  15  -2   4   11.26    0.74
  15  -2   4   10.57    0.62
 -15   2   4   10.29    0.63
  15  -2   4   10.76    0.63
 -15   2   4   10.77    0.65
  15  -2   4   11.43    0.54
  15   2  -4   11.93    0.73
 -15  -2  -4   10.47    0.80
  15   2   4   10.53    0.66
  15  -2  -4   11.16    0.66
  15  -2  -4   11.72    0.73
 -15   2  -4    9.29    1.02
  15  -2  -4   10.66    0.55
 -15  -2   4   10.84    0.71
 -15  -2   4   11.29    0.76
  15   2   4    9.85    0.70
  15   2   4   11.91    0.65
  15   2   4   10.71    0.70
  15   2   4   10.67    0.45
 -15  -2   4   11.67    0.65
  15  -3   4   10.00    0.72
 -15   3   4    9.62    0.59
  15  -3   4    9.89    0.67
  15  -3   4   10.26    0.51
 -15   3   4   10.46    0.61
  15  -3   4    9.63    0.59
 -15  -3  -4    9.80    0.75
  15   3  -4   10.75    0.68
  15  -3   4   10.21    0.59
  15  -3  -4    9.71    0.52
  15  -3  -4   10.02    0.61
 -15  -3   4    9.93    0.59
  15   3   4   10.56    0.70
  15  -3  -4    9.24    0.66
  15   3   4   11.07    0.67
  15   3   4    9.83    0.42
 -15  -3   4    8.36    0.68
 -15  -3   4   10.15    0.69
  15   3   4   10.88    0.68
  15   3   4    9.75    0.59
  15  -4   4    5.50    0.43
 -15   4   4    5.14    0.41
  15  -4   4    5.50    0.45
  15  -4   4    4.55    0.52
  15  -4   4    5.16    0.38
 -15   4   4    4.58    0.39
  15   4   4    5.08    0.46
  15  -4  -4    5.69    0.36
  15   4   4    4.86    0.27
  15  -4  -4    6.61    0.48
  15  -4  -4    5.55    0.49
 -15  -4   4    5.40    0.52
  15   4   4    4.70    0.47
  15   4   4    5.00    0.49
  15   4   4    4.96    0.47
  15  -5   4    4.40    0.35
  15  -5   4    4.89    0.43
 -15   5   4    4.56    0.32
  15  -5   4    4.30    0.49
  15  -5   4    4.29    0.37
  15  -5  -4    4.99    0.30
 -15  -5   4    4.82    0.47
  15   5   4    4.16    0.47
  15   5   4    4.30    0.48
  15  -5  -4    4.63    0.44
  15   5   4    4.24    0.39
  15   5   4    4.54    0.39
  15   5   4    4.12    0.21
  15  -5  -4    5.45    0.42
  15  -6   4    9.02    0.47
  15  -6   4    8.40    0.42
  15  -6   4    7.77    0.42
  15   6  -4    7.90    0.45
  15   6   4    7.60    0.48
  15   6   4    8.25    0.53
  15  -6  -4    7.69    0.46
  15  -6  -4    8.02    0.30
  15  -6  -4    7.07    0.51
  15   6   4    7.99    0.44
 -15  -6   4    7.78    0.49
  15  -7   4   13.88    0.50
 -15  -7   4   13.21    0.57
  15  -7  -4   13.78    0.57
  15   7   4   13.71    0.59
  15   7   4   13.32    0.53
  15   0   5    0.02    0.09
  15   0   5    0.12    0.20
  15   0  -5    0.08    0.15
 -15   0   5   -0.14    0.16
  15   0   5   -0.05    0.17
  15   0   5   -0.01    0.15
 -15   0   5    0.00    0.16
  15   0   5   -0.07    0.19
  15   0   5    0.19    0.21
  15   0  -5   -0.18    0.19
 -15   1   5   13.89    0.70
 -15  -1  -5   13.71    0.91
  15  -1   5   13.75    0.72
  15  -1   5   12.63    0.83
  15  -1   5   13.41    0.70
  15  -1   5   13.58    0.54
  15  -1   5   14.74    0.84
  15   1  -5   13.76    0.61
 -15   1   5   14.34    0.73
  15   1  -5   14.15    0.80
  15   1   5   14.58    0.75
  15   1   5   14.09    0.72
  15  -1  -5   14.56    0.73
  15   1   5   13.75    0.82
  15   1   5   12.86    0.71
  15   1   5   14.21    0.50
 -15  -1   5   12.98    0.72
  15  -1  -5   14.82    0.66
 -15  -1   5   13.43    0.71
  15  -1  -5   13.97    0.80
  15   2  -5   14.71    0.57
 -15   2   5   14.41    0.72
  15  -2   5   14.17    0.88
 -15   2   5   14.06    0.68
  15  -2   5   13.91    0.71
  15  -2   5   14.54    0.57
  15  -2   5   14.41    0.73
  15  -2   5   13.79    0.83
  15  -2  -5   15.82    0.84
  15   2   5   13.69    0.74
  15  -2  -5   15.71    0.75
 -15  -2   5   13.83    0.72
 -15  -2   5   14.48    0.74
  15   2   5   14.33    0.82
  15   2   5   14.77    0.73
  15   2   5   14.41    0.47
  15   2   5   13.88    0.79
  15  -2  -5   14.54    0.66
 -15   3   5    0.92    0.23
  15  -3   5    1.01    0.25
  15  -3   5    1.25    0.20
  15  -3   5    1.01    0.24
  15  -3   5    1.11    0.29
 -15   3   5    1.06    0.22
  15  -3  -5    2.12    0.27
  15   3   5    1.00    0.28
 -15  -3   5    1.27    0.24
  15   3   5    1.34    0.12
  15   3   5    0.88    0.25
  15   3   5    1.48    0.29
  15   3   5    1.33    0.26
 -15  -3   5    1.47    0.27
  15  -3  -5    2.21    0.32
  15  -3  -5    2.29    0.36
  15  -4   5    6.89    0.46
  15  -4   5    6.72    0.38
  15  -4   5    7.45    0.49
  15  -4   5    6.70    0.53
 -15   4   5    6.06    0.33
  15   4   5    6.50    0.48
  15   4   5    6.17    0.53
  15   4   5    7.04    0.47
  15  -4  -5    6.83    0.40
 -15  -4   5    6.77    0.45
 -15  -4   5    6.89    0.48
  15   4   5    5.86    0.52
  15  -4  -5    6.30    0.50
  15  -4  -5    6.73    0.46
  15  -5   5   10.41    0.47
  15   5  -5   10.13    0.54
  15  -5   5   11.25    0.54
  15  -5   5   11.37    0.55
 -15  -5   5   10.64    0.55
  15   5   5    9.65    0.56
  15   5   5   11.28    0.63
  15  -5  -5   10.11    0.61
  15  -5  -5   10.80    0.56
  15   5   5   11.12    0.55
  15  -5  -5   10.82    0.47
  15  -6   5    2.82    0.28
  15   6  -5    4.14    0.30
  15  -6   5    3.26    0.25
  15  -6   5    2.76    0.26
  15   6   5    3.47    0.28
  15   6   5    2.77    0.30
 -15  -6   5    3.24    0.28
  15  -6  -5    4.20    0.31
  15  -6  -5    3.98    0.20
 -15   0   6    0.26    0.16
  15   0   6    0.14    0.08
  15   0   6   -0.03    0.17
  15   0  -6    0.27    0.16
  15   0   6    0.14    0.16
  15   0  -6   -0.19    0.19
  15   0   6    0.17    0.20
 -15   0   6    0.33    0.18
  15  -1   6    2.32    0.32
  15  -1   6    2.45    0.33
 -15   1   6    2.09    0.25
 -15   1   6    2.26    0.32
  15  -1   6    2.22    0.37
  15   1  -6    1.85    0.25
  15  -1   6    2.32    0.19
 -15  -1   6    2.16    0.28
  15   1   6    2.13    0.32
  15   1   6    2.45    0.40
 -15  -1   6    1.89    0.28
  15  -1  -6    1.94    0.28
  15  -1  -6    2.68    0.35
 -15   2   6   15.25    0.57
  15  -2   6   14.56    0.52
  15  -2   6   13.98    0.81
  15   2  -6   14.00    0.58
  15  -2   6   15.79    0.73
  15  -2   6   14.80    0.71
 -15   2   6   14.44    0.69
  15  -2  -6   14.03    0.78
  15   2   6   15.56    0.83
  15   2   6   14.18    0.71
 -15  -2   6   15.49    0.66
  15  -2  -6   14.74    0.66
  15   2   6   14.07    0.70
 -15  -2   6   15.50    0.71
  15  -3   6   17.81    0.60
 -15   3   6   17.85    0.73
  15  -3   6   16.09    0.88
  15  -3   6   16.24    0.75
  15  -3   6   16.92    0.75
 -15  -3   6   16.88    0.73
  15  -3  -6   20.32    0.79
  15  -3  -6   19.44    0.74
  15   3   6   17.84    0.76
  15   3   6   16.98    0.77
 -15  -3   6   16.52    0.71
  15  -3  -6   17.80    0.86
  15  -4   6    2.28    0.22
  15   4  -6    3.19    0.33
  15  -4   6    2.28    0.28
  15  -4   6    2.44    0.29
  15  -4  -6    2.48    0.26
  15  -4  -6    2.58    0.34
  15   4   6    2.30    0.30
 -15  -4   6    2.59    0.27
  15  -4  -6    3.02    0.31
 -15  -4   6    2.66    0.28
  15   4   6    2.51    0.29
  15  -5   6    3.14    0.23
  15   5  -6    3.49    0.32
  15  -5   6    3.61    0.32
  15  -5   6    3.67    0.33
  15  -5  -6    2.99    0.24
  15   5   6    3.56    0.31
 -15  -5   6    3.66    0.25
  15  -5  -6    3.12    0.30
  15   5   6    3.38    0.31
  15  -6   6   12.85    0.50
  15  -6   6   11.91    0.42
  15   6   6   12.29    0.53
  15  -6  -6   12.44    0.52
  15   0   7   -0.27    0.12
  15   0  -7   -0.04    0.12
 -15   0   7   -0.08    0.13
  15   0   7    0.08    0.18
  15  -1   7    7.45    0.47
 -15   1   7    7.29    0.46
  15  -1   7    7.48    0.48
  15   1  -7    7.62    0.41
  15  -1  -7    8.52    0.46
 -15  -1   7    7.40    0.47
  15   1   7    7.91    0.49
  15  -2   7    2.27    0.29
 -15   2   7    1.92    0.25
  15  -2   7    2.37    0.29
  15   2  -7    2.43    0.22
 -15  -2   7    2.16    0.28
  15  -2  -7    3.09    0.35
  15  -2  -7    2.61    0.29
  15   2   7    1.69    0.26
 -15   3   7   11.76    0.54
  15  -3   7   12.92    0.59
  15  -3   7   12.68    0.60
  15  -3   7   12.59    0.37
 -15  -3   7   12.49    0.57
  15  -3  -7   13.23    0.56
  15   3   7   12.65    0.58
  15  -4   7    3.39    0.30
  15  -4   7    3.38    0.17
  15  -4   7    3.09    0.30
  15   4  -7    3.44    0.30
 -15  -4   7    3.46    0.28
  15   4   7    3.02    0.28
  15   4   7    3.78    0.29
  15  -4  -7    3.11    0.25
  15  -5   7    1.38    0.11
  15  -5   7    0.87    0.16
  15  -5   7    1.20    0.18
  15  -5  -7    1.47    0.15
  15   0  -8    0.13    0.12
  15   0   8    0.15    0.14
 -15   0   8    0.05    0.12
  15   0   8    0.23    0.17
  15   1  -8   12.21    0.49
  15  -1   8   12.58    0.56
  15  -1   8   12.01    0.57
 -15   1   8   12.03    0.53
  15  -1  -8   12.41    0.53
  15   1   8   12.26    0.55
 -15  -1   8   11.59    0.54
  15  -2   8   10.82    0.51
 -15   2   8    9.75    0.46
  15   2  -8    9.86    0.39
  15  -2   8   10.39    0.49
  15  -2  -8   10.39    0.47
 -15  -2   8    9.48    0.46
  15   2   8   10.27    0.47
  15  -3   8   10.06    0.48
  15  -3   8   10.41    0.47
 -15  -3   8   10.24    0.45
  15   3   8    9.95    0.43
  15  -3  -8    9.76    0.43
  15  -4   8    4.37    0.30
  15  -4   8    5.17    0.31
  15  -4  -8    5.69    0.26
  15   0  -9    0.06    0.09
 -15   0   9   -0.03    0.09
  15   1  -9    2.46    0.17
 -15  -1   9    2.93    0.23
  15  -1  -9    2.48    0.19
 -16   0   0   18.02    1.01
  16   0   0   18.67    0.98
  16   0   0   18.86    0.91
 -16   0   0   19.03    1.16
  16   0   0   19.44    0.80
  16  -1   0    1.64    0.33
 -16  -1   0    1.41    0.30
 -16  -1   0    2.56    0.54
  16  -1   0    2.29    0.35
 -16  -1   0    2.44    0.41
  16   1   0    1.95    0.35
  16   1   0    2.46    0.37
  16  -1   0    2.46    0.42
 -16   1   0    2.58    0.49
  16   1   0    2.10    0.31
 -16   1   0    2.04    0.40
  16  -2   0    0.96    0.26
 -16  -2   0    1.04    0.26
  16   2   0    0.66    0.27
 -16   2   0    0.78    0.32
  16  -2   0    0.55    0.25
  16   2   0    1.03    0.24
 -16  -2   0    1.32    0.44
  16  -2   0    0.90    0.24
  16   2   0    1.21    0.29
 -16  -2   0    0.63    0.28
  16   2   0    0.91    0.24
  16  -3   0    4.06    0.49
 -16  -3   0    4.77    0.57
  16   3   0    4.77    0.38
  16   3   0    4.92    0.51
  16  -3   0    4.68    0.44
  16   3   0    4.96    0.41
  16   3   0    5.16    0.52
 -16  -3   0    5.09    0.70
  16  -4   0    0.53    0.26
  16   4   0    0.64    0.22
  16   4   0    0.80    0.21
  16   4   0    0.39    0.17
  16   4   0    0.63    0.25
  16  -4   0    0.59    0.23
  16   5   0    3.73    0.40
  16   5   0    4.43    0.43
 -16   5   0    5.33    0.52
  16   5   0    3.85    0.35
  16  -5   0    4.22    0.40
  16   5   0    4.60    0.35
 -16   5   0    4.50    0.39
  16   6   0    1.67    0.25
 -16   6   0    1.61    0.27
  16   6   0    1.30    0.20
  16  -6   0    1.54    0.25
  16   6   0    1.31    0.22
  16   7   0    7.87    0.34
 -16   7   0    7.84    0.40
 -16   0   1   29.21    1.53
  16   0   1   33.67    1.17
 -16   0   1   32.86    1.43
  16   0  -1   30.16    1.37
  16   0   1   33.89    1.10
  16   0  -1   30.25    1.25
  16   0   1   31.29    1.37
  16   0   1   33.93    1.35
  16   0   1   30.26    1.22
  16   0   1   33.58    1.29
 -16   0   1   34.74    1.27
 -16   0  -1   30.66    1.63
 -16   0  -1   28.95    1.40
  16  -1   1   37.94    1.42
  16   1  -1   38.21    1.46
  16  -1   1   39.25    1.58
 -16   1   1   39.26    1.43
 -16  -1  -1   37.97    1.85
  16   1  -1   39.87    1.60
  16  -1   1   40.17    1.28
  16  -1   1   39.01    1.54
  16  -1   1   39.15    1.48
 -16   1   1   39.51    1.76
 -16  -1  -1   38.53    1.67
  16   1   1   40.19    1.35
 -16  -1   1   40.54    1.67
 -16   1  -1   39.41    1.65
  16   1   1   39.68    1.59
 -16  -1   1   39.11    1.78
  16   1   1   40.78    1.27
  16   1   1   40.02    1.55
  16   1   1   40.15    1.51
 -16  -1   1   38.74    1.42
  16  -1  -1   38.56    1.48
 -16   1  -1   39.86    1.86
  16  -2   1   28.81    1.14
 -16  -2  -1   26.86    1.11
  16  -2   1   28.32    1.18
 -16  -2  -1   28.17    1.33
 -16   2   1   26.57    1.35
  16  -2   1   28.63    1.22
  16  -2   1   27.71    1.01
 -16   2   1   28.30    1.13
  16  -2   1   28.51    1.24
 -16  -2  -1   26.96    1.52
  16   2  -1   26.17    1.23
  16   2  -1   28.93    1.18
  16   2   1   29.20    1.28
  16  -2  -1   25.99    1.14
  16  -2  -1   26.27    1.24
  16   2   1   28.38    1.17
 -16  -2   1   28.73    1.11
  16   2   1   27.86    1.05
  16   2   1   30.25    0.99
 -16  -2   1   29.13    1.32
 -16   2  -1   26.21    1.42
  16   2   1   27.65    1.22
 -16  -2   1   28.22    1.42
 -16  -3  -1   16.50    1.21
  16  -3   1   15.32    0.85
 -16   3   1   16.05    0.79
  16  -3   1   15.38    0.73
  16   3  -1   18.09    0.92
  16  -3   1   15.10    0.83
  16  -3   1   16.25    0.80
  16   3  -1   17.50    0.83
 -16  -3  -1   16.43    0.96
  16  -3   1   15.69    0.81
  16   3  -1   17.08    0.73
 -16  -3   1   14.31    1.01
  16   3   1   15.46    0.66
  16   3   1   15.51    0.74
  16  -3  -1   16.79    0.88
 -16   3  -1   16.32    1.04
  16   3   1   15.03    0.86
 -16  -3   1   15.17    0.90
  16  -3  -1   15.78    0.82
  16   3   1   17.65    0.85
  16   3   1   15.37    0.86
 -16   4   1   14.05    0.78
  16   4  -1   12.41    0.75
  16   4  -1   13.47    0.64
  16  -4   1   14.62    0.73
  16  -4   1   14.03    0.70
  16   4  -1   12.11    0.60
  16   4  -1   13.32    0.70
 -16   4   1   12.93    0.67
  16   4   1   13.45    0.73
  16   4   1   14.07    0.77
  16   4   1   13.96    0.79
  16  -4  -1   12.27    0.70
  16   4   1   14.12    0.60
  16  -4  -1   12.98    0.74
  16   4   1   13.06    0.65
 -16   5   1    3.40    0.34
  16   5  -1    4.33    0.38
  16   5  -1    4.25    0.41
  16   5  -1    3.66    0.34
  16   5  -1    3.82    0.42
 -16   5   1    3.58    0.41
  16  -5   1    3.92    0.37
  16   5   1    3.76    0.39
  16   5   1    4.36    0.40
  16   5   1    3.72    0.44
  16  -5  -1    3.58    0.41
  16   5   1    3.89    0.29
  16  -5  -1    3.51    0.38
  16   6  -1   21.53    0.77
  16   6  -1   22.24    0.76
  16  -6   1   21.97    0.84
 -16   6   1   21.07    0.85
  16   6   1   22.85    0.71
  16  -6  -1   22.73    0.87
  16   6   1   20.85    0.99
  16   6   1   22.32    0.81
  16   6   1   22.92    0.88
 -16   6  -1   21.20    0.92
 -16   7   1    9.30    0.40
  16   7  -1    9.97    0.40
 -16   7  -1   10.10    0.48
  16  -7  -1    9.86    0.45
  16   7   1    8.64    0.42
 -16  -7   1    9.97    0.42
  16   7   1    8.88    0.35
  16   0   2    5.05    0.43
 -16   0   2    3.87    0.44
  16   0   2    3.66    0.44
 -16   0  -2    6.14    0.80
  16   0  -2    4.88    0.54
  16   0   2    4.95    0.55
 -16   0  -2    5.23    0.60
  16   0  -2    5.38    0.47
 -16   0   2    4.86    0.58
  16   0   2    3.47    0.43
  16   0   2    4.47    0.38
  16   0   2    3.80    0.48
  16  -1   2    0.03    0.14
  16  -1   2    0.14    0.16
 -16   1   2    0.41    0.20
  16  -1   2    0.22    0.17
  16   1  -2    0.31    0.19
  16  -1   2    0.07    0.19
 -16  -1  -2    0.00    0.38
  16  -1   2    0.00    0.18
  16   1  -2    0.26    0.19
 -16  -1  -2    0.17    0.24
  16  -1   2    0.22    0.22
 -16  -1   2    0.06    0.29
  16  -1  -2    0.06    0.21
 -16   1  -2   -0.30    0.33
 -16  -1   2    0.37    0.25
  16   1   2   -0.02    0.19
  16   1   2    0.07    0.13
  16   1   2    0.06    0.18
 -16   1  -2    0.42    0.26
  16   1   2    0.17    0.19
  16  -1  -2    0.13    0.17
  16   1   2    0.07    0.16
  16   1   2    0.17    0.20
 -16  -1   2   -0.01    0.16
  16  -2   2    0.44    0.21
 -16  -2  -2    0.75    0.42
  16  -2   2    0.57    0.25
  16  -2   2    0.17    0.23
 -16  -2  -2    0.41    0.22
  16  -2   2    0.15    0.18
  16   2  -2    0.48    0.22
 -16   2   2    0.10    0.18
  16   2  -2    0.63    0.24
 -16  -2  -2    0.22    0.25
  16  -2   2    0.37    0.18
  16  -2   2    0.54    0.25
  16   2   2    0.60    0.24
 -16  -2   2    0.38    0.24
 -16  -2   2    0.37    0.34
 -16  -2   2    0.32    0.20
 -16   2  -2   -0.37    0.34
  16   2   2    0.35    0.24
  16   2   2    0.22    0.19
  16   2   2    0.38    0.19
  16   2   2    0.58    0.17
  16  -2  -2    0.44    0.20
  16  -2  -2    0.22    0.19
 -16   2  -2    0.35    0.26
  16  -3   2    0.54    0.21
 -16  -3  -2    0.22    0.25
 -16   3   2    0.70    0.29
  16   3  -2    0.50    0.23
  16  -3   2    0.43    0.22
 -16   3   2    0.55    0.20
  16   3  -2    0.58    0.22
  16  -3   2    0.32    0.17
  16  -3   2    0.61    0.23
  16  -3  -2    0.47    0.21
 -16  -3   2    0.93    0.31
 -16  -3   2    0.30    0.20
  16   3   2    1.16    0.27
  16   3   2    0.45    0.21
  16  -3  -2    0.74    0.26
  16   3   2    0.72    0.16
  16   3   2    0.53    0.25
  16   3   2    0.41    0.19
  16  -4   2    4.82    0.46
 -16   4   2    4.62    0.48
  16  -4   2    4.56    0.48
 -16   4   2    4.47    0.40
  16  -4   2    4.36    0.41
  16   4  -2    4.92    0.47
  16  -4   2    4.63    0.41
  16   4  -2    4.61    0.42
  16   4   2    4.40    0.45
  16   4   2    4.57    0.32
  16   4   2    4.42    0.39
  16   4   2    4.58    0.46
  16   4   2    4.41    0.49
  16  -4  -2    3.22    0.38
  16  -4  -2    4.67    0.46
 -16   5   2    5.63    0.44
  16   5  -2    6.76    0.49
  16  -5   2    6.02    0.43
  16  -5   2    5.47    0.40
  16  -5  -2    6.48    0.49
  16  -5  -2    6.63    0.46
  16   5   2    6.26    0.51
  16   5   2    6.14    0.42
  16   5   2    5.92    0.45
  16   5   2    5.99    0.33
  16   6  -2   16.64    0.65
 -16   6   2   17.14    0.67
  16  -6  -2   17.52    0.73
  16   6   2   17.16    0.73
  16   6   2   17.72    0.69
  16   6   2   17.56    0.56
  16   7   2    4.93    0.34
 -16   7  -2    5.02    0.36
  16  -7  -2    5.42    0.32
  16   7   2    5.72    0.21
  16   7   2    5.52    0.31
 -16   0   3   45.26    1.71
 -16   0   3   46.31    1.59
 -16   0  -3   49.63    2.23
  16   0   3   45.55    1.76
  16   0   3   46.02    1.59
  16   0  -3   50.01    1.83
  16   0   3   45.49    1.66
  16   0   3   45.31    1.76
  16   0   3   46.60    1.54
  16   0  -3   52.19    1.67
 -16   0  -3   46.88    1.90
  16   0   3   45.66    1.35
  16  -1   3   17.74    0.95
 -16  -1  -3   20.10    1.07
  16   1  -3   20.49    0.99
 -16   1   3   19.42    0.88
  16   1  -3   20.81    0.90
  16  -1   3   18.99    0.82
  16  -1   3   19.05    0.73
  16  -1   3   19.00    0.90
  16  -1   3   16.69    0.84
 -16   1   3   19.11    0.93
  16   1   3   18.36    0.87
  16  -1  -3   21.20    1.01
 -16  -1   3   17.84    1.05
  16   1   3   17.31    0.81
 -16   1  -3   19.09    1.05
  16   1   3   18.60    0.89
  16   1   3   18.45    0.96
  16   1   3   18.16    0.94
  16  -1  -3   20.44    0.90
 -16   1  -3   20.40    1.31
 -16  -1   3   18.08    0.85
  16   1   3   18.93    0.70
 -16   2   3   16.30    0.78
  16   2  -3   17.67    0.82
  16  -2   3   15.54    0.79
  16  -2   3   17.05    0.75
 -16   2   3   15.41    0.82
  16   2  -3   19.06    0.92
  16  -2   3   15.54    0.67
  16  -2   3   15.46    0.87
  16  -2   3   15.65    0.79
  16   2   3   14.51    0.85
 -16  -2   3   17.38    0.78
  16  -2  -3   18.03    0.91
  16   2   3   16.58    0.84
  16  -2  -3   18.34    0.84
  16   2   3   15.36    0.61
  16   2   3   15.96    0.87
 -16  -2   3   15.70    1.01
  16   2   3   15.85    0.75
 -16   2  -3   16.98    1.08
  16  -3   3   12.13    0.56
 -16   3   3   11.73    0.63
  16  -3   3   11.59    0.65
  16  -3   3   11.76    0.71
  16  -3   3   12.24    0.60
  16   3  -3    9.60    0.66
  16  -3   3   11.13    0.63
 -16   3   3   11.34    0.66
  16   3   3   11.68    0.48
 -16  -3   3   11.13    0.60
  16   3   3   10.74    0.70
  16   3   3   12.35    0.68
  16  -3  -3    8.99    0.60
  16   3   3   12.01    0.63
  16  -3  -3    8.54    0.64
  16   3   3   11.83    0.72
  16  -4   3    1.70    0.24
  16  -4   3    1.76    0.29
 -16   4   3    1.99    0.30
  16  -4   3    2.02    0.26
  16   4  -3    1.85    0.32
  16  -4   3    1.89    0.31
 -16   4   3    1.27    0.24
  16  -4  -3    1.79    0.32
  16   4   3    1.82    0.31
  16   4   3    2.13    0.20
  16   4   3    1.86    0.29
  16   4   3    1.84    0.28
  16  -4  -3    2.39    0.32
  16   4   3    1.97    0.36
 -16   5   3   16.23    0.66
  16  -5   3   16.65    0.70
  16  -5   3   15.81    0.63
  16   5   3   15.44    0.81
  16   5   3   15.43    0.51
  16   5   3   16.49    0.75
  16  -5  -3   16.69    0.73
  16  -5  -3   16.02    0.79
  16   5   3   16.22    0.69
 -16  -5   3   14.95    0.76
  16  -6   3    3.61    0.30
  16   6   3    3.14    0.30
 -16  -6   3    3.74    0.37
  16   6   3    3.23    0.16
  16  -6  -3    2.54    0.28
  16   6   3    3.18    0.27
  16   7   3    2.97    0.22
 -16   0  -4    2.30    0.43
  16   0  -4    1.95    0.30
  16   0   4    1.95    0.32
 -16   0   4    2.36    0.35
  16   0   4    2.21    0.38
  16   0  -4    2.17    0.36
  16   0   4    2.05    0.35
  16   0   4    2.12    0.31
 -16   0   4    1.49    0.26
  16   0   4    1.82    0.21
  16  -1   4   12.32    0.52
  16   1  -4   12.21    0.72
  16  -1   4   11.25    0.72
  16  -1   4   12.59    0.67
 -16   1   4   11.86    0.68
  16  -1   4   11.64    0.67
 -16   1   4   12.52    0.66
  16  -1   4   11.29    0.62
  16   1   4   10.67    0.65
  16  -1  -4   12.46    0.67
  16   1   4   11.88    0.64
 -16  -1   4   11.74    0.65
  16   1   4   12.20    0.49
  16  -1  -4   12.02    0.43
  16   1   4   11.69    0.73
 -16  -1   4   12.59    0.71
  16   1   4   11.78    0.71
  16   1   4   12.20    0.67
  16  -1  -4   13.34    0.76
  16   2  -4   15.37    0.81
  16  -2   4   14.91    0.83
 -16   2   4   14.53    0.72
  16  -2   4   15.22    0.61
  16  -2   4   15.04    0.70
 -16   2   4   13.98    0.71
  16  -2   4   15.29    0.74
  16   2   4   14.80    0.80
  16   2   4   14.85    0.53
  16  -2  -4   15.80    0.75
  16   2   4   15.52    0.84
  16  -2  -4   14.25    0.53
  16   2   4   15.09    0.76
 -16  -2   4   15.56    0.78
  16   2   4   14.36    0.71
 -16  -2   4   14.53    0.71
  16  -2  -4   15.07    0.82
  16  -3   4    0.85    0.23
 -16   3   4    0.35    0.16
  16  -3   4    0.59    0.18
  16   3  -4    0.75    0.24
  16  -3   4    0.40    0.21
 -16   3   4    0.25    0.16
  16  -3   4    0.28    0.13
  16   3   4    0.38    0.11
  16   3   4    0.44    0.18
 -16  -3   4    0.48    0.24
  16  -3  -4    0.37    0.11
  16   3   4    0.46    0.21
  16   3   4    0.57    0.22
 -16  -3   4    0.21    0.16
  16  -3  -4    0.32    0.19
  16  -3  -4    0.34    0.17
  16   3   4    0.65    0.23
  16  -4   4    2.18    0.28
  16  -4   4    2.89    0.34
 -16   4   4    2.78    0.27
  16  -4   4    1.92    0.23
 -16   4   4    2.42    0.28
  16   4   4    2.43    0.16
  16   4   4    2.20    0.29
  16  -4  -4    2.48    0.32
  16  -4  -4    2.15    0.32
  16   4   4    1.77    0.31
 -16  -4   4    2.51    0.33
  16   4   4    2.05    0.31
  16  -5   4    9.32    0.49
  16  -5   4    8.55    0.44
  16  -5   4    8.74    0.42
  16   5   4    8.65    0.60
 -16  -5   4    9.46    0.51
  16  -5  -4    9.00    0.49
  16   5   4    9.46    0.52
  16   5   4    8.29    0.46
  16  -5  -4    8.92    0.58
  16  -6   4    0.02    0.09
 -16  -6   4    0.05    0.13
  16   6   4    0.26    0.11
  16  -6  -4   -0.03    0.10
  16   6   4   -0.05    0.11
  16   0   5    1.10    0.24
  16   0  -5    0.94    0.14
  16   0   5    0.93    0.14
  16   0   5    0.79    0.25
 -16   0   5    1.27    0.24
  16   0   5    1.02    0.23
 -16   0   5    1.12    0.24
  16   0   5    1.02    0.25
  16   0  -5    0.57    0.24
 -16   1   5   22.50    0.91
 -16   1   5   22.25    0.88
  16  -1   5   22.46    0.92
  16  -1   5   22.70    0.90
  16   1  -5   22.73    1.00
  16  -1   5   22.04    1.03
  16  -1   5   23.03    0.70
  16   1   5   22.06    1.04
 -16  -1   5   22.59    0.92
  16   1   5   22.08    0.91
  16   1   5   22.37    0.65
 -16  -1   5   21.45    0.90
  16  -1  -5   22.38    1.03
  16  -1  -5   22.21    0.90
  16   1   5   22.83    0.91
  16  -1  -5   21.89    0.76
  16   1   5   23.33    0.95
  16  -2   5   11.69    0.46
  16  -2   5   11.87    0.71
 -16   2   5   11.40    0.53
  16  -2   5   11.65    0.61
  16  -2   5   11.96    0.60
 -16   2   5   10.94    0.58
  16   2   5   11.18    0.34
  16  -2  -5    9.96    0.46
  16   2   5   11.36    0.62
  16  -2  -5   10.75    0.58
  16  -2  -5    9.68    0.62
 -16  -2   5   11.19    0.59
  16   2   5   10.93    0.69
 -16  -2   5   11.48    0.58
  16   2   5   10.92    0.58
 -16   3   5    5.25    0.39
  16  -3   5    4.99    0.31
  16  -3   5    5.34    0.41
 -16   3   5    5.70    0.33
  16  -3   5    5.53    0.39
  16   3   5    4.91    0.47
  16   3   5    5.53    0.43
  16   3   5    5.49    0.41
 -16  -3   5    5.60    0.40
  16  -3  -5    4.99    0.29
  16  -3  -5    5.33    0.46
  16  -3  -5    5.00    0.40
 -16  -3   5    5.05    0.39
  16  -4   5    9.58    0.52
  16  -4   5   10.30    0.43
  16  -4   5    9.68    0.49
  16  -4  -5    9.15    0.51
 -16  -4   5   10.43    0.50
  16  -4  -5    9.50    0.35
  16  -4  -5    9.61    0.58
  16   4   5   10.42    0.55
  16   4   5   11.07    0.53
  16  -5   5    3.00    0.29
  16  -5   5    2.88    0.27
  16  -5   5    3.03    0.22
 -16  -5   5    3.11    0.28
  16   5   5    3.06    0.31
  16  -5  -5    2.90    0.28
  16   5   5    2.97    0.28
  16   6   5    4.56    0.31
 -16  -6   5    4.85    0.26
  16   0   6   25.89    0.98
  16   0  -6   26.94    0.84
 -16   0   6   25.79    0.97
  16   0  -6   26.75    1.08
 -16   0   6   25.68    0.88
  16   0   6   25.56    0.97
 -16   1   6    1.23    0.21
  16  -1   6    1.57    0.26
  16  -1   6    0.77    0.20
 -16   1   6    1.32    0.16
  16  -1   6    0.98    0.10
  16  -1  -6    1.23    0.17
  16   1   6    1.25    0.24
 -16  -1   6    0.98    0.21
 -16  -1   6    1.33    0.20
  16  -1  -6    1.46    0.29
  16  -2   6   17.23    0.74
 -16   2   6   17.27    0.71
  16  -2   6   16.63    0.71
  16  -2   6   17.23    0.51
  16   2   6   16.68    0.72
  16  -2  -6   16.76    0.80
  16  -2  -6   18.29    0.63
 -16  -2   6   17.54    0.72
  16   2   6   16.52    0.71
 -16  -2   6   17.43    0.66
  16  -3   6    4.05    0.32
 -16   3   6    4.00    0.31
  16  -3   6    4.01    0.35
  16  -3   6    3.65    0.22
  16   3   6    3.09    0.31
  16  -3  -6    4.18    0.32
 -16  -3   6    3.70    0.27
 -16  -3   6    4.16    0.32
  16  -3  -6    3.84    0.24
  16   3   6    3.45    0.33
  16  -4   6    7.71    0.30
  16  -4   6    8.25    0.41
  16  -4   6    7.77    0.43
  16   4   6    7.20    0.42
 -16  -4   6    7.43    0.33
  16  -4  -6    7.83    0.40
  16   4   6    7.61    0.41
  16  -5   6    5.30    0.22
  16  -5   6    4.42    0.34
  16   0   7   22.66    0.83
  16   0  -7   22.33    0.70
 -16   0   7   21.88    0.81
  16   0   7   21.55    0.81
 -16   1   7    6.69    0.40
  16  -1   7    6.76    0.41
  16  -1   7    7.15    0.43
  16   1   7    6.71    0.41
 -16  -1   7    6.37    0.39
  16  -1  -7    6.83    0.31
  16  -2   7   21.43    0.78
 -16   2   7   19.76    0.73
  16  -2   7   21.87    0.77
 -16  -2   7   20.92    0.75
  16  -2  -7   19.52    0.67
  16   2   7   20.57    0.74
  16  -3   7    5.64    0.36
  16  -3   7    5.78    0.34
 -16  -3   7    5.59    0.32
  16  -3  -7    4.47    0.22
  16   3   7    5.35    0.32
  16  -4   7    2.02    0.22
  16  -4   7    2.35    0.22
  16   0   8    2.95    0.26
 -16   0   8    3.30    0.25
 -16   1   8    3.16    0.24
  16  -1   8    3.49    0.27
 -16  -1   8    3.10    0.24
  16   1   8    3.23    0.25
  16  -2   8    3.39    0.26
 -16  -2   8    3.49    0.24
  17   0   0   -0.07    0.14
  17   0   0    0.00    0.16
  17   0   0   -0.08    0.16
 -17   0   0   -0.09    0.15
  17   1   0    1.57    0.32
  17  -1   0    1.21    0.23
 -17   1   0    1.27    0.26
  17  -1   0    2.00    0.35
  17  -1   0    1.39    0.29
 -17  -1   0    1.56    0.29
  17   1   0    1.33    0.27
  17   1   0    1.37    0.25
  17   2   0    0.20    0.15
  17   2   0    0.33    0.18
  17  -2   0    0.15    0.19
  17  -2   0    0.21    0.18
 -17  -2   0    0.12    0.17
  17   2   0    0.24    0.19
 -17   2   0    0.20    0.18
  17   3   0    0.23    0.18
 -17   3   0    0.03    0.15
  17   3   0    0.30    0.16
  17   3   0    0.05    0.14
  17  -3   0    0.00    0.18
  17  -3   0   -0.11    0.14
  17   3   0    0.20    0.17
  17   4   0    7.26    0.55
 -17   4   0    7.11    0.47
  17  -4   0    7.39    0.49
  17   4   0    7.56    0.43
  17   4   0    7.78    0.43
  17   4   0    7.86    0.49
  17   5   0    8.50    0.41
 -17   5   0    8.32    0.53
  17  -5   0    8.88    0.49
 -17   5   0    8.43    0.45
  17   5   0    9.14    0.49
  17   5   0    9.07    0.44
  17   6   0   11.81    0.43
 -17   6   0   10.80    0.51
  17   6   0   10.84    0.45
  17  -6   0   10.11    0.47
 -17   0   1    0.20    0.16
  17   0  -1    0.35    0.19
  17   0   1    0.03    0.14
  17   0  -1    0.14    0.17
  17   0   1    0.23    0.19
  17   0   1    0.09    0.17
  17  -1   1    6.86    0.52
  17  -1   1    7.06    0.55
  17   1  -1    7.72    0.58
  17  -1   1    7.61    0.46
 -17   1   1    6.48    0.50
  17   1  -1    7.33    0.54
 -17  -1  -1    7.00    0.52
  17   1   1    7.31    0.58
  17   1   1    7.31    0.46
  17  -1  -1    7.01    0.50
  17   1   1    7.37    0.54
  17  -1  -1    6.31    0.56
 -17  -1   1    7.50    0.52
  17   1   1    7.27    0.45
  17  -2   1   29.67    1.10
 -17   2   1   27.40    1.09
 -17  -2  -1   27.73    1.06
  17   2  -1   28.16    1.00
  17  -2   1   28.54    0.98
  17  -2   1   27.87    1.20
  17   2  -1   29.12    1.13
  17   2  -1   27.88    1.22
  17  -2   1   27.79    1.13
  17   2   1   28.81    1.03
  17  -2  -1   27.16    1.21
  17   2   1   28.82    1.15
  17   2   1   29.09    0.95
  17   2   1   27.88    1.24
  17  -2  -1   27.68    1.13
 -17  -2   1   27.80    1.06
  17  -3   1   14.65    0.73
  17   3  -1   17.58    0.78
  17   3  -1   16.49    0.68
 -17   3   1   14.65    0.71
  17   3  -1   16.75    0.84
  17  -3   1   14.03    0.64
  17   3   1   15.38    0.62
  17  -3  -1   16.95    0.85
  17  -3  -1   16.89    0.77
  17   3   1   15.37    0.68
  17   3   1   13.73    0.81
  17   3   1   14.46    0.75
  17  -4   1    4.82    0.39
  17   4  -1    5.36    0.47
  17   4  -1    5.18    0.38
 -17   4   1    5.06    0.39
 -17   4   1    4.30    0.44
  17   4  -1    5.70    0.41
  17  -4  -1    5.46    0.42
  17  -4  -1    5.38    0.47
 -17   4  -1    5.04    0.39
  17   4   1    4.58    0.36
  17   4   1    4.95    0.45
  17   4   1    4.74    0.32
  17   4   1    4.64    0.40
  17   5  -1    0.84    0.17
  17   5  -1    1.07    0.19
  17  -5   1    1.29    0.22
  17   5  -1    1.09    0.21
 -17   5   1    0.80    0.21
  17   5   1    1.34    0.23
  17   5   1    1.21    0.19
 -17   5  -1    0.96    0.19
  17   5   1    0.96    0.16
  17  -5  -1    0.59    0.17
 -17   6   1   13.88    0.56
  17   6  -1   14.74    0.52
  17   6   1   14.80    0.55
 -17   6  -1   14.35    0.63
  17   6   1   14.79    0.48
  17  -6  -1   14.99    0.59
  17   6   1   15.19    0.60
  17   0   2   -0.11    0.16
  17   0   2    0.14    0.19
  17   0   2    0.00    0.18
  17   0   2   -0.14    0.13
  17   0   2    0.12    0.14
  17   0   2   -0.04    0.15
 -17   0   2    0.05    0.16
  17   0  -2    0.40    0.20
  17   0  -2   -0.10    0.14
  17  -1   2    1.04    0.26
  17   1  -2    0.86    0.25
  17  -1   2    0.72    0.17
  17  -1   2    0.63    0.23
  17  -1   2    0.80    0.21
 -17   1   2    1.23    0.25
  17   1  -2    0.74    0.23
  17  -1   2    1.01    0.25
  17  -1   2    0.92    0.25
  17  -1  -2    0.68    0.25
  17   1   2    0.93    0.19
  17   1   2    0.75    0.20
  17   1   2    1.21    0.27
  17   1   2    0.95    0.27
 -17  -1   2    0.86    0.23
  17   1   2    0.73    0.24
  17  -1  -2    0.88    0.22
  17  -2   2    1.29    0.22
  17  -2   2    1.10    0.25
  17  -2   2    1.44    0.28
  17  -2   2    1.43    0.30
 -17   2   2    0.86    0.26
  17   2  -2    0.94    0.24
  17   2  -2    0.84    0.24
 -17   2   2    0.78    0.21
  17  -2  -2    1.21    0.26
  17  -2  -2    1.08    0.28
  17   2   2    0.94    0.22
  17   2   2    0.98    0.18
 -17  -2   2    0.88    0.21
  17   2   2    1.51    0.29
  17   2   2    0.86    0.25
  17   2   2    1.01    0.25
  17   3  -2    8.42    0.52
  17  -3   2    9.35    0.55
  17  -3   2    9.23    0.48
 -17   3   2    9.71    0.54
  17  -3   2    9.20    0.56
  17   3  -2    7.28    0.58
 -17   3   2    8.99    0.59
 -17  -3   2    9.44    0.51
  17  -3  -2    7.45    0.58
  17  -3  -2    7.98    0.52
  17   3   2   10.46    0.53
  17   3   2    9.32    0.62
  17   3   2    9.48    0.43
  17   3   2    9.34    0.57
 -17   4   2    8.96    0.52
  17  -4   2    8.94    0.50
  17   4  -2    7.81    0.54
  17  -4   2    9.08    0.50
  17  -4   2    8.91    0.46
 -17   4   2    8.89    0.48
  17   4   2    8.85    0.53
  17  -4  -2    7.68    0.55
  17  -4  -2    7.68    0.49
  17   4   2    8.40    0.38
  17   4   2    9.29    0.49
  17   4   2    8.53    0.57
 -17   5   2    5.27    0.34
  17  -5   2    4.93    0.33
  17   5  -2    4.54    0.34
  17   5   2    4.93    0.37
  17   5   2    5.00    0.26
  17   5   2    5.39    0.34
  17  -5  -2    4.86    0.36
 -17   5  -2    5.03    0.35
 -17   6   2    3.61    0.20
  17   6   2    3.43    0.28
  17   6   2    3.93    0.26
  17  -6  -2    3.47    0.27
  17   6   2    3.53    0.17
  17   0   3    0.05    0.18
  17   0   3    0.28    0.19
  17   0  -3    0.13    0.18
  17   0   3   -0.01    0.15
  17   0   3    0.28    0.17
 -17   0   3   -0.01    0.14
  17   0  -3    0.08    0.15
 -17   0   3    0.12    0.22
  17   0   3    0.36    0.21
  17   0   3    0.07    0.11
  17  -1   3   12.95    0.55
  17  -1   3   14.01    0.65
  17  -1   3   12.38    0.73
 -17   1   3   14.18    0.69
  17  -1   3   13.14    0.69
  17   1  -3   14.13    0.76
  17  -1   3   12.70    0.68
  17   1  -3   12.36    0.66
 -17   1   3   14.36    0.72
  17   1   3   12.12    0.73
  17  -1  -3   13.25    0.76
  17   1   3   12.85    0.70
  17   1   3   12.31    0.63
  17  -1  -3   14.35    0.69
  17   1   3   13.54    0.53
 -17  -1   3   13.57    0.66
  17   1   3   13.14    0.74
 -17  -1   3   13.08    0.72
  17  -2   3    8.80    0.54
 -17   2   3    9.01    0.53
  17  -2   3    8.04    0.57
  17  -2   3    9.19    0.50
  17   2  -3    8.55    0.58
 -17   2   3    9.68    0.57
  17  -2   3    8.91    0.55
  17  -2   3    9.49    0.46
  17   2  -3    9.33    0.53
  17   2   3    8.77    0.40
  17   2   3    8.62    0.59
  17   2   3    8.68    0.56
 -17  -2   3    8.62    0.51
 -17  -2   3    8.31    0.57
  17  -2  -3    8.76    0.61
  17   2   3    8.83    0.50
  17  -2  -3    9.16    0.55
  17   2   3    8.90    0.60
  17  -3   3   12.76    0.57
  17  -3   3   12.61    0.63
 -17   3   3   13.06    0.61
  17   3  -3   13.67    0.72
 -17   3   3   12.81    0.63
  17  -3   3   12.03    0.63
  17  -3   3   12.12    0.53
 -17  -3   3   12.67    0.60
  17   3   3   12.98    0.47
  17   3   3   11.94    0.69
  17   3   3   12.59    0.66
  17  -3  -3   13.66    0.65
 -17  -3   3   12.29    0.70
  17   3   3   12.24    0.60
  17  -4   3    0.73    0.16
 -17   4   3    0.45    0.16
 -17   4   3    0.55    0.15
  17  -4   3    0.60    0.19
  17   4   3    0.36    0.16
 -17  -4   3    0.68    0.22
  17  -4  -3    0.25    0.17
  17   4   3    0.32    0.10
  17   4   3    0.90    0.23
  17   4   3    0.74    0.19
  17  -4  -3    0.35    0.16
 -17   5   3    3.87    0.25
  17  -5   3    3.62    0.28
 -17  -5   3    4.18    0.34
  17   5   3    4.04    0.33
  17   5   3    4.04    0.30
  17  -5  -3    4.57    0.32
  17   5   3    3.77    0.16
  17  -6  -3    5.97    0.33
  17   6   3    6.16    0.32
  17   6   3    6.49    0.38
  17   0   4    0.13    0.19
  17   0   4    0.25    0.19
  17   0  -4   -0.11    0.14
  17   0   4    0.12    0.13
  17   0  -4   -0.01    0.13
 -17   0   4    0.44    0.18
 -17   0   4    0.10    0.16
  17   0   4    0.18    0.16
  17   0   4    0.09    0.10
  17  -1   4    3.48    0.37
 -17   1   4    3.11    0.35
  17  -1   4    3.18    0.35
  17  -1   4    3.69    0.26
  17   1  -4    3.36    0.39
 -17   1   4    3.33    0.35
  17  -1   4    3.64    0.38
  17   1   4    2.90    0.32
 -17  -1   4    3.11    0.33
  17  -1  -4    2.79    0.38
  17   1   4    3.75    0.37
  17   1   4    3.15    0.35
  17   1   4    3.21    0.47
 -17  -1   4    3.26    0.38
  17  -1  -4    3.43    0.35
  17   1   4    3.40    0.23
  17  -2   4    7.52    0.45
 -17   2   4    7.18    0.44
 -17   2   4    6.97    0.45
  17  -2   4    7.87    0.38
  17  -2   4    7.39    0.49
  17   2  -4    7.13    0.50
  17  -2  -4    7.12    0.46
 -17  -2   4    7.29    0.50
  17  -2  -4    6.68    0.52
  17   2   4    7.18    0.52
  17   2   4    7.34    0.45
 -17  -2   4    7.19    0.46
  17   2   4    7.49    0.31
  17   2   4    7.63    0.49
 -17   3   4   10.80    0.50
  17  -3   4   11.01    0.46
  17  -3   4   11.15    0.57
  17  -3   4   10.75    0.51
 -17   3   4   10.60    0.52
 -17  -3   4   10.50    0.57
  17   3   4   10.20    0.62
  17  -3  -4   10.64    0.61
  17   3   4   10.65    0.54
  17  -3  -4   10.88    0.55
  17   3   4   10.87    0.33
  17   3   4   10.86    0.57
 -17  -3   4   10.69    0.51
  17  -4   4   10.38    0.43
  17  -4   4    9.46    0.45
  17  -4   4   11.19    0.53
 -17   4   4   10.68    0.41
 -17  -4   4   10.34    0.53
  17  -4  -4   10.07    0.51
  17   4   4   10.70    0.54
  17   4   4   10.21    0.50
  17  -5   4    3.39    0.22
  17  -5   4    3.15    0.25
 -17  -5   4    2.99    0.27
  17   5   4    3.54    0.28
  17  -5  -4    2.75    0.25
  17   5   4    3.10    0.25
 -17   0   5    0.11    0.14
  17   0  -5    0.23    0.16
  17   0   5    0.03    0.15
 -17   0   5    0.10    0.14
  17   0   5   -0.13    0.12
  17   0   5    0.06    0.07
  17   0   5   -0.18    0.15
  17  -1   5    2.28    0.17
 -17   1   5    2.18    0.24
  17  -1   5    2.33    0.28
  17  -1   5    1.64    0.27
 -17   1   5    2.27    0.27
 -17  -1   5    2.17    0.26
  17  -1  -5    1.46    0.27
  17   1   5    2.41    0.30
  17   1   5    2.62    0.31
 -17  -1   5    2.24    0.27
  17  -2   5    5.62    0.38
  17  -2   5    5.66    0.42
 -17   2   5    5.78    0.31
  17  -2   5    5.52    0.27
 -17   2   5    5.60    0.38
  17  -2  -5    6.32    0.38
  17   2   5    5.82    0.38
 -17  -2   5    6.38    0.39
  17  -2  -5    5.75    0.45
 -17  -2   5    5.88    0.37
  17   2   5    5.74    0.40
  17  -3   5   24.48    0.88
  17  -3   5   23.34    0.69
  17  -3   5   24.48    0.83
 -17   3   5   22.99    0.81
 -17  -3   5   23.57    0.85
 -17  -3   5   23.92    0.82
  17   3   5   24.36    0.85
  17   3   5   23.54    0.89
  17  -3  -5   23.32    0.85
  17  -4   5    0.51    0.16
  17  -4   5    0.27    0.09
  17  -4   5    0.35    0.13
  17   4   5    0.19    0.13
  17  -4  -5    0.51    0.14
  17   4   5    0.25    0.12
 -17  -4   5    0.25    0.13
 -17   0   6    0.07    0.12
  17   0   6   -0.11    0.11
  17   0   6   -0.26    0.14
  17  -1   6    0.91    0.19
 -17   1   6    1.11    0.19
  17  -1   6    1.13    0.21
 -17  -1   6    1.01    0.18
  17   1   6    1.24    0.20
 -17  -1   6    1.53    0.13
  17  -2   6    2.52    0.26
 -17   2   6    2.92    0.27
  17  -2   6    3.24    0.31
 -17  -2   6    2.93    0.18
 -17  -2   6    2.84    0.27
  17   2   6    2.92    0.28
  17  -3   6    1.54    0.20
  17  -3   6    1.66    0.22
 -17  -3   6    1.53    0.20
  17   3   6    1.46    0.20
 -17   0   7    0.23    0.11
  17   0   7    0.17    0.11
 -17   1   7    1.42    0.17
  17  -1   7    1.12    0.17
 -17  -1   7    1.22    0.17
  17   1   7    1.31    0.17
  17  -2   7   18.93    0.65
  18   0   0   54.10    1.52
  18   0   0   53.82    1.77
 -18   0   0   53.16    1.68
  18   0   0   52.23    1.89
  18   1   0    0.24    0.16
  18   1   0    0.11    0.14
 -18  -1   0    0.22    0.16
 -18   1   0    0.23    0.16
  18  -1   0    0.35    0.19
  18  -1   0    0.15    0.15
  18   1   0    0.18    0.17
  18  -1   0    0.35    0.16
  18  -2   0    2.94    0.37
  18  -2   0    2.87    0.34
 -18  -2   0    2.34    0.28
 -18   2   0    2.38    0.31
  18   2   0    2.70    0.36
  18   2   0    2.59    0.26
  18   2   0    3.02    0.36
 -18   3   0   13.06    0.61
  18   3   0   13.25    0.63
  18   3   0   12.81    0.70
  18   3   0   13.75    0.55
  18  -3   0   12.30    0.62
  18   4   0    0.84    0.18
  18   4   0    0.66    0.15
  18   4   0    1.02    0.17
 -18   4   0    0.64    0.15
 -18   4   0    0.84    0.23
  18  -4   0    0.74    0.18
  18  -5   0    8.55    0.41
  18   5   0    8.16    0.34
 -18   5   0    8.06    0.43
  18   0   1    8.68    0.59
  18   0  -1    9.26    0.60
  18   0  -1    9.00    0.55
 -18   0  -1    8.80    0.53
 -18   0   1    9.82    0.54
  18   0   1    9.79    0.47
  18   0   1    9.21    0.55
 -18   1   1    4.55    0.39
  18   1  -1    4.35    0.39
  18  -1   1    4.23    0.33
  18   1  -1    4.02    0.41
  18   1  -1    4.66    0.39
  18  -1   1    4.62    0.41
  18  -1   1    4.08    0.44
 -18  -1  -1    4.93    0.39
  18  -1  -1    4.32    0.43
  18  -1  -1    3.95    0.40
  18   1   1    4.43    0.31
 -18   1  -1    4.92    0.41
  18   1   1    4.07    0.38
 -18  -1   1    4.37    0.38
  18   1   1    3.88    0.45
  18   2  -1    3.23    0.31
  18  -2   1    2.90    0.33
  18   2  -1    2.66    0.37
  18  -2   1    2.81    0.27
  18  -2   1    2.95    0.36
 -18  -2  -1    3.37    0.33
  18   2  -1    3.17    0.35
 -18   2   1    3.17    0.33
  18   2   1    3.08    0.28
 -18  -2   1    3.00    0.31
  18   2   1    3.06    0.35
 -18   2  -1    3.12    0.34
  18  -2  -1    3.63    0.38
  18   2   1    2.86    0.29
  18  -2  -1    3.15    0.37
  18   2   1    3.32    0.40
  18   3  -1    2.82    0.35
  18  -3   1    2.99    0.27
  18   3  -1    2.89    0.28
  18   3  -1    3.14    0.32
 -18   3   1    3.08    0.31
  18  -3   1    2.83    0.32
 -18   3   1    2.65    0.34
  18   3   1    2.87    0.28
 -18   3  -1    2.90    0.32
  18   3   1    2.81    0.25
  18   3   1    2.37    0.34
  18   3   1    2.91    0.34
  18  -3  -1    3.38    0.32
  18   4  -1    4.79    0.34
 -18   4   1    5.51    0.34
 -18   4   1    5.51    0.39
  18   4  -1    5.15    0.32
  18  -4   1    4.76    0.33
  18  -4   1    4.76    0.35
  18   4   1    5.64    0.32
  18   4   1    4.74    0.36
 -18   4  -1    4.90    0.34
  18   4   1    5.49    0.29
  18  -4  -1    5.03    0.35
 -18   5   1    1.45    0.19
  18   5  -1    1.53    0.17
  18   5   1    1.61    0.19
  18   5   1    1.62    0.15
  18   5   1    1.68    0.21
  18  -5  -1    1.54    0.19
  18   0  -2    1.30    0.24
  18   0   2    0.78    0.23
 -18   0  -2    0.73    0.20
  18   0   2    0.72    0.21
 -18   0   2    0.53    0.19
  18   0   2    0.74    0.16
  18   0   2    0.93    0.20
  18   0  -2    1.12    0.24
 -18   1   2   37.11    1.28
  18   1  -2   39.34    1.33
  18  -1   2   37.92    1.13
  18  -1   2   38.03    1.35
  18  -1   2   37.81    1.53
 -18   1   2   39.79    1.40
  18   1  -2   38.66    1.46
 -18  -1  -2   39.83    1.30
  18   1   2   37.51    1.45
  18   1   2   39.58    1.37
  18  -1  -2   39.31    1.34
  18  -1  -2   38.00    1.45
  18   1   2   38.01    1.21
  18   1   2   39.32    1.12
 -18  -1   2   39.52    1.29
  18   2  -2    5.32    0.45
  18   2  -2    5.63    0.40
  18  -2   2    5.72    0.34
 -18   2   2    5.54    0.45
 -18   2   2    5.13    0.39
  18  -2   2    5.61    0.41
  18   2   2    5.52    0.31
  18   2   2    5.74    0.46
 -18  -2   2    5.47    0.39
  18  -2  -2    5.15    0.44
  18  -2  -2    5.24    0.40
  18   2   2    5.54    0.36
  18   2   2    5.48    0.41
 -18   3   2    0.75    0.18
  18  -3   2    1.11    0.20
  18  -3   2    1.01    0.17
 -18   3   2    1.02    0.22
  18   3  -2    1.55    0.23
  18   3   2    0.95    0.15
  18   3   2    1.32    0.28
  18   3   2    1.11    0.20
 -18   3  -2    1.47    0.23
  18  -3  -2    0.79    0.18
  18   3   2    1.06    0.23
 -18   4   2   15.65    0.59
  18  -4   2   16.34    0.64
  18  -4   2   16.24    0.58
 -18   4   2   14.91    0.63
  18   4  -2   15.77    0.59
  18   4   2   15.94    0.67
  18   4   2   16.24    0.50
  18   4   2   15.28    0.60
  18  -4  -2   15.67    0.66
 -18   4  -2   16.99    0.65
 -18   5   2   13.32    0.48
  18   5   2   13.23    0.37
  18   5   2   13.39    0.51
  18   5   2   14.14    0.56
  18  -5  -2   13.17    0.53
  18   0  -3   19.70    0.88
  18   0   3   18.95    0.63
 -18   0   3   18.04    0.76
  18   0  -3   18.96    0.78
  18   0   3   18.90    0.73
 -18   0   3   18.71    0.81
  18   0   3   19.69    0.82
 -18   1   3    2.16    0.27
  18   1  -3    2.45    0.28
  18  -1   3    1.73    0.27
  18  -1   3    1.75    0.20
  18   1  -3    2.28    0.33
  18  -1   3    1.90    0.24
 -18   1   3    1.88    0.28
 -18  -1  -3    1.89    0.26
 -18  -1   3    1.99    0.30
 -18  -1   3    1.87    0.25
  18   1   3    2.23    0.30
  18  -1  -3    2.22    0.31
  18   1   3    1.46    0.18
  18  -1  -3    2.03    0.26
  18   1   3    2.08    0.26
 -18   2   3    5.54    0.37
  18  -2   3    5.77    0.40
  18  -2   3    5.59    0.31
  18  -2   3    5.17    0.34
  18  -2   3    5.40    0.38
 -18   2   3    5.79    0.40
  18   2   3    5.59    0.41
  18   2   3    5.49    0.36
  18  -2  -3    4.86    0.42
  18   2   3    5.55    0.28
  18  -2  -3    5.92    0.39
 -18  -2   3    5.30    0.37
 -18  -2   3    4.92    0.42
  18  -3   3    3.91    0.26
 -18   3   3    3.34    0.29
 -18   3   3    3.19    0.29
  18   3   3    3.74    0.29
  18  -3  -3    4.33    0.32
  18   3   3    3.54    0.32
  18   3   3    3.87    0.20
 -18  -3   3    3.97    0.36
  18  -4   3    4.58    0.27
 -18   4   3    4.19    0.25
  18   4   3    5.08    0.34
 -18   4  -3    4.26    0.30
 -18  -4   3    4.37    0.35
  18   4   3    4.62    0.29
  18  -4  -3    4.24    0.30
  18   0   4   24.19    0.91
 -18   0   4   24.93    0.90
  18   0   4   24.50    0.69
  18   0  -4   24.38    0.87
  18   0   4   24.70    0.85
 -18   0   4   23.89    0.87
  18  -1   4    3.44    0.31
  18  -1   4    3.35    0.29
 -18   1   4    3.86    0.32
 -18   1   4    3.36    0.30
 -18  -1  -4    2.68    0.31
  18  -1   4    4.65    0.35
  18  -1   4    3.93    0.22
  18   1   4    3.51    0.19
 -18  -1   4    3.31    0.32
  18   1   4    3.74    0.32
 -18  -1   4    3.80    0.32
  18  -1  -4    3.31    0.32
  18   1   4    4.18    0.31
 -18   2   4    6.92    0.39
  18  -2   4    6.80    0.42
  18  -2   4    7.07    0.31
  18  -2   4    6.83    0.38
 -18   2   4    7.06    0.37
  18   2   4    7.15    0.42
 -18  -2   4    7.30    0.39
  18   2   4    7.58    0.41
 -18  -2   4    7.26    0.42
  18  -2  -4    7.82    0.41
 -18   3   4    9.96    0.37
 -18   3   4    9.48    0.44
  18  -3   4    9.36    0.45
  18  -3   4   10.15    0.47
  18  -3   4    9.48    0.36
  18   3   4    9.22    0.44
 -18  -3   4   10.07    0.47
  18   3   4    9.87    0.49
  18  -3  -4    9.71    0.46
  18  -4   4    4.71    0.22
  18   4   4    4.60    0.28
 -18  -4   4    4.69    0.29
  18   4   4    4.73    0.31
  18  -4  -4    4.58    0.30
 -18   0   5    2.74    0.27
  18   0   5    2.89    0.27
 -18   0   5    3.04    0.22
 -18   1   5    9.73    0.45
 -18   1   5    9.68    0.35
  18  -1   5   10.02    0.45
  18  -1   5    9.77    0.47
  18   1   5    9.49    0.46
 -18  -1   5    9.71    0.41
 -18  -1   5   10.31    0.46
  18   1   5    9.73    0.45
 -18   2   5    6.78    0.35
  18  -2   5    6.60    0.38
  18  -2   5    6.64    0.35
  18   2   5    6.51    0.38
 -18  -2   5    6.77    0.36
 -18  -2   5    7.28    0.32
  18   2   5    7.20    0.37
  18  -3   5    0.31    0.13
  18   3   5    0.02    0.09
 -18  -3   5    0.09    0.10
  18   0   6   24.01    0.76
 -18   0   6   23.14    0.77
 -18  -1   6   27.01    0.87
  18   1   6   27.81    0.85
  19   0   0    0.03    0.12
  19   0   0   -0.14    0.10
 -19   0   0    0.06    0.12
 -19   1   0    1.33    0.22
  19   1   0    1.19    0.21
 -19  -1   0    1.45    0.21
  19   1   0    1.50    0.18
  19  -1   0    1.20    0.18
  19  -1   0    1.63    0.25
  19  -2   0   29.90    0.92
  19  -2   0   31.51    1.07
 -19   2   0   29.82    1.01
  19   2   0   31.13    1.06
  19   2   0   30.39    0.91
 -19   3   0    0.10    0.11
  19   3   0    0.17    0.12
  19  -3   0    0.14    0.12
  19   3   0    0.18    0.10
 -19   0  -1    0.02    0.11
 -19   0   1   -0.03    0.11
  19   0   1    0.16    0.12
  19   0  -1   -0.19    0.12
  19   0   1    0.09    0.10
  19   0  -1    0.16    0.13
 -19  -1  -1    0.53    0.16
 -19   1   1    0.24    0.14
  19  -1   1    0.43    0.16
  19   1  -1    0.51    0.14
  19  -1   1    0.32    0.12
  19   1  -1    0.53    0.16
  19   1   1    0.52    0.15
  19  -1  -1    0.33    0.13
 -19  -1   1    0.53    0.15
  19   1   1    0.33    0.11
 -19   1  -1    0.85    0.18
  19   2  -1    5.29    0.34
  19  -2   1    5.12    0.35
  19  -2   1    4.99    0.29
  19   2  -1    4.96    0.32
 -19   2   1    4.94    0.34
 -19   2   1    5.14    0.37
 -19  -2   1    4.50    0.31
  19   2   1    4.47    0.27
 -19   2  -1    5.86    0.36
  19   2   1    4.85    0.35
  19  -2  -1    5.11    0.35
 -19   3   1    4.12    0.29
  19   3  -1    4.88    0.27
  19  -3   1    3.86    0.26
  19  -3   1    3.92    0.30
 -19   3   1    4.39    0.32
  19   3  -1    4.29    0.29
  19  -3  -1    4.44    0.31
 -19   3  -1    4.74    0.31
  19   3   1    4.08    0.30
  19   3   1    4.16    0.23
  19   0   2    0.28    0.14
 -19   0  -2    0.17    0.13
 -19   0   2    0.03    0.16
  19   0  -2    0.16    0.12
 -19   0   2    0.12    0.12
  19   0   2   -0.03    0.08
 -19  -1  -2   16.61    0.64
  19  -1   2   16.62    0.57
  19   1  -2   16.58    0.67
  19  -1   2   17.23    0.70
 -19   1   2   16.41    0.71
 -19   1   2   16.85    0.66
 -19   1  -2   17.49    0.69
  19   1   2   16.51    0.60
  19  -1  -2   17.97    0.70
 -19  -1   2   15.86    0.72
  19   1   2   16.64    0.55
 -19  -1   2   17.88    0.67
  19   1   2   17.23    0.71
 -19   2   2    0.75    0.17
  19   2  -2    0.29    0.13
  19  -2   2    0.56    0.12
  19  -2   2    0.47    0.15
 -19   2   2    0.61    0.14
 -19  -2   2    0.23    0.20
  19   2   2    0.40    0.10
  19  -2  -2    0.34    0.13
  19   2   2    0.57    0.16
 -19   2  -2    0.41    0.14
 -19  -2   2    0.42    0.14
  19   2   2    0.54    0.14
 -19   3   2   17.66    0.64
 -19   3   2   18.05    0.67
  19   3   2   18.70    0.71
 -19   3  -2   19.25    0.68
  19  -3  -2   19.17    0.69
  19   3   2   18.57    0.52
  19   0   3    0.05    0.12
  19   0  -3    0.20    0.11
 -19   0   3    0.08    0.11
 -19   0  -3    0.05    0.11
 -19   0   3    0.31    0.14
  19   0   3   -0.01    0.07
  19   0   3    0.04    0.11
  19  -1   3    0.32    0.12
 -19   1   3    0.19    0.14
 -19   1   3    0.22    0.12
  19  -1   3    0.30    0.09
  19   1   3    0.28    0.08
 -19  -1   3    0.26    0.12
  19  -1  -3    0.67    0.15
 -19   1  -3    0.64    0.15
  19   1   3    0.30    0.13
 -19  -1   3    0.35    0.16
  19   1   3    0.18    0.11
 -19   2   3    4.94    0.30
  19  -2   3    5.25    0.25
 -19   2   3    4.97    0.31
  19   2   3    5.06    0.33
  19   2   3    5.01    0.17
 -19  -2   3    5.31    0.34
  19   2   3    5.07    0.29
  19  -2  -3    5.11    0.32
 -19   2  -3    4.57    0.31
  19  -3   3    0.79    0.11
  19   3   3    0.82    0.17
 -19   3  -3    0.73    0.16
 -19   0   4   -0.08    0.08
 -19   0   4    0.10    0.10
 -19   1   4    5.20    0.29
 -19   1   4    4.83    0.24
 -19   1  -4    4.01    0.30
 -19  -1   4    4.56    0.28
 -19  -1   4    4.69    0.27
  20   0   0    2.13    0.22
 -20   1   0    0.29    0.11
  20  -1   0    0.18    0.11
  20   1   0    0.23    0.12
  20   0   1    6.45    0.35
   0   0   0    0.00    0.00
;
_shelx_hkl_checksum              52662
loop_
_space_group_symop_operation_xyz
'x, y, z'
'-x, -y, z+1/2'
'x+1/2, -y, z'
'-x+1/2, y, z+1/2'
loop_
_atom_site_label
_atom_site_type_symbol
_atom_site_fract_x
_atom_site_fract_y
_atom_site_fract_z
_atom_site_U_iso_or_equiv
_atom_site_adp_type
_atom_site_occupancy
_atom_site_site_symmetry_order
_atom_site_calc_flag
_atom_site_refinement_flags_posn
_atom_site_refinement_flags_adp
S1 S 0.13751(4) 0.55034(8) 0.09927(7) 0.0252(2) Uani 1 1 d . .
Si2 Si 0.08748(4) 0.10439(7) -0.17709(8) 0.01840(19) Uani 1 1 d . .
O5 O 0.09242(12) 0.2479(2) -0.09958(19) 0.0178(4) Uani 1 1 d . .
N2 N 0.07313(14) 0.4277(3) 0.0837(2) 0.0178(5) Uani 1 1 d D .
O4 O -0.02633(13) 0.2290(2) 0.1129(2) 0.0272(5) Uani 1 1 d . .
O3 O 0.15262(14) 0.6050(2) -0.0297(2) 0.0256(5) Uani 1 1 d . .
O2 O 0.10063(16) 0.6596(3) 0.1599(2) 0.0376(6) Uani 1 1 d . .
O1 O 0.21071(15) 0.4924(3) 0.1470(3) 0.0407(7) Uani 1 1 d . .
C2 C 0.10267(18) 0.4645(3) -0.1923(3) 0.0205(6) Uani 1 1 d . .
H2A H 0.1211 0.4255 -0.2671 0.025 Uiso 1 1 calc R U
H2B H 0.0701 0.5428 -0.2118 0.025 Uiso 1 1 calc R U
C10 C 0.1745(2) 0.0039(3) -0.1143(3) 0.0303(7) Uani 1 1 d . .
C1 C 0.17752(18) 0.5089(3) -0.1227(3) 0.0244(6) Uani 1 1 d . .
H1A H 0.2037 0.4321 -0.0858 0.029 Uiso 1 1 calc R U
H1B H 0.2170 0.5502 -0.1763 0.029 Uiso 1 1 calc R U
C6 C -0.03517(18) 0.5414(3) -0.0310(3) 0.0210(6) Uani 1 1 d . .
C8 C -0.0149(2) 0.0250(3) -0.1581(4) 0.0350(9) Uani 1 1 d . .
H8A H -0.0236 0.0049 -0.0751 0.053 Uiso 1 1 calc R U
H8B H -0.0170 -0.0560 -0.2039 0.053 Uiso 1 1 calc R U
H8C H -0.0571 0.0850 -0.1854 0.053 Uiso 1 1 calc R U
C4 C 0.00957(16) 0.4170(3) -0.0082(3) 0.0153(5) Uani 1 1 d . .
C7 C -0.0733(2) 0.6360(4) -0.0607(4) 0.0322(7) Uani 1 1 d . .
H7 H -0.1033 0.7107 -0.0841 0.039 Uiso 1 1 calc R U
C3 C 0.04689(16) 0.3636(3) -0.1290(3) 0.0157(5) Uani 1 1 d . .
H3 H 0.0017 0.3388 -0.1827 0.019 Uiso 1 1 calc R U
C5 C -0.13429(18) 0.3003(3) -0.0152(3) 0.0276(7) Uani 1 1 d . .
H5A H -0.1566 0.2122 -0.0054 0.041 Uiso 1 1 calc R U
H5B H -0.1310 0.3213 -0.0988 0.041 Uiso 1 1 calc R U
H5C H -0.1695 0.3638 0.0241 0.041 Uiso 1 1 calc R U
C9 C -0.04982(17) 0.3061(3) 0.0387(3) 0.0181(6) Uani 1 1 d . .
C12 C 0.1872(2) -0.1217(3) -0.1904(4) 0.0347(8) Uani 1 1 d . .
H12A H 0.1366 -0.1713 -0.1941 0.052 Uiso 1 1 calc R U
H12B H 0.2295 -0.1761 -0.1551 0.052 Uiso 1 1 calc R U
H12C H 0.2035 -0.0963 -0.2697 0.052 Uiso 1 1 calc R U
C11 C 0.1016(3) 0.1377(4) -0.3399(3) 0.0344(8) Uani 1 1 d . .
H11A H 0.0576 0.1935 -0.3681 0.052 Uiso 1 1 calc R U
H11B H 0.1011 0.0547 -0.3829 0.052 Uiso 1 1 calc R U
H11C H 0.1535 0.1819 -0.3525 0.052 Uiso 1 1 calc R U
C13 C 0.1535(3) -0.0354(5) 0.0162(4) 0.0488(11) Uani 1 1 d . .
H13A H 0.1413 0.0436 0.0615 0.073 Uiso 1 1 calc R U
H13B H 0.1997 -0.0806 0.0513 0.073 Uiso 1 1 calc R U
H13C H 0.1063 -0.0935 0.0166 0.073 Uiso 1 1 calc R U
C14 C 0.2543(2) 0.0876(4) -0.1182(5) 0.0508(12) Uani 1 1 d . .
H14A H 0.2632 0.1197 -0.1980 0.076 Uiso 1 1 calc R U
H14B H 0.3002 0.0332 -0.0942 0.076 Uiso 1 1 calc R U
H14C H 0.2492 0.1621 -0.0647 0.076 Uiso 1 1 calc R U
H2 H 0.097(2) 0.3513(19) 0.100(4) 0.034(11) Uiso 1 1 d D .
loop_
_atom_site_aniso_label
_atom_site_aniso_U_11
_atom_site_aniso_U_22
_atom_site_aniso_U_33
_atom_site_aniso_U_23
_atom_site_aniso_U_13
_atom_site_aniso_U_12
S1 0.0188(3) 0.0405(4) 0.0163(4) -0.0087(3) 0.0028(3) -0.0134(3)
Si2 0.0159(3) 0.0190(4) 0.0202(4) -0.0008(3) 0.0002(3) 0.0017(3)
O5 0.0146(9) 0.0194(9) 0.0194(11) -0.0012(8) -0.0009(7) 0.0036(7)
N2 0.0135(10) 0.0252(12) 0.0146(13) -0.0010(10) -0.0011(9) -0.0019(9)
O4 0.0249(10) 0.0283(11) 0.0285(12) 0.0066(10) 0.0039(10) -0.0028(8)
O3 0.0263(11) 0.0301(12) 0.0205(12) -0.0080(9) 0.0082(9) -0.0122(8)
O2 0.0410(14) 0.0436(14) 0.0282(13) -0.0183(11) 0.0161(11) -0.0218(11)
O1 0.0209(12) 0.0727(18) 0.0284(13) -0.0049(13) -0.0062(10) -0.0144(12)
C2 0.0238(14) 0.0210(13) 0.0166(16) -0.0032(11) 0.0028(12) -0.0019(10)
C10 0.0310(17) 0.0292(15) 0.0308(18) -0.0020(14) -0.0108(15) 0.0119(13)
C1 0.0222(14) 0.0314(15) 0.0196(15) -0.0070(12) 0.0101(13) -0.0090(12)
C6 0.0185(14) 0.0244(14) 0.0200(15) -0.0033(11) 0.0013(12) 0.0008(11)
C8 0.0241(16) 0.0290(16) 0.052(2) -0.0123(16) 0.0053(15) -0.0040(13)
C4 0.0114(12) 0.0180(12) 0.0165(14) -0.0022(11) -0.0004(10) -0.0009(10)
C7 0.0368(18) 0.0260(16) 0.0337(19) -0.0021(14) -0.0029(15) 0.0098(14)
C3 0.0146(11) 0.0163(12) 0.0161(13) -0.0022(10) -0.0017(10) -0.0002(10)
C5 0.0152(14) 0.0342(17) 0.0334(18) -0.0045(14) 0.0014(13) -0.0064(12)
C9 0.0152(13) 0.0201(13) 0.0189(14) -0.0053(12) 0.0050(10) -0.0006(11)
C12 0.0382(17) 0.0291(16) 0.037(2) -0.0091(15) -0.0111(16) 0.0185(13)
C11 0.053(2) 0.0318(16) 0.0187(16) 0.0006(14) -0.0019(15) 0.0068(16)
C13 0.073(3) 0.047(2) 0.026(2) 0.0088(17) -0.011(2) 0.022(2)
C14 0.0214(16) 0.047(2) 0.083(4) -0.021(2) -0.017(2) 0.0072(16)
loop_
_atom_type_symbol
_atom_type_description
_atom_type_scat_dispersion_real
_atom_type_scat_dispersion_imag
_atom_type_scat_source
C C 0.0181 0.0091 'International Tables Vol C Tables 4.2.6.8 and 6.1.1.4'
H H 0.0000 0.0000 'International Tables Vol C Tables 4.2.6.8 and 6.1.1.4'
N N 0.0311 0.0180 'International Tables Vol C Tables 4.2.6.8 and 6.1.1.4'
O O 0.0492 0.0322 'International Tables Vol C Tables 4.2.6.8 and 6.1.1.4'
Si Si 0.2541 0.3302 'International Tables Vol C Tables 4.2.6.8 and 6.1.1.4'
S S 0.3331 0.5567 'International Tables Vol C Tables 4.2.6.8 and 6.1.1.4'
loop_
_geom_angle_atom_site_label_1
_geom_angle_atom_site_label_2
_geom_angle_atom_site_label_3
_geom_angle
O2 S1 O1 119.07(18)
O2 S1 O3 103.70(15)
O1 S1 O3 110.99(15)
O2 S1 N2 111.40(13)
O1 S1 N2 105.51(16)
O3 S1 N2 105.49(12)
O5 Si2 C8 110.53(13)
O5 Si2 C11 110.19(14)
C8 Si2 C11 107.4(2)
O5 Si2 C10 103.33(13)
C8 Si2 C10 113.67(17)
C11 Si2 C10 111.74(17)
C3 O5 Si2 123.84(18)
C4 N2 S1 125.8(2)
C4 N2 H2 114(3)
S1 N2 H2 110(2)
C1 O3 S1 117.7(2)
C1 C2 C3 115.5(3)
C1 C2 H2A 108.4
C3 C2 H2A 108.4
C1 C2 H2B 108.4
C3 C2 H2B 108.4
H2A C2 H2B 107.5
C12 C10 C14 108.5(3)
C12 C10 C13 110.2(3)
C14 C10 C13 110.4(4)
C12 C10 Si2 109.5(2)
C14 C10 Si2 109.2(2)
C13 C10 Si2 109.0(3)
O3 C1 C2 109.7(2)
O3 C1 H1A 109.7
C2 C1 H1A 109.7
O3 C1 H1B 109.7
C2 C1 H1B 109.7
H1A C1 H1B 108.2
C7 C6 C4 173.1(4)
Si2 C8 H8A 109.5
Si2 C8 H8B 109.5
H8A C8 H8B 109.5
Si2 C8 H8C 109.5
H8A C8 H8C 109.5
H8B C8 H8C 109.5
N2 C4 C6 114.2(2)
N2 C4 C9 104.5(2)
C6 C4 C9 111.0(2)
N2 C4 C3 111.0(2)
C6 C4 C3 109.2(2)
C9 C4 C3 106.5(2)
C6 C7 H7 180.0
O5 C3 C2 109.9(2)
O5 C3 C4 106.2(2)
C2 C3 C4 113.6(2)
O5 C3 H3 109.0
C2 C3 H3 109.0
C4 C3 H3 109.0
C9 C5 H5A 109.5
C9 C5 H5B 109.5
H5A C5 H5B 109.5
C9 C5 H5C 109.5
H5A C5 H5C 109.5
H5B C5 H5C 109.5
O4 C9 C5 123.1(3)
O4 C9 C4 119.8(3)
C5 C9 C4 117.2(3)
C10 C12 H12A 109.5
C10 C12 H12B 109.5
H12A C12 H12B 109.5
C10 C12 H12C 109.5
H12A C12 H12C 109.5
H12B C12 H12C 109.5
Si2 C11 H11A 109.5
Si2 C11 H11B 109.5
H11A C11 H11B 109.5
Si2 C11 H11C 109.5
H11A C11 H11C 109.5
H11B C11 H11C 109.5
C10 C13 H13A 109.5
C10 C13 H13B 109.5
H13A C13 H13B 109.5
C10 C13 H13C 109.5
H13A C13 H13C 109.5
H13B C13 H13C 109.5
C10 C14 H14A 109.5
C10 C14 H14B 109.5
H14A C14 H14B 109.5
C10 C14 H14C 109.5
H14A C14 H14C 109.5
H14B C14 H14C 109.5
loop_
_geom_bond_atom_site_label_1
_geom_bond_atom_site_label_2
_geom_bond_distance
S1 O2 1.419(3)
S1 O1 1.424(3)
S1 O3 1.563(2)
S1 N2 1.621(2)
Si2 O5 1.680(2)
Si2 C8 1.851(3)
Si2 C11 1.866(4)
Si2 C10 1.869(3)
O5 C3 1.413(3)
N2 C4 1.459(4)
N2 H2 0.8799(14)
O4 C9 1.196(4)
O3 C1 1.473(4)
C2 C1 1.508(4)
C2 C3 1.530(4)
C2 H2A 0.9700
C2 H2B 0.9700
C10 C12 1.533(4)
C10 C14 1.542(5)
C10 C13 1.550(6)
C1 H1A 0.9700
C1 H1B 0.9700
C6 C7 1.179(5)
C6 C4 1.464(4)
C8 H8A 0.9600
C8 H8B 0.9600
C8 H8C 0.9600
C4 C9 1.560(4)
C4 C3 1.574(4)
C7 H7 0.9300
C3 H3 0.9800
C5 C9 1.497(4)
C5 H5A 0.9600
C5 H5B 0.9600
C5 H5C 0.9600
C12 H12A 0.9600
C12 H12B 0.9600
C12 H12C 0.9600
C11 H11A 0.9600
C11 H11B 0.9600
C11 H11C 0.9600
C13 H13A 0.9600
C13 H13B 0.9600
C13 H13C 0.9600
C14 H14A 0.9600
C14 H14B 0.9600
C14 H14C 0.9600
loop_
_geom_torsion_atom_site_label_1
_geom_torsion_atom_site_label_2
_geom_torsion_atom_site_label_3
_geom_torsion_atom_site_label_4
_geom_torsion
C8 Si2 O5 C3 -68.6(3)
C11 Si2 O5 C3 49.9(3)
C10 Si2 O5 C3 169.5(2)
O2 S1 N2 C4 81.0(3)
O1 S1 N2 C4 -148.4(2)
O3 S1 N2 C4 -30.9(3)
O2 S1 O3 C1 -169.7(2)
O1 S1 O3 C1 61.3(2)
N2 S1 O3 C1 -52.5(2)
O5 Si2 C10 C12 -170.7(2)
C8 Si2 C10 C12 69.5(3)
C11 Si2 C10 C12 -52.2(3)
O5 Si2 C10 C14 -51.9(3)
C8 Si2 C10 C14 -171.8(3)
C11 Si2 C10 C14 66.5(3)
O5 Si2 C10 C13 68.8(3)
C8 Si2 C10 C13 -51.1(3)
C11 Si2 C10 C13 -172.8(3)
S1 O3 C1 C2 96.3(3)
C3 C2 C1 O3 -76.2(3)
S1 N2 C4 C6 -42.2(3)
S1 N2 C4 C9 -163.73(19)
S1 N2 C4 C3 81.9(3)
Si2 O5 C3 C2 -102.1(2)
Si2 O5 C3 C4 134.55(19)
C1 C2 C3 O5 -58.4(3)
C1 C2 C3 C4 60.5(3)
N2 C4 C3 O5 50.3(3)
C6 C4 C3 O5 177.1(2)
C9 C4 C3 O5 -62.9(3)
N2 C4 C3 C2 -70.7(3)
C6 C4 C3 C2 56.1(3)
C9 C4 C3 C2 176.1(2)
N2 C4 C9 O4 -19.7(3)
C6 C4 C9 O4 -143.3(3)
C3 C4 C9 O4 97.9(3)
N2 C4 C9 C5 161.7(2)
C6 C4 C9 C5 38.0(3)
C3 C4 C9 C5 -80.8(3)
