#------------------------------------------------------------------------------
#$Date: 2016-03-05 12:29:44 +0200 (Sat, 05 Mar 2016) $
#$Revision: 177883 $
#$URL: svn://www.crystallography.net/cod/cif/1/54/19/1541907.cif $
#------------------------------------------------------------------------------
#
# This file is available in the Crystallography Open Database (COD),
# http://www.crystallography.net/
#
# All data on this site have been placed in the public domain by the
# contributors.
#
data_1541907
loop_
_publ_author_name
'Nuthanakanti, Ashok'
'Srivatsan, Seergazhi G.'
_publ_section_title
;
 Hierarchical self-assembly of switchable nucleolipid supramolecular gels
 based on environmentally-sensitive fluorescent nucleoside analogs.
;
_journal_issue                   6
_journal_name_full               Nanoscale
_journal_page_first              3607
_journal_page_last               3619
_journal_paper_doi               10.1039/c5nr07490h
_journal_volume                  8
_journal_year                    2016
_chemical_absolute_configuration unk
_chemical_formula_sum            'C55 H82 N2 O8 S'
_chemical_formula_weight         931.28
_space_group_crystal_system      triclinic
_space_group_IT_number           1
_space_group_name_Hall           'P 1'
_space_group_name_H-M_alt        'P 1'
_symmetry_space_group_name_Hall  'P 1'
_symmetry_space_group_name_H-M   'P 1'
_atom_sites_solution_hydrogens   geom
_audit_creation_method           SHELXL-2014/6
_cell_angle_alpha                92.65(2)
_cell_angle_beta                 95.509(19)
_cell_angle_gamma                93.348(20)
_cell_formula_units_Z            1
_cell_length_a                   5.385(8)
_cell_length_b                   9.274(13)
_cell_length_c                   25.69(4)
_cell_measurement_temperature    296(2)
_cell_volume                     1273(3)
_computing_cell_refinement       'Bruker SAINT'
_computing_data_collection       'Bruker APEX2'
_computing_data_reduction        'Bruker SAINT'
_computing_molecular_graphics    'Bruker SHELXTL'
_computing_publication_material  'Bruker SHELXTL'
_computing_structure_refinement  'SHELXL-2013 (Sheldrick 2013)'
_computing_structure_solution    'SHELXS-97 (Sheldrick 2008)'
_diffrn_ambient_temperature      296(2)
_diffrn_measured_fraction_theta_full 0.897
_diffrn_measured_fraction_theta_max 0.922
_diffrn_measurement_device_type  'Bruker APEX-II CCD'
_diffrn_measurement_method       '\f and \w scans'
_diffrn_radiation_type           MoK\a
_diffrn_radiation_wavelength     0.71073
_diffrn_reflns_av_R_equivalents  0.1855
_diffrn_reflns_av_unetI/netI     0.2469
_diffrn_reflns_laue_measured_fraction_full 0.897
_diffrn_reflns_laue_measured_fraction_max 0.922
_diffrn_reflns_limit_h_max       6
_diffrn_reflns_limit_h_min       -6
_diffrn_reflns_limit_k_max       10
_diffrn_reflns_limit_k_min       -10
_diffrn_reflns_limit_l_max       30
_diffrn_reflns_limit_l_min       -30
_diffrn_reflns_number            11701
_diffrn_reflns_point_group_measured_fraction_full 0.586
_diffrn_reflns_point_group_measured_fraction_max 0.601
_diffrn_reflns_theta_full        25.242
_diffrn_reflns_theta_max         25.026
_diffrn_reflns_theta_min         4.274
_exptl_absorpt_coefficient_mu    0.119
_exptl_absorpt_correction_type   multi-scan
_exptl_absorpt_process_details   'multi-scan absorption correction'
_exptl_crystal_colour            colourless
_exptl_crystal_density_diffrn    1.215
_exptl_crystal_description       plates
_exptl_crystal_F_000             506
_exptl_crystal_size_max          0.390
_exptl_crystal_size_mid          0.180
_exptl_crystal_size_min          0.030
_exptl_transmission_factor_max   0.7458
_exptl_transmission_factor_min   0.3843
_refine_diff_density_max         0.449
_refine_diff_density_min         -0.428
_refine_diff_density_rms         0.082
_refine_ls_abs_structure_details
;
 Flack x determined using 392 quotients [(I+)-(I-)]/[(I+)+(I-)]
 (Parsons, Flack and Wagner, Acta Cryst. B69 (2013) 249-259).
;
_refine_ls_abs_structure_Flack   -0.4(3)
_refine_ls_extinction_coef       0.010(5)
_refine_ls_extinction_expression Fc^*^=kFc[1+0.001xFc^2^\l^3^/sin(2\q)]^-1/4^
_refine_ls_extinction_method     SHELXL
_refine_ls_goodness_of_fit_ref   1.001
_refine_ls_hydrogen_treatment    constr
_refine_ls_matrix_type           full
_refine_ls_number_parameters     569
_refine_ls_number_reflns         5427
_refine_ls_number_restraints     168
_refine_ls_restrained_S_all      0.986
_refine_ls_R_factor_all          0.2437
_refine_ls_R_factor_gt           0.1082
_refine_ls_shift/su_max          0.000
_refine_ls_shift/su_mean         0.000
_refine_ls_structure_factor_coef Fsqd
_refine_ls_weighting_details
'w=1/[\s^2^(Fo^2^)+(0.1487P)^2^] where P=(Fo^2^+2Fc^2^)/3'
_refine_ls_weighting_scheme      calc
_refine_ls_wR_factor_gt          0.2511
_refine_ls_wR_factor_ref         0.3229
_reflns_Friedel_coverage         0.305
_reflns_friedel_fraction_full    0.274
_reflns_friedel_fraction_max     0.281
_reflns_number_gt                2185
_reflns_number_total             5427
_reflns_threshold_expression     'I > 2\s(I)'
_cod_data_source_file            c5nr07490h2.cif
_cod_data_source_block           10
_cod_depositor_comments
;
The following automatic conversions were performed:

'_chemical_absolute_configuration' value 'UNK' changed to 'unk'
according to
/usr/data/users/saulius/crontab/automatic-downloads/rss-feeds/RSC/lib/dictionaries/cif_core.dic
dictionary named 'cif_core.dic' version 2.4.2 from 2011-04-26.

Automatic conversion script
Id: cif_fix_values 4268 2015-11-12 08:31:59Z antanas 

 Adding full bibliography for 1541907--1541910.cif.
;
_cod_database_code               1541907
_shelx_space_group_comment
;
The symmetry employed for this shelxl refinement is uniquely defined
by the following loop, which should always be used as a source of
symmetry information in preference to the above space-group names.
They are only intended as comments.
;
_shelxl_version_number           2014/6
_shelx_res_file
;
TITL TRIAL001 in P1
CELL  0.71073   5.3852   9.2744  25.6907   92.651   95.509   93.348
ZERR    1.00   0.00780   0.01340   0.03570   0.0213   0.0194   0.0195
LATT -1
SFAC C  H  N  O  S
UNIT 55  82  2  8  1
L.S. 75
SHEL 0.84 5
ACTA
BOND
FMAP 2
PLAN 40
ISOR 0.001 O6 N1 N3 C7 O3' C3' C4 C9 C14 C18 C31 C33 C1' C4' C2' O4 C43
TEMP 23.000
WGHT    0.148700
EXTI    0.009925
FVAR       0.67719   0.41672
S1    5    0.810905    0.395212    0.370367    11.00000    0.02408    0.06289 =
         0.06874   -0.00537   -0.00106    0.00362
O2    4    1.728828    0.336257    0.551463    11.00000    0.03014    0.02998 =
         0.06213   -0.00879   -0.00412   -0.00649
O15   4    0.782892    0.054444    0.606475    11.00000    0.01568    0.02258 =
         0.06635   -0.00224    0.00849   -0.00172
O6    4    1.055470   -0.338571    0.540700    11.00000    0.04632    0.04531 =
         0.04916    0.00235    0.00171    0.00165
O4    4    1.508541    0.675562    0.440633    11.00000    0.04287    0.04467 =
         0.04924    0.00309    0.00540    0.00477
N1    3    1.380699    0.281614    0.494706    11.00000    0.02309    0.02342 =
         0.02445    0.00101    0.00249    0.00119
N3    3    1.608134    0.500723    0.494575    11.00000    0.03363    0.03333 =
         0.03413    0.00175    0.00323    0.00176
AFIX  43
H3    2    1.728676    0.558928    0.508659    11.00000   -1.20000
AFIX   0
C36   1    1.026367   -0.068709    0.757573    11.00000    0.01867    0.03979 =
         0.04718   -0.00356    0.00182    0.00745
AFIX  23
H36A  2    0.899551   -0.036661    0.732035    11.00000   -1.20000
H36B  2    0.960575   -0.157982    0.770776    11.00000   -1.20000
AFIX   0
C21   1    0.350208    0.571844    0.822737    11.00000    0.02495    0.02152 =
         0.05323   -0.00265    0.00810    0.00991
AFIX  23
H21A  2    0.281319    0.483021    0.835716    11.00000   -1.20000
H21B  2    0.226770    0.604680    0.796646    11.00000   -1.20000
AFIX   0
C44   1    0.306704    0.532206    1.038249    11.00000    0.03470    0.04259 =
         0.04374   -0.00575    0.00208    0.00077
AFIX  23
H44A  2    0.176425    0.559821    1.012567    11.00000   -1.20000
H44B  2    0.245091    0.444312    1.053069    11.00000   -1.20000
AFIX   0
C27   1   -0.198402    1.021111    1.033067    11.00000    0.03606    0.06636 =
         0.03166   -0.00483    0.01243    0.00725
AFIX  23
H27A  2   -0.326938    1.047634    1.006789    11.00000   -1.20000
H27B  2   -0.261205    0.934106    1.048278    11.00000   -1.20000
AFIX   0
C32   1    1.394932   -0.324511    0.607456    11.00000    0.04120    0.01842 =
         0.03402   -0.00681    0.00079    0.01157
AFIX  23
H32A  2    1.550539   -0.334669    0.591897    11.00000   -1.20000
H32B  2    1.334149   -0.419994    0.616229    11.00000   -1.20000
AFIX   0
C37   1    1.070609    0.043092    0.802144    11.00000    0.01815    0.02797 =
         0.04327   -0.00913    0.01127   -0.00411
AFIX  23
H37A  2    1.192544    0.009356    0.828349    11.00000   -1.20000
H37B  2    1.142332    0.131312    0.789258    11.00000   -1.20000
AFIX   0
C2    1    1.587683    0.364562    0.516750    11.00000    0.02619    0.03316 =
         0.05151   -0.00465   -0.00423    0.00596
C38   1    0.843136    0.077606    0.827676    11.00000    0.02763    0.01820 =
         0.06088   -0.00310    0.01082   -0.00487
AFIX  23
H38A  2    0.777310   -0.009221    0.842534    11.00000   -1.20000
H38B  2    0.717270    0.105645    0.801115    11.00000   -1.20000
AFIX   0
C4'   1    1.160026   -0.078692    0.471978    11.00000    0.02777    0.02775 =
         0.02850    0.00120    0.00245    0.00193
AFIX  13
H4'   2    1.244473   -0.168920    0.468497    11.00000   -1.20000
AFIX   0
C20   1    0.581516    0.540142    0.797043    11.00000    0.01779    0.02357 =
         0.06049   -0.00678    0.00088   -0.01077
AFIX  23
H20A  2    0.706920    0.510568    0.823402    11.00000   -1.20000
H20B  2    0.647149    0.628334    0.783054    11.00000   -1.20000
AFIX   0
C22   1    0.395719    0.685254    0.867774    11.00000    0.03643    0.01655 =
         0.03850   -0.00238    0.00684    0.01116
AFIX  23
H22A  2    0.519181    0.652014    0.893772    11.00000   -1.20000
H22B  2    0.465863    0.773625    0.854700    11.00000   -1.20000
AFIX   0
C16   1    0.985045    0.248034    0.662965    11.00000    0.03137    0.03812 =
         0.03767   -0.00223    0.00006   -0.01480
AFIX  23
H16A  2    1.056040    0.339330    0.652358    11.00000   -1.20000
H16B  2    1.101503    0.213468    0.690059    11.00000   -1.20000
AFIX   0
C31   1    1.209079   -0.267813    0.567978    11.00000    0.03415    0.03418 =
         0.03455    0.00131    0.00333    0.00234
C6    1    1.225457    0.327093    0.454937    11.00000    0.02587    0.01887 =
         0.05560   -0.01136    0.00620   -0.00678
AFIX  43
H6    2    1.091781    0.263794    0.441602    11.00000   -1.20000
AFIX   0
C18   1    0.779174    0.388147    0.729449    11.00000    0.03659    0.03706 =
         0.03724    0.00166    0.00386    0.00212
AFIX  23
H18A  2    0.852611    0.475577    0.716329    11.00000   -1.20000
H18B  2    0.897533    0.356094    0.756712    11.00000   -1.20000
AFIX   0
C40   1    0.659771    0.228399    0.897254    11.00000    0.03470    0.02571 =
         0.04837    0.00196    0.01672   -0.00172
AFIX  23
H40A  2    0.529577    0.255308    0.871416    11.00000   -1.20000
H40B  2    0.598934    0.141036    0.912529    11.00000   -1.20000
AFIX   0
C15   1    0.958605    0.142754    0.617531    11.00000    0.06613    0.02138 =
         0.02844    0.00218   -0.00181    0.00662
C39   1    0.885935    0.196264    0.870185    11.00000    0.03016    0.01047 =
         0.04802   -0.00126    0.00733   -0.00598
AFIX  23
H39A  2    1.015930    0.169605    0.896115    11.00000   -1.20000
H39B  2    0.946672    0.283853    0.855039    11.00000   -1.20000
AFIX   0
C45   1    0.346838    0.647981    1.080818    11.00000    0.03132    0.06319 =
         0.06673   -0.01191    0.00338    0.00309
AFIX  23
H45A  2    0.479294    0.621226    1.106167    11.00000   -1.20000
H45B  2    0.405482    0.736326    1.065861    11.00000   -1.20000
AFIX   0
C26   1    0.029624    0.985962    1.006029    11.00000    0.02712    0.04957 =
         0.05637    0.01099    0.00272    0.00175
AFIX  23
H26A  2    0.096107    1.073861    0.991983    11.00000   -1.20000
H26B  2    0.155862    0.955974    1.032129    11.00000   -1.20000
AFIX   0
C42   1    0.478096    0.380601    0.968049    11.00000    0.04733    0.04198 =
         0.05153   -0.00021    0.01083    0.02448
AFIX  23
H42A  2    0.346280    0.408698    0.942816    11.00000   -1.20000
H42B  2    0.417049    0.293552    0.983491    11.00000   -1.20000
AFIX   0
C34   1    1.212506   -0.207523    0.684408    11.00000    0.01514    0.04086 =
         0.05801   -0.00550    0.00205    0.00977
AFIX  23
H34A  2    1.084310   -0.174556    0.659388    11.00000   -1.20000
H34B  2    1.151038   -0.299381    0.696385    11.00000   -1.20000
AFIX   0
C33   1    1.446752   -0.229862    0.657238    11.00000    0.03191    0.03198 =
         0.03230    0.00155    0.00301    0.00202
AFIX  23
H33A  2    1.519591   -0.136540    0.649004    11.00000   -1.20000
H33B  2    1.567806   -0.273874    0.680963    11.00000   -1.20000
AFIX   0
C1'   1    1.357640    0.135214    0.512056    11.00000    0.02649    0.02671 =
         0.02709    0.00112    0.00289    0.00188
AFIX  13
H1'   2    1.500721    0.115778    0.536708    11.00000   -1.20000
AFIX   0
C23   1    0.167214    0.719491    0.894042    11.00000    0.02410    0.04933 =
         0.03611    0.00570    0.00137    0.00174
AFIX  23
H23A  2    0.039248    0.746418    0.867717    11.00000   -1.20000
H23B  2    0.103779    0.632892    0.909413    11.00000   -1.20000
AFIX   0
C19   1    0.539296    0.424236    0.753527    11.00000    0.01193    0.02028 =
         0.06157    0.00103    0.00700    0.00063
AFIX  23
H19A  2    0.420171    0.455727    0.726296    11.00000   -1.20000
H19B  2    0.466518    0.337218    0.767057    11.00000   -1.20000
AFIX   0
C17   1    0.740447    0.274093    0.685804    11.00000    0.01221    0.02212 =
         0.05241   -0.01248    0.00948   -0.00339
AFIX  23
H17A  2    0.619786    0.304147    0.658583    11.00000   -1.20000
H17B  2    0.673794    0.184805    0.698847    11.00000   -1.20000
AFIX   0
C35   1    1.256878   -0.100458    0.729928    11.00000    0.00849    0.06374 =
         0.04705   -0.00284    0.00333   -0.00402
AFIX  23
H35A  2    1.326235   -0.010465    0.717915    11.00000   -1.20000
H35B  2    1.381317   -0.135827    0.755228    11.00000   -1.20000
AFIX   0
C2'   1    1.119055    0.106024    0.535118    11.00000    0.02402    0.02439 =
         0.02490    0.00114    0.00255    0.00141
AFIX  13
H2'   2    0.982186    0.152937    0.516049    11.00000   -1.20000
AFIX   0
C43   1    0.530520    0.498265    1.010203    11.00000    0.04586    0.04595 =
         0.04621    0.00231    0.00454    0.00302
AFIX  23
H43A  2    0.592157    0.585274    0.994821    11.00000   -1.20000
H43B  2    0.661671    0.470029    1.035562    11.00000   -1.20000
AFIX   0
C7    1    1.093722    0.494648    0.389987    11.00000    0.04360    0.04388 =
         0.04439    0.00207    0.00430    0.00287
C25   1   -0.010287    0.872544    0.963130    11.00000    0.03752    0.04137 =
         0.04870   -0.00154    0.01036    0.00963
AFIX  23
H25A  2   -0.138364    0.901937    0.937309    11.00000   -1.20000
H25B  2   -0.074658    0.784341    0.977316    11.00000   -1.20000
AFIX   0
C28   1   -0.159623    1.138665    1.074809    11.00000    0.06077    0.06786 =
         0.03011   -0.01014    0.01277    0.01021
AFIX  23
H28A  2   -0.023102    1.115003    1.099759    11.00000   -1.20000
H28B  2   -0.106942    1.226936    1.059021    11.00000   -1.20000
AFIX   0
C24   1    0.212234    0.838921    0.935933    11.00000    0.02101    0.05526 =
         0.04436   -0.01521    0.00797   -0.00559
AFIX  23
H24A  2    0.343006    0.812682    0.961769    11.00000   -1.20000
H24B  2    0.272909    0.925780    0.920320    11.00000   -1.20000
AFIX   0
C3'   1    1.086576   -0.063709    0.525754    11.00000    0.03227    0.03201 =
         0.03249    0.00170    0.00284    0.00159
AFIX  13
H3'   2    0.912617   -0.099304    0.527301    11.00000   -1.20000
AFIX   0
C5    1    1.247530    0.455696    0.433027    11.00000    0.02114    0.03620 =
         0.03379   -0.00870    0.00845    0.00188
C14   1    0.758340    0.486773    0.314600    11.00000    0.04794    0.04824 =
         0.04832    0.00226    0.00479    0.00328
C4    1    1.469411    0.551151    0.455530    11.00000    0.04566    0.04581 =
         0.04608    0.00225    0.00479    0.00261
C46   1    0.129033    0.679452    1.108898    11.00000    0.04657    0.06651 =
         0.09821   -0.02408    0.00861    0.01652
AFIX 137
H46A  2   -0.001130    0.711415    1.084759    11.00000   -1.50000
H46B  2    0.176546    0.753943    1.135799    11.00000   -1.50000
H46C  2    0.069557    0.593535    1.124460    11.00000   -1.50000
AFIX   0
C13   1    0.549094    0.471553    0.278819    11.00000    0.04445    0.07816 =
         0.06444   -0.00759   -0.00529    0.01676
AFIX  43
H13   2    0.420174    0.403250    0.283080    11.00000   -1.20000
AFIX   0
C9    1    0.938291    0.604019    0.312568    11.00000    0.06087    0.06087 =
         0.06088    0.00302    0.00611    0.00404
C5'   1    0.954636   -0.079520    0.428942    11.00000    0.05376    0.05597 =
         0.05320   -0.02118    0.01001    0.00930
AFIX  23
H5'1  2    1.023949   -0.088476    0.395545    11.00000   -1.20000
H5'2  2    0.839499   -0.162833    0.431321    11.00000   -1.20000
AFIX   0
C12   1    0.533036    0.558721    0.236639    11.00000    0.06682    0.12103 =
         0.05284   -0.01709    0.00001    0.05137
AFIX  43
H12   2    0.396051    0.548360    0.211505    11.00000   -1.20000
AFIX   0
C41   1    0.705409    0.345867    0.939095    11.00000    0.02829    0.06746 =
         0.03681   -0.01528    0.00198   -0.01144
AFIX  23
H41A  2    0.765305    0.433078    0.923591    11.00000   -1.20000
H41B  2    0.837476    0.319130    0.964538    11.00000   -1.20000
AFIX   0
C8    1    1.128021    0.596670    0.355101    11.00000    0.03249    0.07221 =
         0.04643   -0.01633   -0.00436    0.01345
AFIX  43
H8    2    1.269898    0.659859    0.358612    11.00000   -1.20000
AFIX   0
C29   1   -0.376105    1.168616    1.104024    11.00000    0.08030    0.04003 =
         0.08937   -0.00363    0.02467    0.01773
AFIX  23
H29A  2   -0.419944    1.082377    1.121968    11.00000   -1.20000
H29B  2   -0.516359    1.184005    1.078701    11.00000   -1.20000
AFIX   0
C30   1   -0.348891    1.292922    1.143196    11.00000    0.09435    0.08938 =
         0.07462   -0.01472    0.01056    0.01258
AFIX 137
H30A  2   -0.205347    1.282973    1.167664    11.00000   -1.50000
H30B  2   -0.495808    1.294739    1.161571    11.00000   -1.50000
H30C  2   -0.327937    1.381365    1.125662    11.00000   -1.50000
AFIX   0
O2'   4    1.151838    0.155416    0.588949    11.00000    0.01365    0.02355 =
         0.06074   -0.00112    0.00939    0.00371
O4'   4    1.345134    0.044057    0.467085    11.00000    0.01360    0.02232 =
         0.06302   -0.00776    0.00827   -0.00568
O3'   4    1.246786   -0.124961    0.563331    11.00000    0.03055    0.03075 =
         0.03200    0.00138    0.00290    0.00150
O5'   4    0.818625    0.051836    0.431120    11.00000    0.02831    0.04192 =
         0.04858    0.00085   -0.00031    0.00611
AFIX  83
H5'   2    0.756545    0.058549    0.458986    11.00000   -1.50000
AFIX   0
C11   1    0.733779    0.666222    0.232491    11.00000    0.14874    0.04536 =
         0.07180    0.00793    0.00008    0.05317
AFIX  43
H11   2    0.732990    0.718910    0.202549    11.00000   -1.20000
AFIX   0
C10   1    0.921711    0.692379    0.270621    11.00000    0.10743    0.03230 =
         0.06802    0.02033    0.01887    0.01766
AFIX  43
H10   2    1.039395    0.769025    0.268853    11.00000   -1.20000
SIMU C1S > C6S'
SAME C1S C6S < C2S
SAME C1S' > C6S'
PART 1
AFIX  66
C1S   1    0.045813    0.093220    0.246984    21.00000    0.09044
AFIX  43
H1S   2   -0.109847    0.108788    0.229933    21.00000   -1.20000
AFIX  65
C2S   1    0.239564    0.054632    0.218170    21.00000    0.06586
AFIX  43
H2S   2    0.213537    0.044381    0.181841    21.00000   -1.20000
AFIX  65
C3S   1    0.472216    0.031365    0.243656    21.00000    0.05849
AFIX  43
H3S   2    0.601847    0.005547    0.224377    21.00000   -1.20000
AFIX  65
C4S   1    0.511120    0.046686    0.297954    21.00000    0.07147
AFIX  43
H4S   2    0.666780    0.031118    0.315005    21.00000   -1.20000
AFIX  65
C5S   1    0.317370    0.085274    0.326768    21.00000    0.07939
AFIX  43
H5S   2    0.343400    0.095524    0.363097    21.00000   -1.20000
AFIX  65
C6S   1    0.084717    0.108542    0.301284    21.00000    0.06726
AFIX  43
H6S   2   -0.044914    0.134360    0.320562    21.00000   -1.20000
AFIX  66
PART 2
C1S'  1    0.088760    0.154834    0.265122   -21.00000    0.06715
AFIX  43
H1S'  2   -0.042900    0.214695    0.259620   -21.00000   -1.20000
AFIX  65
C2S'  1    0.168184    0.075875    0.223184   -21.00000    0.07880
AFIX  43
H2S'  2    0.089664    0.082907    0.189623   -21.00000   -1.20000
AFIX  65
C3S'  1    0.364964   -0.013595    0.231408   -21.00000    0.07494
AFIX  43
H3S'  2    0.418103   -0.066425    0.203349   -21.00000   -1.20000
AFIX  65
C4S'  1    0.482323   -0.024107    0.281570   -21.00000    0.06531
AFIX  43
H4S'  2    0.613983   -0.083968    0.287072   -21.00000   -1.20000
AFIX  65
C5S'  1    0.402901    0.054852    0.323508   -21.00000    0.05853
AFIX  43
H5S'  2    0.481423    0.047819    0.357070   -21.00000   -1.20000
AFIX  65
C6S'  1    0.206121    0.144322    0.315285   -21.00000    0.07793
AFIX  43
H6S'  2    0.152982    0.197151    0.343344   -21.00000   -1.20000
AFIX   0
HKLF 4

REM  TRIAL001 in P1
REM R1 =  0.1082 for    2185 Fo > 4sig(Fo)  and  0.2437 for all    5427 data
REM    569 parameters refined using    168 restraints

END

WGHT      0.1488      0.0000

REM Highest difference peak  0.449,  deepest hole -0.428,  1-sigma level  0.082
Q1    1   1.2418 -0.1224  0.6020  11.00000  0.05    0.45
Q2    1   0.8272  0.4137  0.4218  11.00000  0.05    0.45
Q3    1   1.1550 -0.0867  0.5031  11.00000  0.05    0.43
Q4    1   0.7600  0.4226  0.7000  11.00000  0.05    0.40
Q5    1   0.7085  0.2921  0.6296  11.00000  0.05    0.37
Q6    1   0.7467  0.0746  0.5547  11.00000  0.05    0.36
Q7    1   0.7873  0.4036  0.3257  11.00000  0.05    0.36
Q8    1   1.1959 -0.2641  0.6176  11.00000  0.05    0.35
Q9    1   1.0644 -0.3369  0.5047  11.00000  0.05    0.35
Q10   1   1.0762  0.0926  0.4760  11.00000  0.05    0.35
Q11   1   1.3889  0.2777  0.4575  11.00000  0.05    0.33
Q12   1   0.8025  0.0863  0.6594  11.00000  0.05    0.33
Q13   1   1.4989  0.6821  0.4097  11.00000  0.05    0.33
Q14   1   1.6218  0.4654  0.4366  11.00000  0.05    0.33
Q15   1   1.6965  0.3466  0.5979  11.00000  0.05    0.33
Q16   1   1.2247 -0.2051  0.6495  11.00000  0.05    0.32
Q17   1   1.5233  0.0977  0.5738  11.00000  0.05    0.32
Q18   1   0.8051  0.0613  0.5039  11.00000  0.05    0.32
Q19   1   1.3417  0.2969  0.5420  11.00000  0.05    0.31
Q20   1   1.3653  0.1410  0.5462  11.00000  0.05    0.31
Q21   1   1.6046  0.4984  0.5183  11.00000  0.05    0.31
Q22   1   1.1364  0.0918  0.5567  11.00000  0.05    0.30
Q23   1   1.5260  0.6851  0.4671  11.00000  0.05    0.30
Q24   1   1.0107 -0.0686  0.7149  11.00000  0.05    0.29
Q25   1   0.7494  0.4890  0.2587  11.00000  0.05    0.29
Q26   1   1.5489  0.6765  0.3727  11.00000  0.05    0.29
Q27   1   0.5446  0.6467  0.3180  11.00000  0.05    0.29
Q28   1   1.0045  0.7583  0.3339  11.00000  0.05    0.28
Q29   1   1.4607 -0.2297  0.6913  11.00000  0.05    0.28
Q30   1   1.5491  0.5214  0.4761  11.00000  0.05    0.28
Q31   1   0.5355  0.5418  1.0532  11.00000  0.05    0.28
Q32   1   1.1067  0.1292  0.5012  11.00000  0.05    0.28
Q33   1   0.8609  0.2701  0.6799  11.00000  0.05    0.27
Q34   1  -0.2367  0.1554  0.3593  11.00000  0.05    0.27
Q35   1   0.7960  0.2791  0.3225  11.00000  0.05    0.27
Q36   1   1.5253  0.6457  0.3609  11.00000  0.05    0.27
Q37   1   1.4854 -0.0263  0.5517  11.00000  0.05    0.26
Q38   1   1.0938  0.4999  0.3631  11.00000  0.05    0.26
Q39   1  -0.1866  1.2351  1.0114  11.00000  0.05    0.26
Q40   1   0.7738  0.3371  0.2846  11.00000  0.05    0.26
;
_shelx_res_checksum              95023
_shelx_hkl_file
;
   1   0   0  225.38   19.20
   1   0   0  239.98   16.80
   1   0   0  242.28   21.90
   1   0   0  257.77   15.60
   1   0   0  210.78   19.50
   2   0   0  135.69   19.90
   2   0   0  118.29   17.40
   2   0   0  101.39   15.20
   2   0   0  101.59   19.40
   2   0   0   97.09   20.60
   3   0   0  247.58   36.60
   3   0   0  317.67   30.40
   3   0   0  281.37   28.30
   3   0   0  318.77   31.20
   3   0   0  297.77   27.80
   4   0   0   91.79   29.60
   4   0   0  107.09   23.60
   4   0   0   77.49   24.40
   4   0   0   98.29   22.50
   4   0   0  108.89   26.70
   5   0   0  100.29   24.80
   5   0   0   90.19   27.60
   5   0   0   44.60   28.60
   5   0   0   50.09   24.20
   6   0   0  -14.70   31.80
   6   0   0    2.60   24.20
   6   0   0  -11.10   27.50
   6   0   0   20.30   30.10
   6  -1   0  -10.40   25.00
   6  -1   0   48.00   27.40
   6  -1   0   -4.50   25.50
   6  -1   0   17.10   31.80
   5  -1   0   99.89   27.30
   5  -1   0  183.08   38.90
   5  -1   0  124.19   27.90
   5  -1   0  117.39   28.00
   4  -1   0   33.30   24.20
   4  -1   0    0.70   16.70
   4  -1   0   28.40   24.30
   4  -1   0   10.20   17.80
   4  -1   0   32.50   21.40
   3  -1   0   84.39   23.40
   3  -1   0   66.29   23.50
   3  -1   0  102.99   21.30
   3  -1   0   89.69   18.40
   3  -1   0  140.39   20.70
   2  -1   0  113.39   16.80
   2  -1   0   88.69   20.60
   2  -1   0  104.59   18.20
   2  -1   0   85.19   16.10
   2  -1   0  106.49   21.00
   1  -1   0  527.05   35.50
   1  -1   0  542.75   27.60
   1  -1   0  478.45   26.40
   1  -1   0  506.75   28.00
   1  -1   0  462.45   33.70
   0  -1   0  109.29    9.30
   0  -1   0  115.69    8.80
   0  -1   0  120.19    9.80
   0   1   0  127.59    9.10
   1   1   0 9999.00  400.86
   1   1   0 9272.87  519.65
   1   1   0 9549.34  386.76
   2   1   0  512.25   36.10
   2   1   0  609.54   33.30
   2   1   0  585.14   34.40
   2   1   0  614.34   46.50
   3   1   0   61.09   20.30
   3   1   0   43.10   15.30
   3   1   0   38.40   21.50
   3   1   0   63.79   17.70
   3   1   0   42.00   17.90
   4   1   0  113.79   23.00
   4   1   0  103.19   30.40
   4   1   0  112.19   27.20
   4   1   0  111.09   24.50
   5   1   0   70.19   27.90
   5   1   0   47.80   24.20
   5   1   0   72.29   27.60
   5   1   0   41.80   33.10
   6   1   0    0.70   24.40
   6   1   0   13.00   36.70
   6   1   0   51.59   33.00
   6   1   0   32.60   32.30
   6  -2   0   52.29   29.40
   6  -2   0   52.89   28.50
   5  -2   0   80.39   27.20
   5  -2   0   69.89   24.70
   5  -2   0   55.69   24.50
   5  -2   0   67.69   30.30
   4  -2   0 1219.28   74.49
   4  -2   0 1180.28   63.99
   4  -2   0 1026.60   64.29
   4  -2   0 1107.49   63.09
   4  -2   0  955.10   81.29
   3  -2   0   13.00   18.70
   3  -2   0    1.50   14.80
   3  -2   0   68.09   24.10
   3  -2   0   15.40   15.50
   2  -2   0  385.76   26.60
   2  -2   0  346.57   34.90
   2  -2   0  307.07   28.60
   1  -2   0  192.28   17.00
   1  -2   0  246.78   20.40
   0  -2   0  887.21   41.20
   0   2   0  900.01   40.60
   1   2   0  414.56   36.00
   2   2   0  163.88   27.60
   2   2   0  183.28   20.40
   3   2   0  169.18   31.30
   3   2   0  141.69   21.80
   3   2   0  138.99   24.30
   4   2   0   28.10   18.00
   4   2   0   40.70   27.10
   4   2   0   17.60   23.30
   5   2   0   78.49   25.60
   5   2   0   50.39   32.10
   5   2   0   18.80   31.90
   6   2   0  -13.10   25.40
   6   2   0    7.80   39.30
   6  -3   0   -0.60   26.10
   6  -3   0   28.30   29.30
   5  -3   0   12.40   24.80
   5  -3   0   68.79   24.80
   4  -3   0   72.69   23.80
   4  -3   0  104.49   25.40
   3  -3   0 1295.77   70.99
   3  -3   0 1378.96   68.09
   2  -3   0   65.99   19.10
   2  -3   0   49.40   15.70
   1  -3   0  225.78   23.20
   0   3   0  471.85   29.10
  -1  -3   0  224.08   18.30
   1   3   0  152.28   29.50
   2   3   0  533.05   32.80
   2   3   0  447.96   45.60
   3   3   0   43.50   16.70
   3   3   0   51.49   25.90
   4   3   0   61.39   31.60
   4   3   0   41.80   19.50
   5   3   0    2.80   31.30
   5   3   0   25.40   22.20
   6   3   0   39.00   41.70
   6   3   0    4.00   26.30
   6  -4   0   18.30   29.20
   5  -4   0   16.30   23.90
   5  -4   0   -3.80   24.20
   4  -4   0   32.80   23.10
   4  -4   0   32.50   21.20
   3  -4   0   60.69   20.90
   3  -4   0   57.09   19.80
   2  -4   0  215.28   23.50
   2  -4   0  231.78   28.80
   0  -4   0  186.18   22.10
   0   4   0  136.09   19.30
  -1  -4   0  310.17   26.40
   2   4   0  299.87   28.90
   2   4   0  290.67   38.00
   3   4   0    1.20   16.90
   3   4   0   24.20   25.50
   4   4   0   36.90   31.50
   4   4   0    7.60   19.20
   5   4   0    7.00   23.90
   5   4   0   36.60   36.40
   6   4   0  -27.60   28.80
   6   4   0   16.10   45.80
   6  -5   0   10.20   29.70
   6  -5   0  -45.00   30.70
   5  -5   0   -7.50   25.00
   5  -5   0   52.19   28.30
   4  -5   0   44.70   26.00
   4  -5   0   23.80   22.20
   3  -5   0    6.10   18.80
   3  -5   0   30.20   22.30
   2  -5   0   79.49   19.40
   2  -5   0  103.69   23.60
   0  -5   0  353.26   33.00
   0   5   0  371.96   31.30
  -1  -5   0  123.29   19.80
  -2  -5   0  156.38   22.30
   2   5   0  191.88   35.00
   2   5   0  197.78   26.50
   3   5   0  -58.09   29.40
   3   5   0   17.40   20.00
   4   5   0   51.39   36.60
   4   5   0   71.19   26.90
   5   5   0    5.60   25.10
   5   5   0   36.40   38.80
   5  -6   0   62.99   31.50
   4  -6   0   19.10   27.50
   4  -6   0   45.00   25.40
   3  -6   0   32.40   20.80
   3  -6   0   27.80   25.90
   2  -6   0  121.99   22.80
   2  -6   0  118.49   26.20
   0   6   0  132.89   24.90
  -2  -6   0   49.99   20.70
   2   6   0   78.39   33.40
   3   6   0   46.60   24.20
   3   6   0   28.80   34.50
   4   6   0   98.89   40.70
   4   6   0   57.09   28.60
   5   6   0   53.89   30.60
   5   6   0    5.70   37.70
   5  -7   0  -11.90   31.30
   4  -7   0   36.80   28.30
   4  -7   0   26.00   29.20
   3  -7   0  -34.00   25.90
   3  -7   0   26.50   22.80
   2  -7   0   23.60   19.80
   2  -7   0   38.40   26.50
   2   7   0  289.77   56.09
   3   7   0  -87.59   32.70
   3   7   0   16.30   23.90
   4   7   0  -11.50   37.80
   4   7   0   -6.30   26.10
   5   7   0   74.09   32.40
   5   7   0   15.10   46.90
   5  -8   0  -67.79   36.90
   4  -8   0   28.20   31.50
   4  -8   0   -1.30   33.80
   3  -8   0    3.80   27.20
   2  -8   0  -94.99   29.40
   2  -8   0   27.00   21.90
   2   8   0   66.59   51.49
   3   8   0   17.90   37.20
   3   8   0   13.50   27.50
   4   8   0    7.80   42.00
   4   8   0  -56.09   29.50
   4  -9   0   58.09   36.70
   3  -9   0   21.70   33.90
   2  -9   0  -17.20   21.50
   2  -9   0   19.60   32.00
   2   9   0  -15.90   47.60
   3   9   0  -21.60   44.40
   3   9   0   20.20   31.30
   3 -10   0   24.30   37.50
   2 -10   0   49.99   33.70
   1 -10   0   39.30   36.00
   2  10   0   -7.00   60.19
   3  10   0  -16.70   34.00
   3  10   0 -171.28   54.19
   2 -11   0   -1.00   41.20
   1 -11   0   57.79   42.30
   1  11   0  427.66   91.99
   1 -11   1   19.80   42.00
   2 -11   1  -47.10   37.00
   3  10  -1   25.00   36.40
   3  10  -1 -170.28   55.69
   2  10  -1  124.79   65.59
   1 -10   1   92.29   39.20
   2 -10   1    9.30   32.30
   3 -10   1   15.80   35.40
   3   9  -1  -16.70   45.50
   3   9  -1   -8.40   29.40
   2   9  -1   -2.50   49.70
   2  -9   1    8.90   30.00
   2  -9   1   18.40   22.90
   3  -9   1  -12.70   25.20
   3  -9   1   58.49   36.20
   4  -9   1   22.50   35.90
   4   8  -1   49.20   35.10
   4   8  -1   72.79   44.00
   3   8  -1   31.30   38.70
   3   8  -1   63.19   29.70
   2   8  -1   89.99   55.79
   2  -8   1   53.09   22.80
   2  -8   1  -78.99   28.70
   3  -8   1  112.69   34.40
   3  -8   1  124.89   32.00
   4  -8   1    3.40   27.40
   4  -8   1   -8.60   33.70
   5  -8   1   30.00   37.50
   5   7  -1  120.09   52.79
   5   7  -1   71.19   34.30
   4   7  -1   50.69   31.50
   4   7  -1   27.70   40.50
   3   7  -1  -59.69   34.30
   3   7  -1   38.80   25.70
   2   7  -1  274.87   54.09
   2  -7   1   42.60   20.70
   2  -7   1   51.79   26.60
   3  -7   1   19.30   28.50
   3  -7   1    8.70   21.40
   4  -7   1   42.30   31.70
   4  -7   1   56.29   29.40
   5  -7   1    7.00   30.10
   5   6  -1   73.69   42.70
   5   6  -1   19.70   27.80
   4   6  -1  168.18   45.90
   4   6  -1  211.98   36.40
   3   6  -1   46.40   37.00
   3   6  -1  106.49   26.80
   2   6  -1   33.80   32.50
   0   6  -1   23.30   20.60
   2  -6   1  193.58   26.30
   2  -6   1  130.69   27.70
   3  -6   1    7.60   24.30
   3  -6   1   21.70   20.70
   4  -6   1   11.70   28.50
   4  -6   1   28.60   25.70
   5  -6   1  -67.49   24.60
   5   5  -1   17.60   27.60
   5   5  -1    6.20   34.40
   4   5  -1   36.80   24.40
   4   5  -1   40.90   36.60
   3   5  -1   -2.20   18.70
   3   5  -1  -77.39   29.90
   2   5  -1  177.98   35.60
   2   5  -1  176.18   26.60
  -2  -5   1  179.98   22.30
  -1  -5   1  159.58   25.60
   0   5  -1  360.06   31.60
   0  -5   1  357.46   33.50
  -1   5  -1   26.10   15.50
   2  -5   1  144.39   25.30
   2  -5   1  161.38   23.70
   3  -5   1   22.10   22.20
   3  -5   1    8.10   18.70
   4  -5   1  138.09   32.70
   4  -5   1   27.90   22.90
   5  -5   1   28.60   27.90
   5  -5   1    7.00   27.20
   6  -5   1   -4.70   30.00
   6   4  -1  -10.70   27.70
   6   4  -1    9.00   38.70
   5   4  -1    1.60   24.20
   5   4  -1   30.50   34.00
   4   4  -1  -24.00   19.10
   4   4  -1   11.00   31.00
   3   4  -1   -1.40   18.00
   3   4  -1   35.40   24.80
   2   4  -1  143.39   21.90
   2   4  -1  168.98   32.50
   0   4  -1   75.79   17.90
   0  -4   1  110.79   19.90
   2  -4   1  146.19   24.50
   2  -4   1  156.48   21.00
   3  -4   1   58.49   21.90
   3  -4   1   53.69   18.40
   4  -4   1   28.70   21.10
   4  -4   1    5.30   22.00
   5  -4   1   21.10   26.50
   5  -4   1  -23.60   21.40
   6  -4   1   -8.80   27.20
   6  -4   1   60.39   32.20
   6   3  -1   36.10   43.30
   6   3  -1   32.50   29.70
   5   3  -1  -11.90   20.80
   5   3  -1   50.19   34.20
   4   3  -1   27.80   28.00
   4   3  -1   39.20   19.90
   3   3  -1   33.10   17.00
   3   3  -1   30.30   24.40
   2   3  -1  385.26   42.40
   2   3  -1  368.16   28.20
  -1  -3   1  278.47   22.80
   0   3  -1  309.27   25.80
   0  -3   1  340.27   25.80
   1  -3   1  244.68   23.80
   2  -3   1   71.99   18.80
   2  -3   1   51.59   15.40
   3  -3   1  343.07   33.40
   3  -3   1  299.77   30.70
   4  -3   1   39.60   21.20
   4  -3   1   58.29   22.00
   5  -3   1   46.30   26.20
   5  -3   1   74.39   25.60
   6  -3   1  -30.20   25.10
   6  -3   1   22.90   26.80
   6   2  -1   -7.80   28.70
   6   2  -1  -11.30   35.20
   5   2  -1   21.00   22.10
   5   2  -1   87.49   34.80
   5   2  -1   53.89   34.50
   4   2  -1   73.79   21.50
   4   2  -1   24.80   24.30
   4   2  -1   40.40   27.90
   3   2  -1  186.98   26.90
   3   2  -1  194.88   23.70
   3   2  -1  157.98   31.90
   2   2  -1  171.58   20.50
   2   2  -1  156.98   26.80
   1   2  -1  665.33   48.00
   0   2  -1  741.63   35.40
   0  -2   1  710.13   35.80
   1  -2   1  390.56   26.80
   2  -2   1  432.86   28.30
   2  -2   1  426.26   32.00
   3  -2   1  108.99   20.20
   3  -2   1  102.49   21.90
   3  -2   1  129.99   26.40
   4  -2   1  506.05   44.80
   4  -2   1  588.74   42.30
   4  -2   1  542.05   41.50
   4  -2   1  531.55   55.29
  -5   2  -1   -1.70   19.20
   5  -2   1    3.00   23.30
   5  -2   1   16.90   27.60
   5  -2   1   24.20   24.70
   6  -2   1   67.09   29.40
   6  -2   1   66.29   30.00
   6   1  -1   25.70   36.40
   6   1  -1   13.70   24.30
   6   1  -1  -31.40   29.20
   6   1  -1  -25.30   30.40
   5   1  -1   90.59   35.50
   5   1  -1   72.79   26.40
   5   1  -1  128.79   30.20
   5   1  -1  145.69   31.20
   4   1  -1  102.79   24.50
   4   1  -1  115.79   23.50
   4   1  -1  119.19   31.60
   4   1  -1  174.68   29.20
   4   1  -1  175.48   29.50
   3   1  -1  153.48   22.70
   3   1  -1  184.48   29.50
   3   1  -1  132.69   23.60
   3   1  -1  176.08   25.20
   3   1  -1  176.48   22.20
   2   1  -1  262.27   26.70
   2   1  -1  348.97   24.10
   2   1  -1  357.36   35.30
   2   1  -1  345.87   26.90
   2   1  -1  347.77   26.50
   1   1  -1  580.64   32.80
   1   1  -1  671.73   31.90
   1   1  -1  633.84   42.10
   0   1  -1   48.80    7.00
   0   1  -1   48.10    7.30
   0  -1   1   34.50    7.30
   0  -1   1   32.20    6.40
   1  -1   1  451.55   25.00
   1  -1   1  484.55   27.30
   2  -1   1   64.69   19.60
   2  -1   1   57.29   14.40
   2  -1   1   81.19   17.80
   2  -1   1   65.29   14.50
   2  -1   1   68.39   19.10
   3  -1   1  155.88   27.30
   3  -1   1  163.18   22.50
   3  -1   1  197.88   23.40
   3  -1   1  180.18   30.00
   3  -1   1  190.08   27.00
  -4   1  -1   16.00   15.60
   4  -1   1   14.40   23.10
   4  -1   1   36.80   18.40
   4  -1   1   47.40   22.40
   4  -1   1   13.30   18.10
   4  -1   1   -0.50   22.50
   5  -1   1  718.33   54.39
   5  -1   1  818.82   75.39
   5  -1   1  623.04   52.09
   5  -1   1  779.12   52.99
   6  -1   1   46.50   27.70
   6  -1   1   93.89   32.20
   6  -1   1   40.50   26.60
   6  -1   1   28.40   32.40
   6   0  -1   -6.90   27.60
   6   0  -1   23.60   33.00
   6   0  -1   51.49   29.90
   6   0  -1  -20.00   23.40
   5   0  -1   35.70   30.50
   5   0  -1   59.39   25.90
   5   0  -1   61.39   25.10
   5   0  -1   77.29   23.90
   4   0  -1   40.90   25.40
   4   0  -1   13.50   18.20
   4   0  -1   54.69   22.70
   4   0  -1   17.80   24.10
   4   0  -1   56.49   20.60
   3   0  -1  103.29   20.80
   3   0  -1   87.59   24.90
   3   0  -1   84.99   21.60
   3   0  -1  110.09   18.80
   3   0  -1   98.19   19.50
   2   0  -1   43.10   14.20
   2   0  -1   87.39   17.20
   2   0  -1   67.19   18.00
   2   0  -1   42.80   13.20
   2   0  -1   44.90   17.40
   1   0  -1  386.96   26.00
   1   0  -1  366.06   22.40
   1   0  -1  413.76   29.50
   1   0  -1  422.96   23.70
   1   0  -1  415.86   22.10
   0   0  -1    0.20    1.00
   0   0  -1   -0.50    0.90
   0   0  -1    0.00    0.50
   0   0  -1   -0.20    0.40
   0   0  -1    0.90    1.00
   0   0   1    0.00    0.30
   0   0   1   -0.10    0.30
   0   0   1    0.00    0.50
   0   0   1   -0.60    0.40
   0   0   1   -0.10    0.30
  -1   0  -1  513.85   26.20
   1   0   1  564.94   31.90
   1   0   1  572.34   27.70
   1   0   1  581.44   38.30
   1   0   1  557.44   30.50
   1   0   1  595.34   28.30
  -2   0  -1  129.79   14.30
   2   0   1  136.89   23.30
   2   0   1  117.19   19.50
   2   0   1  132.49   16.30
   2   0   1  164.08   18.60
   2   0   1  141.69   20.90
   3   0   1  258.77   26.40
   3   0   1  284.97   30.00
   3   0   1  243.38   35.50
   3   0   1  297.37   28.20
   3   0   1  280.47   29.80
   4   0   1   97.19   23.10
   4   0   1   67.09   28.80
   4   0   1   95.09   21.30
   4   0   1  118.69   28.00
   4   0   1   93.39   26.00
   5   0   1   35.80   25.00
   5   0   1  -25.00   24.20
   5   0   1   63.19   22.60
   5   0   1   37.70   26.00
   6   0   1   61.99   31.50
   6   0   1   83.39   31.10
   6   0   1   77.89   37.60
   6   0   1   38.40   25.70
   6  -1  -1   36.50   27.70
   6  -1  -1  -18.30   30.20
   6  -1  -1   27.50   28.10
   6  -1  -1   -9.20   23.90
   5  -1  -1   61.89   25.20
   5  -1  -1   78.79   24.20
   5  -1  -1   89.39   33.10
   5  -1  -1   23.90   24.40
   4  -1  -1   10.70   17.00
   4  -1  -1    3.40   22.30
   4  -1  -1    3.80   24.20
   4  -1  -1    4.10   20.60
   4  -1  -1  -14.50   17.50
   3  -1  -1   55.29   22.90
   3  -1  -1   42.50   16.30
   3  -1  -1   60.49   22.40
   3  -1  -1   64.29   19.90
   3  -1  -1   53.29   15.90
   2  -1  -1  252.07   31.10
   2  -1  -1  217.38   22.10
   2  -1  -1  252.87   22.70
   2  -1  -1  301.17   25.10
   2  -1  -1  302.77   28.70
   1  -1  -1  483.65   26.00
   1  -1  -1  405.66   31.60
   1  -1  -1  415.46   24.70
   1  -1  -1  483.85   26.00
   1  -1  -1  486.45   32.70
   0  -1  -1  368.36   17.60
   0  -1  -1  352.96   20.50
   0  -1  -1  371.66   18.50
   0  -1  -1  377.76   17.40
   0   1   1  396.86   17.70
  -1  -1  -1 5819.62  225.68
   1   1   1 5651.83  242.98
   1   1   1 5668.43  316.27
   1   1   1 6056.19  234.98
   2   1   1  595.24   37.00
   2   1   1  541.25   31.60
   2   1   1  604.64   34.00
   2   1   1  555.24   45.30
   3   1   1   54.49   22.20
   3   1   1   72.59   20.50
   3   1   1   65.09   18.40
   3   1   1   61.09   15.20
   4   1   1  105.59   21.70
   4   1   1   90.29   24.90
   4   1   1  111.79   28.20
   4   1   1   76.59   29.80
   4   1   1  100.19   24.00
   5   1   1   37.00   25.90
   5   1   1   27.20   22.30
   5   1   1   65.09   35.50
   5   1   1   44.10   26.70
   6   1   1   22.80   31.60
   6   1   1   12.30   35.40
   6   1   1   -7.40   29.30
   6   1   1   18.60   27.00
   6  -2  -1    5.40   27.90
   6  -2  -1   37.30   27.70
   5  -2  -1   72.59   31.10
   5  -2  -1   53.19   23.70
   5  -2  -1   83.79   25.60
   5  -2  -1   76.89   26.90
   4  -2  -1  229.78   29.20
   4  -2  -1  224.68   36.40
   4  -2  -1  218.68   29.90
   4  -2  -1  282.67   39.90
   4  -2  -1  290.37   32.80
   3  -2  -1   48.60   21.60
   3  -2  -1  105.09   20.30
   3  -2  -1   62.99   18.10
   3  -2  -1   55.29   24.40
   3  -2  -1   63.29   19.40
   2  -2  -1   81.19   17.50
   2  -2  -1   80.09   16.40
   2  -2  -1  112.19   16.40
   2  -2  -1  127.19   24.00
   1  -2  -1   96.99   14.80
   1  -2  -1   68.49   12.40
   1  -2  -1   68.69   18.50
   0  -2  -1 1602.14   66.79
   0   2   1 1561.04   66.59
  -1  -2  -1   24.80    9.90
  -1  -2  -1   26.00   10.40
   1   2   1   44.40   15.90
   2   2   1  400.66   28.10
   2   2   1  451.05   41.10
   2   2   1  422.06   30.40
   3   2   1   56.39   24.00
   3   2   1   34.20   14.90
   3   2   1   10.40   17.30
   4   2   1   -8.80   21.30
   4   2   1   13.40   26.90
   4   2   1   24.60   17.10
   5   2   1   44.10   31.00
   5   2   1    0.90   20.20
   5   2   1   16.10   33.00
   6   2   1  -25.70   23.60
   6   2   1   -6.10   36.80
   6   2   1   18.50   41.00
   6  -3  -1  -27.80   25.20
   5  -3  -1   47.10   25.50
   5  -3  -1   22.60   23.40
   4  -3  -1  295.07   34.90
   4  -3  -1  373.16   47.00
   4  -3  -1  285.87   34.40
   3  -3  -1  443.76   45.30
   3  -3  -1  563.54   39.40
   2  -3  -1   16.20   17.30
   2  -3  -1   59.29   21.80
   2  -3  -1   30.90   14.30
   1  -3  -1  215.98   23.00
   0  -3  -1  198.68   20.70
   0  -3  -1  182.88   18.70
   0   3   1  210.28   18.50
  -1  -3  -1  300.07   24.50
   1   3   1  318.27   34.90
   2   3   1  344.67   26.70
   2   3   1  355.36   38.80
   3   3   1   21.20   15.20
   3   3   1   38.10   25.00
   4   3   1   78.89   33.30
   4   3   1  117.29   23.50
   5   3   1   41.20   23.10
   5   3   1   62.49   35.90
   6   3   1   -1.40   41.70
   6   3   1   -4.90   25.80
   6  -4  -1  -30.70   24.70
   5  -4  -1   20.20   25.50
   5  -4  -1  -19.20   22.60
   4  -4  -1   13.50   22.40
   4  -4  -1   64.79   22.80
   3  -4  -1   77.29   22.20
   3  -4  -1  104.99   23.80
   2  -4  -1   59.09   16.00
   2  -4  -1   43.80   19.90
   0  -4  -1  162.08   21.70
   0   4   1  182.58   20.20
  -1  -4  -1   49.00   14.60
  -2  -4  -1  291.17   25.80
   2   4   1  348.87   39.80
   2   4   1  322.97   28.30
   3   4   1   20.20   17.90
   3   4   1    6.80   26.20
   4   4   1   95.19   23.80
   4   4   1   72.39   34.30
   5   4   1   24.20   23.60
   5   4   1   28.10   36.20
   6   4   1   16.50   44.00
   6   4   1   19.00   29.50
   6  -5  -1   12.50   29.90
   5  -5  -1    3.60   26.10
   4  -5  -1   74.49   27.80
   4  -5  -1   -5.40   20.90
   3  -5  -1   22.80   22.00
   3  -5  -1   -3.00   17.40
   2  -5  -1   57.69   22.00
   2  -5  -1   58.29   17.30
  -1   5   1   45.90   15.80
   0  -5  -1  132.99   25.20
   0   5   1  184.58   23.10
  -1  -5  -1   53.89   17.20
  -2  -5  -1   27.00   16.50
   2   5   1  117.29   30.70
   3   5   1   15.80   19.50
   3   5   1  -24.60   29.20
   4   5   1   68.39   38.20
   4   5   1   40.90   24.40
   5   5   1   27.90   26.20
   5   5   1   75.49   43.20
   5  -6  -1   -0.70   27.80
   4  -6  -1   36.10   29.30
   4  -6  -1   35.80   25.40
   3  -6  -1   43.10   21.70
   3  -6  -1   59.39   27.10
   2  -6  -1   75.29   19.90
   2  -6  -1   88.99   25.70
   0   6   1  218.18   28.30
  -2  -6  -1   58.39   21.70
   2   6   1   86.69   34.30
   3   6   1   24.70   21.40
   3   6   1   20.30   31.60
   4   6   1   18.90   25.60
   4   6   1   -0.50   34.50
   5   6   1   15.00   27.10
   5   6   1    1.90   39.70
   5  -7  -1    0.00   33.80
   4  -7  -1   59.09   33.10
   4  -7  -1   -1.80   27.00
   3  -7  -1   50.29   25.00
   3  -7  -1   11.40   28.60
   2  -7  -1   17.60   19.30
   2  -7  -1   19.60   26.90
   2   7   1  331.57   61.29
  -3  -7  -1   84.39   26.10
   3   7   1  -23.20   35.20
   3   7   1   36.80   26.30
   4   7   1    8.90   39.70
   4   7   1   35.20   28.90
   5   7   1   -0.70   46.20
   5   7   1   40.50   29.60
   5  -8  -1   42.60   39.50
   4  -8  -1   95.19   36.50
   3  -8  -1    5.70   30.10
   2  -8  -1  -24.90   32.40
   2  -8  -1   72.99   24.50
   2   8   1   12.10   49.10
   3   8   1   47.20   39.90
   3   8   1   11.50   27.70
   4   8   1    0.60   30.30
   4   8   1   47.10   45.50
   4  -9  -1   48.90   38.10
   3  -9  -1  107.49   36.60
   2  -9  -1  -24.90   27.60
   2   9   1    6.20   48.90
   3   9   1   17.00   31.50
   3   9   1  -66.39   42.60
   3 -10  -1   -0.90   34.80
   2 -10  -1   -9.70   33.20
   2  10   1  -39.30   58.89
   3  10   1 -166.58   56.49
   2 -11  -1  -62.39   37.60
   1 -11  -1   36.10   44.20
   1 -11   2   69.29   44.10
   2 -11   2  -84.89   35.10
   3  10  -2    8.40   35.00
   2  10  -2   59.69   62.49
   1 -10   2   45.30   36.50
   2 -10   2   24.30   34.80
   3 -10   2   -1.50   29.00
   3 -10   2   29.70   35.50
   3   9  -2   14.30   29.60
   3   9  -2    1.70   46.60
   2   9  -2   25.10   50.69
   1  -9   2   54.59   33.30
   2  -9   2   17.20   30.50
   2  -9   2  -23.20   22.50
   3  -9   2   16.10   31.50
   3  -9   2   43.90   29.00
   4  -9   2    5.80   36.60
   4   8  -2   63.69   43.20
   4   8  -2   42.00   35.80
   3   8  -2   40.20   28.70
   3   8  -2   14.70   39.80
   2   8  -2  149.09   58.79
   2  -8   2    3.50   21.00
   3  -8   2   52.19   30.80
   3  -8   2  158.28   32.50
   4  -8   2  -18.60   30.20
   4  -8   2   20.90   29.60
   5   7  -2   60.79   49.60
   5   7  -2   83.09   35.60
   4   7  -2  -27.90   33.20
   4   7  -2  -20.10   26.70
   3   7  -2   14.10   37.90
   3   7  -2   31.90   25.40
   2   7  -2  206.18   51.09
   2  -7   2   55.99   22.60
   2  -7   2   62.19   27.20
   3  -7   2  -61.49   24.90
   3  -7   2  -12.90   21.20
   4  -7   2   -0.70   25.80
   4  -7   2   54.69   30.20
   5  -7   2   45.30   32.20
   5  -7   2   15.50   31.50
   5   6  -2   33.80   29.10
   5   6  -2   21.90   40.40
   4   6  -2  237.28   49.99
   4   6  -2  232.18   37.60
   3   6  -2   92.59   27.10
   3   6  -2   51.59   37.70
   2   6  -2   33.40   33.30
   0   6  -2   69.29   23.90
  -1   6  -2  187.08   26.50
   2  -6   2   77.19   21.00
   2  -6   2   41.10   24.50
   3  -6   2   32.80   22.00
   3  -6   2   34.70   25.90
   4  -6   2   18.80   28.20
   4  -6   2   59.69   27.10
   5  -6   2   24.40   29.40
   5  -6   2   34.10   28.20
   5   5  -2   20.10   26.60
   5   5  -2    2.80   36.60
   4   5  -2   43.50   25.30
   4   5  -2  -59.59   30.00
   3   5  -2  -62.89   31.00
   3   5  -2   43.30   20.70
   2   5  -2  148.29   32.80
   2   5  -2  123.99   23.50
  -1  -5   2  123.89   24.10
   0   5  -2  402.16   35.30
   0  -5   2  427.56   36.00
  -1   5  -2  116.19   20.70
   1  -5   2  221.08   27.40
   2  -5   2  150.18   23.30
   2  -5   2  117.29   25.20
   3  -5   2   16.00   19.20
   3  -5   2   52.79   23.10
   4  -5   2  100.29   30.60
   4  -5   2   61.59   24.90
  -5   5  -2   13.10   24.30
   5  -5   2   20.20   25.70
   5  -5   2   14.80   26.20
   6  -5   2   35.10   32.90
   6   4  -2   11.90   40.40
   6   4  -2  -41.00   26.70
   5   4  -2   10.20   34.30
   5   4  -2   16.60   26.20
   4   4  -2   31.20   23.20
   4   4  -2    6.70   30.10
   3   4  -2    3.90   24.00
   3   4  -2   26.00   18.80
   2   4  -2  132.89   22.20
   2   4  -2  119.99   31.30
  -1  -4   2  383.36   32.10
   0   4  -2   62.99   18.20
   0  -4   2  107.79   20.10
   1  -4   2  113.19   22.80
   2  -4   2  101.29   19.20
   2  -4   2   48.50   20.60
   3  -4   2   68.79   22.60
   3  -4   2   89.59   20.20
   4  -4   2   69.39   23.40
   4  -4   2  -12.80   21.40
   5  -4   2   33.50   26.30
   5  -4   2   33.20   26.00
   6  -4   2  -10.90   26.00
   6  -4   2   18.30   30.20
   6   3  -2   13.30   36.10
   6   3  -2  -25.30   25.70
   5   3  -2  -24.90   21.20
   5   3  -2   16.90   31.40
   4   3  -2   53.89   30.40
   4   3  -2   45.40   21.30
   3   3  -2   97.39   28.70
   3   3  -2  105.19   21.40
   2   3  -2  230.98   23.50
   2   3  -2  124.19   31.60
   0   3  -2  -11.50   14.50
   0  -3   2   13.00   16.60
   1  -3   2  150.58   19.70
   2  -3   2   95.39   19.40
   2  -3   2   94.29   17.30
   3  -3   2  111.99   25.00
   3  -3   2  164.28   23.60
  -4   3  -2   18.10   17.60
   4  -3   2   22.60   19.90
   4  -3   2   47.50   22.90
   5  -3   2   62.89   26.40
   5  -3   2  -13.40   20.40
   6  -3   2   11.00   27.00
   6  -3   2   52.29   29.50
   6   2  -2   21.70   27.40
   6   2  -2   32.50   41.20
   5   2  -2   47.80   24.70
   5   2  -2    5.20   29.30
   4   2  -2  105.59   31.30
   4   2  -2   89.39   28.30
   4   2  -2  106.99   24.10
   3   2  -2  154.68   22.70
   3   2  -2  185.78   32.60
   2   2  -2   24.00   14.10
   2   2  -2   29.30   18.70
   1   2  -2  685.93   39.00
   1   2  -2  746.83   51.49
   1   2  -2  698.13   37.10
   0   2  -2  511.35   30.00
   0  -2   2  546.35   29.80
   1  -2   2  492.65   30.80
   2  -2   2  209.68   24.40
   2  -2   2  186.38   20.60
   3  -2   2   98.79   19.20
   3  -2   2   65.59   20.10
   4  -2   2   75.69   26.20
   4  -2   2   78.99   26.60
   4  -2   2  119.89   24.30
  -5   2  -2   23.30   21.70
   5  -2   2   12.30   22.60
   5  -2   2    6.20   24.60
   6  -2   2  116.59   32.00
   6  -2   2   71.29   29.90
   6   1  -2    6.90   35.50
   6   1  -2   10.50   33.20
   6   1  -2    6.00   24.90
   5   1  -2  357.96   42.30
   5   1  -2  328.07   52.89
   5   1  -2  273.67   37.30
   5   1  -2  351.76   44.10
   4   1  -2   53.99   20.60
   4   1  -2   71.69   23.30
   4   1  -2   78.09   25.10
   4   1  -2   64.79   24.00
   4   1  -2  108.19   30.30
   3   1  -2  255.67   35.20
   3   1  -2  271.77   30.20
   3   1  -2  268.47   28.60
   3   1  -2  282.67   26.40
   3   1  -2  270.67   28.10
   2   1  -2  233.28   22.20
   2   1  -2  207.38   19.70
   2   1  -2  196.88   21.80
   2   1  -2  221.88   27.80
   2   1  -2  188.98   21.40
   1   1  -2 2160.98  102.19
   1   1  -2 2181.58  123.19
   1   1  -2 2191.38   95.19
   0   1  -2  232.88   14.30
   0   1  -2  208.28   14.40
   0  -1   2  194.28   15.20
   0  -1   2  207.68   14.50
   1  -1   2  385.96   25.60
   1  -1   2  367.86   22.30
  -2   1  -2   39.00   11.50
   2  -1   2   60.29   14.00
   2  -1   2   65.39   17.50
   2  -1   2   72.59   14.60
   2  -1   2   50.89   18.90
   3  -1   2  163.88   29.20
   3  -1   2  156.38   21.60
   3  -1   2  130.79   21.10
   3  -1   2  160.28   26.40
   3  -1   2  156.48   25.60
  -4   1  -2   82.09   18.90
   4  -1   2   84.69   21.20
   4  -1   2   72.99   27.20
   4  -1   2  131.39   26.50
   4  -1   2   83.19   21.50
   5  -1   2  168.38   39.20
   5  -1   2  214.68   33.90
   5  -1   2  286.27   36.00
   5  -1   2  204.68   33.60
   6  -1   2   38.80   29.30
   6  -1   2   82.19   38.00
   6  -1   2   47.10   29.20
   6   0  -2   20.20   27.30
   6   0  -2   32.30   29.50
   6   0  -2   37.90   34.70
   6   0  -2  -30.90   26.50
   5   0  -2  -10.00   28.40
   5   0  -2   38.30   24.60
   5   0  -2  -21.50   21.50
   5   0  -2   37.30   22.90
   4   0  -2  137.59   33.50
   4   0  -2  143.09   25.10
   4   0  -2  152.68   31.60
   4   0  -2  145.69   24.60
   4   0  -2  163.88   27.00
   3   0  -2   76.09   18.40
   3   0  -2   67.39   20.60
   3   0  -2   52.59   17.30
   3   0  -2   58.39   16.60
   3   0  -2   49.70   21.90
   2   0  -2   35.00   14.00
   2   0  -2   46.60   17.60
   2   0  -2   56.09   15.50
   2   0  -2   61.09   13.60
   2   0  -2   26.00   17.30
   1   0  -2  440.96   30.00
   1   0  -2  409.46   23.40
   1   0  -2  376.36   26.60
   1   0  -2  415.96   23.30
   1   0  -2  399.46   23.00
   0   0  -2   90.19    5.00
   0   0  -2  103.79    4.90
   0   0   2   84.49    4.80
   0   0   2   65.79    5.90
  -1   0  -2  250.97   17.10
  -1   0  -2  275.17   14.20
   1   0   2  274.17   17.40
   1   0   2  189.98   15.50
   1   0   2  214.98   24.10
   1   0   2  233.08   21.00
  -2   0  -2  309.17   22.30
   2   0   2  336.97   22.60
   2   0   2  263.27   28.10
   2   0   2  331.77   24.50
   2   0   2  306.97   28.70
   2   0   2  289.87   33.00
  -3   0  -2  105.59   16.10
   3   0   2   63.99   21.60
   3   0   2   95.29   25.90
   3   0   2  107.19   17.80
   3   0   2  123.59   22.00
   3   0   2  106.19   19.70
   4   0   2   21.60   22.00
   4   0   2   15.30   16.20
   4   0   2   19.40   24.10
   4   0   2  -13.50   16.70
   4   0   2   17.00   21.10
   5   0   2   12.30   22.50
   5   0   2  -11.20   18.30
   5   0   2   42.80   26.70
   5   0   2   48.70   31.60
   6   0   2   63.59   38.00
   6   0   2   25.80   26.70
   6   0   2    8.40   28.20
   6   0   2   14.50   27.10
   6  -1  -2   37.30   26.90
   6  -1  -2   -2.80   30.60
   6  -1  -2   27.50   27.30
   6  -1  -2   25.70   27.50
   5  -1  -2   32.60   27.90
   5  -1  -2  -13.80   19.40
   5  -1  -2   13.20   21.90
   5  -1  -2   75.89   32.50
   5  -1  -2   38.30   22.40
   4  -1  -2  130.99   24.40
   4  -1  -2   99.89   23.70
   4  -1  -2   80.29   28.00
   4  -1  -2  172.48   32.60
   4  -1  -2  129.49   25.30
   3  -1  -2   59.29   17.50
   3  -1  -2  110.09   25.10
   3  -1  -2  137.89   20.90
   3  -1  -2  111.69   20.60
   3  -1  -2   87.49   24.20
   2  -1  -2  257.67   24.00
   2  -1  -2  263.77   23.80
   2  -1  -2  270.67   25.50
   2  -1  -2  335.77   32.80
   2  -1  -2  332.87   30.40
   1  -1  -2   30.30   10.40
   1  -1  -2   20.80    9.50
   1  -1  -2   17.20   13.80
   1  -1  -2   11.70   10.40
   1  -1  -2   13.80   10.60
   0  -1  -2  576.64   24.80
   0  -1  -2  561.14   25.90
   0  -1  -2  573.34   26.40
   0   1   2  591.34   25.90
  -1  -1  -2  741.33   31.40
   1   1   2  715.83   46.60
   1   1   2  670.03   33.20
   1   1   2  669.03   33.60
  -2  -1  -2  692.63   33.50
   2   1   2  769.62   38.70
   2   1   2  665.53   41.60
   2   1   2  711.33   52.59
   2   1   2  715.13   37.10
   3   1   2   71.19   24.10
   3   1   2   81.19   18.50
   3   1   2   53.69   15.00
   3   1   2   76.29   21.40
   4   1   2   39.80   21.10
   4   1   2   57.19   24.90
   4   1   2   75.09   29.50
   4   1   2   36.20   18.50
   5   1   2   -8.30   30.50
   5   1   2   38.60   21.10
   5   1   2   61.39   29.00
   5   1   2  -35.20   21.40
   6   1   2   21.10   39.10
   6   1   2   11.80   31.00
   6   1   2   27.00   26.80
   6   1   2   24.50   30.80
   6  -2  -2   23.30   26.70
   6  -2  -2   24.50   31.00
   6  -2  -2   19.40   28.20
   6  -2  -2   21.70   28.50
   5  -2  -2   74.19   31.10
   5  -2  -2   74.89   26.30
   5  -2  -2   73.79   26.40
   5  -2  -2   52.99   24.20
   4  -2  -2   66.49   21.90
   4  -2  -2   78.99   24.20
   4  -2  -2   40.10   24.50
   4  -2  -2  109.39   32.70
   4  -2  -2   87.59   22.30
   3  -2  -2   66.09   18.50
   3  -2  -2   61.99   25.10
   3  -2  -2   90.39   19.40
   3  -2  -2   70.09   18.50
   3  -2  -2  106.29   24.80
   2  -2  -2  195.28   26.50
   2  -2  -2  152.08   18.90
   2  -2  -2  159.98   20.30
   2  -2  -2  151.48   20.20
   1  -2  -2   34.60   17.80
   1  -2  -2   62.89   11.40
   1  -2  -2   62.69   13.60
   0  -2  -2 1687.03   70.89
   0   2   2 1679.53   70.39
  -1  -2  -2  137.29   14.50
  -1  -2  -2  145.39   14.70
   1   2   2  161.18   20.80
   2   2   2  114.79   16.40
   2   2   2  132.09   19.10
   2   2   2  107.19   23.40
   3   2   2   37.40   17.50
   3   2   2   56.89   23.70
   3   2   2   37.90   14.00
   4   2   2   15.20   17.40
   4   2   2   52.49   28.00
   4   2   2   48.30   22.70
   5   2   2   20.30   28.20
   5   2   2   12.70   33.60
   5   2   2   33.20   21.40
   6   2   2    0.80   34.40
   6   2   2  -26.50   37.00
   6   2   2   28.60   26.50
   6  -3  -2   59.89   30.50
   5  -3  -2   30.00   24.20
   5  -3  -2   25.70   24.70
   4  -3  -2  171.68   28.80
   4  -3  -2  229.48   30.90
   3  -3  -2   52.29   16.70
   3  -3  -2   67.89   25.10
   2  -3  -2   41.80   21.40
   2  -3  -2   12.90   17.10
   2  -3  -2   38.80   14.50
   1  -3  -2  168.28   17.00
   1  -3  -2  193.68   24.20
   0  -3  -2   55.19   14.60
   0   3   2   79.79   14.90
  -1  -3  -2  114.19   15.70
   1   3   2  158.58   25.20
  -2  -3  -2  271.77   22.70
   2   3   2  186.48   29.50
   2   3   2  150.28   19.40
   3   3   2  344.67   43.20
   3   3   2  300.87   29.40
   4   3   2   94.59   23.50
   4   3   2  116.49   35.30
   5   3   2   -7.60   20.80
   5   3   2   -2.40   33.70
   6   3   2  -38.50   25.50
   6   3   2   -3.30   43.00
   6  -4  -2    7.20   28.10
   6  -4  -2   -3.20   26.60
   5  -4  -2   -3.60   25.00
   5  -4  -2   21.20   25.60
   4  -4  -2   44.10   23.60
   4  -4  -2   54.99   23.60
   3  -4  -2    2.30   24.10
   3  -4  -2   69.29   21.90
   3  -4  -2   50.79   18.80
   2  -4  -2  279.57   30.50
   2  -4  -2  279.67   25.70
   0  -4  -2   36.90   15.30
   0   4   2   58.89   15.50
  -2  -4  -2  299.47   26.30
   2   4   2  303.37   26.90
   2   4   2  331.97   39.10
   3   4   2   13.00   26.00
   3   4   2   10.60   16.10
   4   4   2  159.58   41.20
   4   4   2  162.98   27.10
   5   4   2   60.29   25.00
   5   4   2   -1.30   35.20
   6   4   2   28.70   27.90
   6   4   2  -23.20   41.10
   6  -5  -2   28.10   30.70
   5  -5  -2   32.30   27.00
   4  -5  -2   53.29   27.80
   4  -5  -2   26.10   22.60
   3  -5  -2   23.50   19.40
   3  -5  -2   34.10   23.30
   2  -5  -2   89.69   23.10
   2  -5  -2   56.79   17.50
  -1   5   2  141.09   20.90
   0  -5  -2  149.29   25.40
   0   5   2  144.69   21.10
  -1  -5  -2  107.99   20.90
  -2  -5  -2   18.20   16.60
   2   5   2   52.99   27.50
   3   5   2  -20.50   28.80
   3   5   2   -8.50   17.20
   4   5   2   36.90   36.20
   4   5   2    9.00   21.50
   5   5   2   90.39   29.40
   5   5   2   59.89   42.90
   5  -6  -2    5.80   29.00
   4  -6  -2   17.20   28.50
   4  -6  -2   39.60   25.50
   3  -6  -2    6.20   23.80
   3  -6  -2   33.20   20.60
   2  -6  -2   20.10   17.50
   2  -6  -2   18.30   22.60
  -1  -6  -2   38.00   20.50
  -2  -6  -2   69.69   21.40
   2   6   2   90.39   33.40
  -3  -6  -2   43.10   21.30
   3   6   2   -8.70   20.00
   3   6   2   19.90   31.10
   4   6   2   23.00   25.00
   4   6   2   32.30   37.60
   5   6   2   63.59   47.20
   5   6   2  -15.20   24.10
   5  -7  -2   -9.20   31.70
   4  -7  -2   55.09   32.50
   3  -7  -2   14.00   22.90
   3  -7  -2   36.40   30.60
   2  -7  -2   39.90   27.00
   2  -7  -2   37.00   19.50
  -2  -7  -2  186.78   30.70
   2   7   2  301.37   59.29
  -3  -7  -2   76.79   25.70
   3   7   2   -6.30   39.70
   3   7   2   61.29   26.50
   4   7   2  -32.40   39.40
   4   7   2   22.20   27.90
   5   7   2   11.60   28.30
   5  -8  -2   17.50   39.10
   4  -8  -2   76.19   36.30
   3  -8  -2   60.09   33.50
   2  -8  -2  105.09   25.70
   2  -8  -2  -28.90   33.00
   2   8   2  241.18   60.29
   3   8   2   -2.90   25.90
   3   8   2   15.80   36.70
   4   8   2  -12.50   29.20
   4   8   2  -18.10   42.60
   4  -9  -2   18.70   37.70
   3  -9  -2  147.59   40.00
   2  -9  -2   14.40   32.10
   2   9   2   52.69   50.09
   3   9   2   18.00   30.60
   3   9   2   -9.00   45.10
   3 -10  -2  -37.60   35.00
   2 -10  -2   97.39   39.90
   1  10   2  186.38   74.59
   2  10   2  -47.00   57.09
   2 -11  -2  -22.20   37.60
   1 -11  -2  201.38   50.19
   1 -11   3   33.10   41.80
   2 -11   3  -80.69   34.50
   3  10  -3 -123.39   59.89
   3  10  -3  -16.50   32.30
   2  10  -3   43.60   63.19
   1 -10   3   47.10   38.60
   2 -10   3   13.50   33.40
   3 -10   3   -8.80   34.20
   3   9  -3  -19.00   46.20
   3   9  -3  -15.40   30.40
   2   9  -3  -23.70   49.70
   1  -9   3   58.99   34.30
   2  -9   3   -3.90   29.90
   3  -9   3    5.40   30.40
   3  -9   3   -6.70   27.70
   4  -9   3   36.60   33.20
   4  -9   3  -19.40   34.00
   4   8  -3   90.49   44.40
   4   8  -3   46.40   34.70
   3   8  -3   20.50   27.60
   3   8  -3  -19.50   38.40
   1  -8   3   -6.50   28.10
   2  -8   3  -68.79   27.10
   3  -8   3  100.99   30.80
   3  -8   3  115.19   30.60
   4  -8   3   -4.20   31.10
   4  -8   3    7.50   27.90
   5   7  -3   24.30   44.70
   5   7  -3  -14.40   30.70
   4   7  -3  -28.10   34.40
   4   7  -3  -31.90   27.90
   3   7  -3   24.80   26.10
   3   7  -3   10.50   37.60
   2   7  -3  214.68   52.09
   1  -7   3  366.06   40.70
   2  -7   3   59.09   27.00
   3  -7   3    2.80   22.30
   3  -7   3   12.20   28.40
   4  -7   3   30.40   27.10
   4  -7   3    1.00   28.30
   5  -7   3   -3.30   28.10
   5  -7   3  -18.80   29.70
   5   6  -3  -42.20   35.70
   5   6  -3   37.60   30.80
   4   6  -3  114.49   40.00
   4   6  -3   95.99   32.00
   3   6  -3   11.40   36.70
   3   6  -3  102.29   27.70
   2   6  -3  132.39   38.20
  -1   6  -3   21.00   20.80
   1  -6   3  -17.50   21.60
   2  -6   3   32.70   23.30
   3  -6   3   46.30   26.80
   3  -6   3   -0.50   18.90
   4  -6   3  -10.50   27.50
   4  -6   3    4.60   23.20
   5  -6   3   24.20   29.30
   5  -6   3   21.80   27.00
   5   5  -3   14.50   26.80
   5   5  -3   22.20   38.50
   4   5  -3  -15.00   33.30
   4   5  -3   29.00   23.40
   3   5  -3   51.49   22.60
   3   5  -3  -77.59   29.40
   2   5  -3  118.99   24.10
   2   5  -3  118.19   33.30
  -1   5  -3   92.89   20.20
   1  -5   3  105.49   23.70
   2  -5   3   10.60   21.10
   2  -5   3   47.40   18.00
   3  -5   3   96.79   26.40
   3  -5   3  118.09   24.50
   4  -5   3   24.80   25.60
   4  -5   3   43.90   23.70
   5  -5   3   18.50   27.10
   5  -5   3   19.70   27.10
   6  -5   3   14.10   32.40
   6  -5   3    3.50   31.00
   6   4  -3   12.10   30.70
   6   4  -3   -1.10   38.30
   5   4  -3  -13.10   32.10
   5   4  -3    1.60   27.50
   4   4  -3  -17.60   27.10
   4   4  -3    1.90   21.10
   3   4  -3    1.50   18.70
   3   4  -3   24.40   25.80
   2   4  -3   47.70   17.10
   2   4  -3   18.50   24.80
  -1  -4   3  206.18   24.20
   0  -4   3  114.29   20.70
  -1   4  -3   52.19   16.40
   1  -4   3   55.49   23.30
   2  -4   3   -6.70   15.30
   2  -4   3    1.50   17.00
   3  -4   3   81.19   24.10
   3  -4   3   88.39   21.50
   4  -4   3   97.19   25.60
   4  -4   3   67.39   23.00
   5  -4   3   10.60   26.50
   5  -4   3   -3.80   22.40
   6  -4   3  -15.30   28.30
   6  -4   3   -5.10   26.50
   6   3  -3    4.10   28.30
   6   3  -3   14.30   38.60
   5   3  -3    7.10   32.90
   5   3  -3   43.30   25.30
   4   3  -3   79.19   31.30
   4   3  -3   79.79   23.50
   3   3  -3  139.19   30.10
   3   3  -3  163.98   24.90
   3   3  -3   89.79   20.00
   2   3  -3  154.98   20.80
   2   3  -3   73.09   19.20
   2   3  -3  110.89   29.10
   1   3  -3 1858.01   91.89
   0   3  -3  365.16   29.20
  -1   3  -3  345.77   25.20
   1  -3   3  313.97   27.80
   2  -3   3  207.08   25.90
   2  -3   3  275.97   24.90
   3  -3   3   67.19   19.30
   3  -3   3   75.69   21.90
  -4   3  -3   75.99   20.40
   4  -3   3   60.59   22.00
   4  -3   3   64.99   24.10
   5  -3   3   99.59   29.80
   5  -3   3   23.90   23.30
   6  -3   3   -0.50   28.00
   6  -3   3  -21.20   25.60
   6   2  -3   26.40   30.20
   6   2  -3  -16.30   36.20
   5   2  -3   19.50   31.00
   5   2  -3   30.30   23.90
   4   2  -3   31.40   26.30
   4   2  -3   70.69   26.30
   4   2  -3   68.89   21.80
   3   2  -3   57.39   24.20
   3   2  -3   78.99   19.90
   3   2  -3   64.09   18.10
   2   2  -3  127.19   18.70
   2   2  -3  153.98   26.10
   2   2  -3  163.38   20.70
   1   2  -3  834.32   42.70
   1   2  -3  776.22   57.99
   1   2  -3  884.61   45.50
   0   2  -3 2344.27   98.29
   0  -2   3 2397.86   98.09
   1  -2   3  311.77   25.10
   2  -2   3   87.49   16.20
   2  -2   3  120.79   20.60
  -3   2  -3   43.00   14.90
   3  -2   3   24.50   19.00
   3  -2   3   15.60   15.40
   4  -2   3   27.70   19.30
   4  -2   3   28.10   23.60
  -5   2  -3   95.79   25.70
   5  -2   3   77.49   26.60
   5  -2   3   95.69   29.30
   6  -2   3   46.80   29.00
   6  -2   3   50.39   30.60
   6   1  -3   63.09   36.70
   6   1  -3   -9.70   34.20
   6   1  -3   18.30   26.70
   5   1  -3  265.37   42.10
   5   1  -3  261.57   35.30
   5   1  -3  212.08   44.60
   5   1  -3  283.97   38.40
   4   1  -3   30.50   21.80
   4   1  -3   49.10   20.50
   4   1  -3   45.90   22.10
   4   1  -3   49.99   25.70
   4   1  -3   58.79   27.30
   3   1  -3  519.65   48.10
   3   1  -3  521.85   36.20
   3   1  -3  456.85   36.30
   3   1  -3  507.15   35.50
   2   1  -3  145.99   18.20
   2   1  -3   93.89   18.80
   2   1  -3  118.29   22.50
   2   1  -3  121.29   19.10
   2   1  -3  112.99   17.00
   1   1  -3  657.73   34.50
   1   1  -3  655.93   44.50
   1   1  -3  681.53   37.00
   0   1  -3  178.88   14.10
   0   1  -3  178.68   15.00
   0  -1   3  180.38   14.90
  -1   1  -3   73.39   11.90
   1  -1   3   85.69   15.40
   1  -1   3   82.79   12.30
  -2   1  -3   48.10   12.80
   2  -1   3   53.49   18.90
   2  -1   3   38.10   13.50
   2  -1   3   59.99   14.20
   2  -1   3   57.19   17.80
   3  -1   3   99.09   22.70
   3  -1   3   97.99   19.40
   3  -1   3   91.69   19.10
   3  -1   3  108.69   26.40
  -4   1  -3  126.39   22.10
   4  -1   3  154.58   28.30
   4  -1   3  132.39   32.00
   4  -1   3  109.99   23.70
   4  -1   3  130.29   23.90
  -5   1  -3  110.59   25.10
   5  -1   3  153.18   32.40
   5  -1   3  107.29   26.40
   5  -1   3  160.38   30.70
   5  -1   3  106.89   36.70
   6  -1   3   56.59   35.50
   6  -1   3   62.19   30.70
   6  -1   3   39.40   28.20
   6   0  -3   50.39   27.50
   6   0  -3   77.19   34.80
   6   0  -3   -3.80   32.30
   6   0  -3    9.90   28.20
   5   0  -3   32.40   25.90
   5   0  -3   14.50   21.10
   5   0  -3   22.70   23.80
   5   0  -3   27.70   30.50
   4   0  -3  801.22   50.59
   4   0  -3  784.92   49.90
   4   0  -3  753.12   57.69
   4   0  -3  738.83   49.50
   4   0  -3  782.12   68.49
   3   0  -3  156.68   23.60
   3   0  -3  173.68   23.40
   3   0  -3  218.68   25.00
   3   0  -3  211.98   31.30
   3   0  -3  186.78   27.40
   2   0  -3  233.88   25.70
   2   0  -3  225.38   21.80
   2   0  -3  229.88   21.40
   2   0  -3  244.28   28.40
   2   0  -3  187.58   21.10
   1   0  -3  275.57   17.50
   1   0  -3  227.18   21.70
   1   0  -3  250.67   23.10
   1   0  -3  260.17   18.60
   1   0  -3  228.98   18.20
   0   0  -3   41.40    6.70
   0   0  -3   48.80    5.80
   0   0  -3   28.10    4.50
   0   0  -3   38.40    5.00
   0   0  -3   37.30    4.70
   0   0  -3   37.40    5.70
   0   0   3   37.80    4.70
   0   0   3   31.70    4.30
   0   0   3   40.60    5.20
  -1   0  -3  632.54   31.90
  -1   0  -3  648.94   28.90
   1   0   3  597.54   43.60
   1   0   3  665.13   30.50
   1   0   3  629.84   35.60
   1   0   3  711.73   31.60
  -2   0  -3  272.87   22.90
   2   0   3  371.16   29.20
   2   0   3  275.47   23.20
   2   0   3  287.77   33.10
   2   0   3  276.17   21.20
  -3   0  -3   -5.20   12.50
   3   0   3   24.40   22.80
   3   0   3   45.80   16.00
   3   0   3   30.00   14.30
   3   0   3   30.70   18.60
  -4   0  -3    1.90   14.70
   4   0   3   -6.50   16.80
   4   0   3   20.20   25.00
   4   0   3  -24.50   21.30
   4   0   3  -13.10   14.60
   5   0   3   -3.50   21.80
   5   0   3  -30.80   16.00
   5   0   3   13.80   26.80
   5   0   3   -5.00   26.80
   6   0   3   32.80   25.20
   6   0   3   36.10   28.00
   6   0   3   22.10   30.30
   6   0   3    8.70   35.10
   6  -1  -3   -0.70   25.20
   6  -1  -3  -15.90   25.50
   6  -1  -3   34.40   32.50
   6  -1  -3   20.40   27.80
   5  -1  -3    8.80   26.40
   5  -1  -3   17.30   21.40
   5  -1  -3   18.50   23.30
   5  -1  -3   51.89   24.20
   4  -1  -3  153.38   26.00
   4  -1  -3  173.58   26.60
   4  -1  -3  193.28   34.30
   4  -1  -3  210.08   34.80
   4  -1  -3  166.78   26.80
   3  -1  -3  467.45   40.90
   3  -1  -3  474.85   35.40
   3  -1  -3  527.55   46.70
   3  -1  -3  464.25   34.30
   3  -1  -3  464.25   34.40
   2  -1  -3  256.17   28.20
   2  -1  -3  288.77   23.40
   2  -1  -3  267.17   24.70
   2  -1  -3  214.68   27.80
   2  -1  -3  226.08   22.30
   1  -1  -3 1459.55   64.09
   1  -1  -3 1449.46   62.69
   1  -1  -3 1412.86   72.89
   1  -1  -3 1436.16   83.59
   1  -1  -3 1481.55   66.19
   0  -1  -3  430.76   22.60
   0  -1  -3  416.06   21.20
   0  -1  -3  470.75   22.00
   0   1   3  444.76   21.90
  -1  -1  -3  181.58   13.20
  -1  -1  -3  161.08   13.60
   1   1   3  154.78   14.60
   1   1   3  160.78   12.40
   1   1   3  169.98   20.60
   1   1   3  174.98   18.20
  -2  -1  -3  518.45   28.00
   2   1   3  488.45   43.10
   2   1   3  478.55   29.10
   2   1   3  537.75   35.80
   2   1   3  576.84   32.70
   3   1   3  -12.40   19.30
   3   1   3   -5.00   12.10
   3   1   3   35.40   15.90
   3   1   3   20.60   19.80
   4   1   3   27.40   28.60
   4   1   3    9.60   24.10
   4   1   3  -20.00   17.60
   4   1   3   -1.00   15.70
   5   1   3   -8.10   29.50
   5   1   3   18.40   23.60
   5   1   3   28.50   20.00
   5   1   3    9.70   26.80
   6   1   3  -23.40   27.10
   6   1   3   19.40   25.70
   6   1   3   19.50   41.40
   6   1   3   -9.10   31.90
   6  -2  -3   44.80   28.10
   6  -2  -3   11.10   31.10
   6  -2  -3   49.50   28.70
   6  -2  -3  -26.30   22.70
   5  -2  -3   42.20   25.20
   5  -2  -3   19.20   27.10
   5  -2  -3   35.50   22.80
   5  -2  -3   16.30   23.90
   4  -2  -3   26.10   19.60
   4  -2  -3   41.50   24.60
   4  -2  -3   58.19   28.70
   4  -2  -3   67.99   21.70
   4  -2  -3   55.49   23.10
   3  -2  -3  162.48   29.80
   3  -2  -3  216.98   26.70
   3  -2  -3  214.48   25.60
   3  -2  -3  235.98   25.90
   3  -2  -3  240.88   33.20
   2  -2  -3  136.49   18.40
   2  -2  -3  123.59   19.30
   2  -2  -3  121.59   24.30
   2  -2  -3   72.99   16.00
   1  -2  -3 1055.59   48.30
   1  -2  -3 1038.80   59.29
   1  -2  -3 1102.79   51.09
   0  -2  -3  423.26   28.90
   0  -2  -3  444.66   27.70
   0  -2  -3  450.95   25.80
   0   2   3  495.65   25.30
  -1  -2  -3  199.08   17.20
  -1  -2  -3  232.68   17.90
   1   2   3  214.58   24.30
  -2  -2  -3   89.69   13.90
   2   2   3  101.09   15.30
   2   2   3  101.39   24.40
   2   2   3  151.48   18.70
  -3  -2  -3  107.79   15.20
   3   2   3  113.59   28.50
   3   2   3  102.19   20.50
   3   2   3  107.29   17.70
   4   2   3   13.10   17.10
   4   2   3   26.50   21.10
   4   2   3    4.50   27.90
   5   2   3    9.60   33.40
   5   2   3   28.80   22.70
   5   2   3    7.70   27.60
   6   2   3    5.70   39.00
   6   2   3    0.90   24.20
   6   2   3   -8.70   32.80
   6  -3  -3   25.00   27.10
   5  -3  -3    9.00   22.50
   5  -3  -3   36.00   25.60
   4  -3  -3  109.19   23.20
   4  -3  -3   38.20   21.20
   4  -3  -3  118.39   35.00
   3  -3  -3  133.39   22.90
   3  -3  -3  185.68   32.40
   3  -3  -3  135.39   24.80
   2  -3  -3    0.70   15.80
   2  -3  -3   27.70   13.70
   2  -3  -3   17.20   20.20
   1  -3  -3   75.79   19.70
   1  -3  -3   40.80   11.10
   0  -3  -3  138.79   17.10
   0   3   3  153.38   17.10
  -1  -3  -3   20.40   12.60
  -1  -3  -3   15.40   12.60
   1   3   3   20.90   18.60
  -2  -3  -3   70.49   14.30
  -2  -3  -3   71.89   14.20
   2   3   3   54.49   23.00
   2   3   3   69.69   15.10
   3   3   3  106.19   18.90
   3   3   3   91.59   29.00
   4   3   3   38.50   31.30
   4   3   3   37.00   19.40
   5   3   3   33.10   36.40
   5   3   3    7.10   20.70
   6   3   3  -31.40   24.30
   6   3   3  -31.00   39.10
   6  -4  -3   35.30   28.50
   5  -4  -3   56.99   28.00
   5  -4  -3    7.10   23.90
   4  -4  -3   44.10   23.60
   4  -4  -3   41.90   23.40
   3  -4  -3    2.70   23.70
   3  -4  -3   33.30   17.70
   3  -4  -3    6.40   19.20
   2  -4  -3  181.78   25.80
   2  -4  -3  199.98   22.00
   2  -4  -3  192.58   29.80
   1  -4  -3  305.67   22.20
  -1   4   3  343.07   25.80
   0  -4  -3   21.10   15.00
   0   4   3   17.10   15.20
  -1  -4  -3  171.38   23.20
  -2  -4  -3  206.08   21.80
   2   4   3  197.38   31.50
   2   4   3  181.48   23.10
  -3  -4  -3   28.80   16.10
   3   4   3   16.60   16.90
   3   4   3   11.50   26.20
   4   4   3  174.98   42.00
   4   4   3  158.48   26.40
   5   4   3   21.10   23.00
   5   4   3   26.80   39.70
   6   4   3  -17.20   47.00
   6  -5  -3   18.60   31.60
   4  -5  -3   37.80   22.90
   4  -5  -3   -5.20   25.30
   3  -5  -3  -31.50   16.40
   3  -5  -3  -14.90   21.50
   2  -5  -3   52.69   21.50
   2  -5  -3   39.00   15.90
  -1   5   3   27.50   16.00
   0  -5  -3  229.68   26.50
   0  -5  -3  294.17   30.70
  -1  -5  -3  164.58   21.90
   1   5   3   16.50   29.80
  -2  -5  -3   37.10   18.60
   2   5   3   -6.00   25.90
  -3  -5  -3   53.99   20.50
   3   5   3   21.50   18.90
   3   5   3    8.60   27.80
   4   5   3  -18.40   32.30
   4   5   3    4.50   20.40
   5   5   3  297.37   57.89
   5   5   3  220.68   35.70
   5  -6  -3   35.70   30.60
   4  -6  -3   34.80   29.50
   4  -6  -3   82.09   28.40
   3  -6  -3    6.50   23.70
   3  -6  -3   29.60   21.80
   2  -6  -3   31.70   23.90
   2  -6  -3   51.69   17.40
   0   6   3  242.18   27.80
  -1  -6  -3  -19.90   17.80
  -2  -6  -3    1.60   18.60
   2   6   3   16.90   32.90
  -3  -6  -3   42.50   22.30
   3   6   3   40.10   33.10
   3   6   3    9.40   20.60
   4   6   3   30.90   40.10
   4   6   3   65.69   26.50
   5   6   3  -10.30   24.30
   5   6   3   10.80   42.20
   5  -7  -3   69.69   36.40
   4  -7  -3   -1.10   30.50
   3  -7  -3   39.30   23.30
   3  -7  -3    8.60   30.20
   2  -7  -3    7.50   18.70
   2  -7  -3   44.50   26.70
  -1  -7  -3  693.63   51.09
  -2  -7  -3  146.59   29.60
   2   7   3  137.09   48.00
  -3  -7  -3   54.79   27.00
   3   7   3   69.59   26.30
   3   7   3  -19.10   40.80
   4   7   3   33.40   27.50
   4   7   3    2.00   42.50
   5  -8  -3   51.29   40.50
   4  -8  -3   75.29   35.00
   3  -8  -3  111.09   34.40
   2  -8  -3  -35.50   34.60
   2  -8  -3   64.69   23.60
   2   8   3  291.47   65.89
   3   8   3   39.80   27.20
   3   8   3   10.00   39.10
   4   8   3   16.70   46.70
   4   8   3  -25.70   27.70
   4  -9  -3   66.29   40.70
   3  -9  -3   62.69   35.40
   2  -9  -3    5.60   32.30
   2   9   3    5.80   47.30
   3   9   3   86.39   49.20
   3   9   3  136.89   36.20
   3 -10  -3    0.30   36.80
   2 -10  -3   74.29   37.90
   1  10   3  227.08   81.19
   2  10   3  -39.50   53.49
   2 -11  -3  -17.70   40.30
   1 -11   4  -19.70   39.60
   2 -11   4  -19.80   37.40
   3  10  -4 -161.08   60.49
   3  10  -4   28.00   35.30
   2  10  -4  -23.60   59.49
   1 -10   4   25.50   34.20
   2 -10   4   10.90   33.50
   3 -10   4  -89.79   30.00
   3   9  -4   -3.70   49.30
   3   9  -4   12.90   31.40
   2   9  -4  -36.00   47.80
   1  -9   4   20.50   31.40
   2  -9   4   -0.80   29.10
   3  -9   4   26.70   28.70
   3  -9   4   26.30   33.20
   4  -9   4    8.10   29.90
   4  -9   4   26.20   35.90
   4   8  -4   97.09   44.90
   4   8  -4    9.90   32.00
   3   8  -4    5.80   39.10
   3   8  -4   41.50   30.00
   1  -8   4   81.69   31.20
   2  -8   4  -42.00   27.30
   3  -8   4   93.89   29.50
   3  -8   4  105.49   34.20
   4  -8   4   13.20   28.10
   4  -8   4   47.00   32.90
   5   7  -4    6.50   42.80
   5   7  -4  -29.90   30.50
   4   7  -4  -24.40   27.50
   4   7  -4   12.80   36.20
   3   7  -4   17.50   26.00
   3   7  -4   48.10   39.50
   2   7  -4  118.99   35.20
   2   7  -4  135.39   49.70
   1  -7   4  100.99   29.60
   2  -7   4   28.80   25.20
   3  -7   4   13.40   27.50
   3  -7   4    1.00   22.90
   4  -7   4   24.40   30.80
   4  -7   4   28.80   26.30
   5  -7   4   41.00   35.00
   5  -7   4  -20.20   29.10
   5   6  -4   12.00   38.40
   5   6  -4   28.70   28.60
   4   6  -4   29.20   34.40
   4   6  -4   62.09   29.50
   3   6  -4  117.39   27.70
   3   6  -4   47.30   39.20
   2   6  -4   83.59   36.00
   1  -6   4   12.60   21.70
   2  -6   4   55.39   24.30
   3  -6   4   60.79   26.30
   3  -6   4   66.19   24.20
   4  -6   4   13.90   28.40
   4  -6   4  -17.40   22.20
   5  -6   4   43.70   31.20
   5  -6   4   83.79   32.60
   5   5  -4  -39.10   32.90
   5   5  -4    7.10   27.20
   4   5  -4   25.50   24.50
   4   5  -4   20.50   34.70
   3   5  -4   11.10   20.40
   3   5  -4 -101.29   30.70
   2   5  -4  101.59   22.20
   2   5  -4   55.69   20.80
   2   5  -4  100.39   31.60
   0   5  -4  428.86   35.90
   0  -5   4  379.56   36.30
  -1   5  -4   12.50   19.20
   1  -5   4   75.89   21.30
   2  -5   4   30.70   20.60
   3  -5   4  102.09   24.20
   3  -5   4  104.39   25.00
   4  -5   4   25.70   25.30
   4  -5   4   26.30   23.20
  -5   5  -4   -1.10   25.20
   5  -5   4    9.40   25.90
   5  -5   4   48.60   27.80
   6  -5   4  -16.30   29.10
   6   4  -4   65.09   32.70
   6   4  -4   26.70   39.90
   5   4  -4   33.30   33.20
   5   4  -4   15.90   25.90
   4   4  -4   14.10   20.70
   4   4  -4   32.00   31.10
   3   4  -4  -17.10   17.50
   3   4  -4  -25.40   21.00
   2   4  -4  178.18   24.40
   2   4  -4  188.88   24.80
   2   4  -4  196.18   34.10
   1   4  -4  432.16   45.80
   0   4  -4  469.95   35.50
   0  -4   4  509.05   36.20
   1  -4   4   67.39   23.00
   2  -4   4    4.80   15.90
   2  -4   4   36.00   19.20
   3  -4   4    3.80   19.60
   3  -4   4   14.40   16.90
  -4   4  -4  284.67   33.20
   4  -4   4  235.48   34.30
   4  -4   4  341.17   38.10
  -5   4  -4  -32.50   20.70
   5  -4   4    8.70   25.20
   5  -4   4   29.20   25.10
   6  -4   4   16.80   27.40
   6  -4   4    6.60   30.10
   6   3  -4   -4.10   37.40
   6   3  -4  -30.10   28.40
   5   3  -4   78.19   36.20
   5   3  -4   95.19   28.70
   4   3  -4   38.80   21.70
   4   3  -4   20.50   28.70
   3   3  -4  114.69   22.20
   3   3  -4  198.28   26.10
   3   3  -4  127.09   30.70
   2   3  -4   -4.40   21.80
   2   3  -4    0.90   15.30
   2   3  -4   30.30   15.30
   1   3  -4 1096.29   58.99
   0   3  -4  152.18   19.90
   0  -3   4  116.59   20.30
   1  -3   4  267.17   24.80
   2  -3   4  229.08   23.90
   2  -3   4  194.88   24.90
   3  -3   4   40.40   20.50
   3  -3   4   38.80   17.40
  -4   3  -4   -1.90   16.90
   4  -3   4   12.50   22.40
   4  -3   4   -2.70   17.50
   5  -3   4  114.19   30.80
   5  -3   4  102.29   29.50
   6  -3   4  -19.00   27.50
   6  -3   4   -9.20   24.80
   6   2  -4   34.10   39.60
   6   2  -4   24.90   30.80
   5   2  -4    5.50   23.10
   5   2  -4   35.20   31.10
   4   2  -4  131.19   33.30
   4   2  -4  115.09   29.00
   4   2  -4  120.39   25.50
   3   2  -4   15.70   21.00
   3   2  -4   19.90   17.80
   3   2  -4    9.60   15.80
   2   2  -4  350.66   27.80
   2   2  -4  385.36   29.60
   2   2  -4  331.27   36.40
   1   2  -4  625.64   36.80
   1   2  -4  629.04   34.00
   1   2  -4  514.25   47.30
   0   2  -4 8758.22  346.87
   0  -2   4 8799.52  346.77
   1  -2   4  173.88   19.40
   2  -2   4  234.38   22.40
   2  -2   4  216.08   26.20
  -3   2  -4   25.80   14.40
   3  -2   4   27.80   18.60
   3  -2   4   37.70   17.10
   4  -2   4   15.80   21.90
   4  -2   4  -13.40   16.30
  -5   2  -4   31.40   22.60
   5  -2   4    9.40   25.10
   5  -2   4   10.90   21.80
   6  -2   4   55.69   31.60
   6  -2   4   15.60   27.70
   6   1  -4  -68.49   32.30
   6   1  -4   19.40   36.60
   6   1  -4   11.50   26.70
   5   1  -4   89.29   27.60
   5   1  -4   72.19   34.90
   5   1  -4  207.88   33.70
   5   1  -4  225.58   39.40
   4   1  -4   83.89   27.70
   4   1  -4   64.39   26.00
   4   1  -4   44.10   24.60
   4   1  -4   80.79   22.70
   4   1  -4   15.70   18.70
   3   1  -4  561.24   42.70
   3   1  -4  541.35   37.90
   3   1  -4  582.74   40.50
   3   1  -4  559.64   50.89
   3   1  -4  534.15   36.90
   2   1  -4   54.89   16.60
   2   1  -4   44.10   14.10
   2   1  -4   82.99   15.90
   2   1  -4   65.79   19.30
   1   1  -4   44.50   13.30
   1   1  -4   64.49   12.80
   1   1  -4   52.89   15.10
   0   1  -4   67.29    9.60
   0   1  -4   90.39   10.10
   0  -1   4   68.89   10.90
   0  -1   4   75.09    9.50
  -1   1  -4 4229.58  155.78
   1  -1   4 4152.48  179.18
  -2   1  -4  110.59   15.70
   2  -1   4  125.69   23.10
   2  -1   4  118.09   21.00
   2  -1   4  109.99   16.10
  -3   1  -4   43.40   13.40
  -3   1  -4   70.89   17.40
   3  -1   4   48.40   17.10
   3  -1   4   52.49   16.10
   3  -1   4   45.00   22.70
   3  -1   4   65.09   22.70
  -4   1  -4   62.09   20.60
   4  -1   4  102.89   30.40
   4  -1   4   77.89   22.20
   4  -1   4   88.99   21.30
   4  -1   4   88.49   26.10
  -5   1  -4   80.59   25.80
   5  -1   4   28.50   24.50
   5  -1   4   96.79   29.80
   5  -1   4  102.79   34.10
  -6   1  -4   50.89   25.30
   6  -1   4  -37.80   31.60
   6  -1   4   73.19   32.20
   6  -1   4   42.50   29.00
   6   0  -4   18.40   33.70
   6   0  -4   69.89   30.30
   6   0  -4   79.89   35.10
   6   0  -4   67.49   30.10
   5   0  -4   14.40   22.70
   5   0  -4   43.30   32.30
   5   0  -4   23.00   25.40
   5   0  -4   32.50   22.90
   4   0  -4  476.75   38.90
   4   0  -4  488.45   38.80
   4   0  -4  363.86   38.80
   4   0  -4  536.05   48.20
   4   0  -4  577.74   55.59
   3   0  -4  230.38   30.20
   3   0  -4  218.98   25.70
   3   0  -4  261.37   25.80
   3   0  -4  235.48   32.50
   3   0  -4  208.58   25.70
   2   0  -4  340.87   25.30
   2   0  -4  326.47   33.00
   2   0  -4  349.77   25.70
   2   0  -4  345.97   31.20
   2   0  -4  329.67   26.60
   1   0  -4  263.17   19.70
   1   0  -4  242.38   19.00
   1   0  -4  265.17   23.30
   1   0  -4  257.27   22.50
   0   0  -4  511.25   23.40
   0   0  -4  509.45   28.10
   0   0  -4  532.85   23.00
   0   0  -4  535.05   24.40
   0   0  -4  535.05   23.60
   0   0   4  520.55   23.70
  -1   0  -4  771.62   37.80
  -1   0  -4  801.42   34.80
   1   0   4  736.33   41.20
   1   0   4  789.22   50.79
   1   0   4  810.02   36.70
  -2   0  -4  202.18   19.80
  -2   0  -4  223.28   17.70
   2   0   4  198.58   28.60
   2   0   4  222.28   20.80
   2   0   4  237.08   25.60
   2   0   4  214.38   18.40
  -3   0  -4   13.50   14.70
   3   0   4    4.80   20.90
   3   0   4   16.20   12.90
   3   0   4    3.30   18.40
   3   0   4   21.60   15.30
  -4   0  -4   14.00   16.40
   4   0   4   32.00   19.50
   4   0   4  -17.60   22.20
   4   0   4   22.50   16.90
   4   0   4   47.00   27.50
   5   0   4   19.60   22.90
   5   0   4    6.50   19.80
   5   0   4  -10.70   25.50
   5   0   4   13.60   29.80
   6   0   4  -13.80   24.50
   6   0   4   30.80   38.30
   6   0   4  -12.20   29.10
   6  -1  -4    6.40   29.20
   6  -1  -4   70.59   34.80
   6  -1  -4   12.70   26.40
   6  -1  -4   37.00   27.40
   5  -1  -4   42.90   30.30
   5  -1  -4   24.80   24.60
   5  -1  -4   73.49   24.20
   5  -1  -4   64.09   25.30
   4  -1  -4  112.49   23.90
   4  -1  -4   98.39   23.70
   4  -1  -4   75.79   27.80
   4  -1  -4   58.69   21.10
   4  -1  -4  105.59   29.70
   3  -1  -4 1702.33   86.59
   3  -1  -4 1871.51   86.39
   3  -1  -4 1954.40  116.59
   3  -1  -4 1824.72   97.29
   3  -1  -4 1826.12   89.89
   2  -1  -4  175.18   24.40
   2  -1  -4  163.28   18.80
   2  -1  -4  159.38   21.30
   2  -1  -4  150.78   23.70
   2  -1  -4  159.88   19.10
   1  -1  -4 4912.51  232.58
   1  -1  -4 5047.59  210.58
   1  -1  -4 4852.31  184.08
   1  -1  -4 5015.90  197.28
   1  -1  -4 5031.90  204.38
   1  -1  -4 5276.47  213.88
   1  -1  -4 5043.00  274.07
   0  -1  -4   80.29   10.30
   0  -1  -4   51.99    9.30
   0  -1  -4   70.19   10.30
   0   1   4   64.29    9.30
  -1  -1  -4  105.29   12.00
  -1  -1  -4   82.49   11.70
   1   1   4   85.99   16.10
   1   1   4   87.79   15.90
   1   1   4   62.39    8.10
   1   1   4   60.69   10.80
  -2  -1  -4  155.28   16.10
  -2  -1  -4  155.98   14.10
   2   1   4  100.69   13.60
   2   1   4  153.38   24.80
   2   1   4  157.58   18.50
   2   1   4  143.79   23.00
  -3  -1  -4   -7.60   11.70
   3   1   4    2.90   22.40
   3   1   4   24.50   12.10
   3   1   4   -0.40   19.50
   3   1   4   19.20   16.20
   4   1   4    3.40   18.60
   4   1   4  -11.10   22.90
   4   1   4    4.90   15.80
   4   1   4   14.00   28.60
   5   1   4  -11.10   17.60
   5   1   4    3.10   21.70
   5   1   4   23.00   27.90
   5   1   4  -11.40   29.30
   6   1   4    3.80   22.80
   6   1   4   46.00   39.70
   6   1   4  -25.80   31.50
   6   1   4  -14.50   26.20
   6  -2  -4   23.00   26.00
   6  -2  -4    0.30   27.10
   6  -2  -4  -20.20   24.40
   6  -2  -4  -14.70   27.90
   5  -2  -4    3.90   22.40
   5  -2  -4   25.30   26.30
   5  -2  -4   38.30   24.20
   5  -2  -4  -22.70   20.60
   4  -2  -4  101.99   24.70
   4  -2  -4  102.19   22.90
   4  -2  -4  137.39   32.40
   4  -2  -4   90.19   23.60
   4  -2  -4   75.99   28.80
   3  -2  -4   90.39   25.40
   3  -2  -4   54.09   18.50
   3  -2  -4   37.50   17.10
   3  -2  -4   64.89   17.30
   3  -2  -4   23.10   20.50
   2  -2  -4  730.73   40.10
   2  -2  -4  675.43   41.60
   2  -2  -4  756.22   48.90
   2  -2  -4  775.62   52.59
   2  -2  -4  687.63   39.70
   1  -2  -4 2126.89   89.69
   1  -2  -4 2139.39   93.69
   1  -2  -4 2117.89  104.59
   1  -2  -4 2132.69   88.99
   0  -2  -4   13.20   11.00
   0  -2  -4    4.00   10.90
   0   2   4   16.20   11.40
  -1  -2  -4  224.68   19.80
  -1  -2  -4  255.07   18.60
   1   2   4  215.48   24.70
  -2  -2  -4  122.39   15.40
  -2  -2  -4  112.79   14.20
   2   2   4   78.89   24.60
   2   2   4  113.39   14.90
   2   2   4  110.09   16.80
  -3  -2  -4   52.39   14.40
   3   2   4   50.29   15.10
   3   2   4   35.60   23.60
   3   2   4   49.80   17.60
   4   2   4    3.90   28.30
   4   2   4   30.10   16.90
   4   2   4   42.30   21.80
   5   2   4   37.30   38.40
   5   2   4   48.00   29.10
   5   2   4   12.90   20.80
   6   2   4    9.50   39.20
   6   2   4   26.80   35.40
   6   2   4   -2.70   23.20
   6  -3  -4  -18.80   25.10
   5  -3  -4   61.89   25.70
   5  -3  -4   73.19   28.10
   4  -3  -4    7.30   19.40
   4  -3  -4   13.90   18.90
   4  -3  -4   45.60   29.20
   4  -3  -4    8.00   19.20
   3  -3  -4  180.28   24.10
   3  -3  -4  153.28   24.00
   3  -3  -4  164.08   31.70
   2  -3  -4  208.38   29.60
   2  -3  -4  270.57   23.10
   2  -3  -4  209.28   24.80
   1  -3  -4   39.60   10.80
   1  -3  -4   58.49   19.10
   1  -3  -4   48.40   14.90
   0  -3  -4  196.28   19.80
   0  -3  -4  188.98   19.10
   0   3   4  173.98   17.80
  -1  -3  -4  109.49   16.40
  -1  -3  -4  114.59   16.00
   1   3   4  118.39   21.70
  -2  -3  -4  123.99   16.50
  -2  -3  -4  156.58   17.60
   2   3   4   91.99   16.00
   2   3   4   86.09   26.90
  -3  -3  -4   65.89   15.40
   3   3   4   66.99   16.90
   3   3   4   46.90   26.70
   4   3   4   15.40   30.00
   4   3   4   27.90   17.50
   4   3   4   -4.60   24.90
   5   3   4    4.90   19.10
   5   3   4  -23.60   33.70
   6   3   4   -4.70   43.30
   6  -4  -4    5.90   27.20
   5  -4  -4   63.19   26.90
   5  -4  -4   35.90   26.40
   4  -4  -4   58.89   23.60
   4  -4  -4  102.59   33.00
   4  -4  -4   20.70   21.90
   3  -4  -4   72.49   29.30
   3  -4  -4   21.10   18.00
   3  -4  -4   71.39   22.20
   2  -4  -4  121.09   26.30
   2  -4  -4   62.49   16.00
   2  -4  -4   61.59   19.90
   1  -4  -4  186.58   25.50
   1  -4  -4  155.18   16.50
   0  -4  -4   56.19   17.00
   0   4   4   71.59   16.80
  -1  -4  -4   39.20   17.30
  -2  -4  -4   49.10   15.70
  -2  -4  -4   34.50   16.00
   2   4   4   60.19   23.10
   2   4   4   24.00   15.20
  -3  -4  -4   -7.70   14.80
   3   4   4   48.00   28.70
   3   4   4    0.80   15.30
   4   4   4   -8.30   16.60
   4   4   4   13.40   30.40
   5   4   4   63.29   41.60
   5   4   4   30.60   20.40
   6  -5  -4   -9.20   30.10
   5  -5  -4   11.00   26.60
   4  -5  -4  -18.00   27.50
   4  -5  -4  -13.00   21.30
   4  -5  -4   13.60   24.90
   3  -5  -4    5.70   26.20
   3  -5  -4   -1.40   17.10
   3  -5  -4    5.00   23.00
   2  -5  -4   27.80   20.20
   2  -5  -4   18.90   15.10
   1  -5  -4   16.60   12.20
  -1   5   4    7.60   16.10
   0  -5  -4   54.29   17.90
   0   5   4   55.69   17.90
  -1  -5  -4    5.50   16.40
   1   5   4   -0.70   28.80
  -2  -5  -4   47.10   19.40
   2   5   4    8.20   28.30
  -3  -5  -4   18.00   19.80
   3   5   4   58.29   31.80
   3   5   4   46.10   19.40
   4   5   4  -11.30   19.10
   4   5   4    6.80   36.70
   5   5   4  -44.70   40.80
   5   5   4   31.50   23.50
   5  -6  -4  -10.90   27.00
   4  -6  -4   48.60   29.80
   4  -6  -4    4.10   23.60
   3  -6  -4    3.50   20.80
   3  -6  -4   51.79   26.80
   2  -6  -4   53.39   19.50
   2  -6  -4   52.09   25.90
   0  -6  -4   23.10   18.30
  -1  -6  -4  117.79   25.00
   1   6   4  112.99   40.10
  -2  -6  -4   -6.70   19.60
   2   6   4  -58.29   35.40
  -3  -6  -4   45.80   23.20
   3   6   4   18.60   20.80
   3   6   4   -0.10   31.80
   4   6   4   18.10   23.00
   4   6   4   26.70   38.20
   5   6   4   -6.70   43.20
   5  -7  -4    7.40   31.80
   4  -7  -4   41.30   32.30
   3  -7  -4  -29.20   28.30
   2  -7  -4   35.80   20.30
   2  -7  -4   41.30   27.50
   1   7   4 1051.49   92.79
  -2  -7  -4  221.68   34.90
   2   7   4  214.88   46.60
   3   7   4   12.90   23.00
   3   7   4  -20.80   37.50
   4   7   4  -19.90   43.20
   4   7   4  -26.30   24.80
   5  -8  -4  -33.20   36.50
   4  -8  -4   70.79   37.10
   3  -8  -4   17.90   31.30
   2  -8  -4 -100.59   30.80
   1   8   4  288.17   60.59
  -2  -8  -4  152.08   33.10
   2   8   4   66.39   56.79
   3   8   4   46.90   27.20
   3   8   4   50.09   41.40
   4   8   4  -32.50   43.60
   4   8   4  -38.40   27.10
   4  -9  -4   32.20   39.00
   3  -9  -4   -9.20   32.50
   2  -9  -4   34.70   33.80
   1   9   4   72.59   61.79
   2   9   4    7.20   47.80
   3   9   4   -4.10   29.00
   3   9   4   26.90   45.30
   3 -10  -4   -3.90   34.70
   2 -10  -4  -40.70   33.00
   1  10   4  160.88   79.59
   2  10   4   -0.10   55.69
   1  11   4  574.74  123.09
   1 -11   5  -31.80   40.20
   3  10  -5 -138.69   59.79
   3  10  -5   25.00   35.90
   2  10  -5  -25.30   60.79
   1 -10   5   -6.30   34.10
   2 -10   5   -1.30   32.10
   3 -10   5   -7.50   27.80
   3 -10   5   -4.60   35.90
   3   9  -5   42.00   32.80
   3   9  -5   28.70   50.39
   2   9  -5   -1.60   53.89
   1  -9   5  -15.50   30.80
   2  -9   5  -45.70   26.40
   3  -9   5   59.49   30.50
   3  -9   5   33.80   32.90
   4  -9   5  -49.90   33.30
   4  -9   5    2.50   29.40
   4   8  -5   48.50   33.10
   4   8  -5   54.89   43.00
   3   8  -5   12.90   26.50
   3   8  -5   21.60   39.90
   2   8  -5   76.99   53.59
   1  -8   5   85.59   31.30
   2  -8   5   -1.80   29.00
   3  -8   5   42.50   26.90
   3  -8   5   91.19   33.00
   4  -8   5   14.60   30.00
   4  -8   5   30.00   30.90
   5  -8   5   33.00   35.50
   5   7  -5   22.40   33.10
   5   7  -5   39.20   45.80
   4   7  -5  -25.00   27.50
   4   7  -5   47.10   39.10
   3   7  -5    6.60   26.40
   3   7  -5  -18.70   37.80
   2   7  -5   47.80   33.70
   2   7  -5  166.18   54.49
   1  -7   5   80.29   29.50
   2  -7   5   85.59   29.20
   3  -7   5    8.20   27.40
   3  -7   5   36.20   23.80
   4  -7   5   16.60   26.50
   4  -7   5  -25.20   27.40
   5  -7   5   30.00   32.10
   5  -7   5   25.50   32.40
   5   6  -5   19.80   40.40
   5   6  -5   14.90   29.20
   4   6  -5   -2.20   32.40
   4   6  -5   24.00   29.00
   3   6  -5   70.39   37.70
   3   6  -5  109.39   27.00
   2   6  -5   79.99   37.90
   2   6  -5   80.89   25.40
   2   6  -5  126.79   27.30
   0   6  -5   59.89   24.40
   1  -6   5   12.70   21.80
   1  -6   5   -1.20   21.60
   2  -6   5   33.70   23.20
   3  -6   5   53.59   26.00
   3  -6   5   44.80   23.20
   4  -6   5  -11.70   26.30
   4  -6   5   -1.50   23.20
   5  -6   5   12.00   29.00
   5  -6   5   86.89   32.00
   5   5  -5   35.40   38.30
   5   5  -5   43.80   30.60
   4   5  -5   84.19   39.80
   4   5  -5  101.69   29.20
   3   5  -5  -15.30   18.90
   2   5  -5   74.49   31.50
   2   5  -5   33.40   19.10
   2   5  -5   35.30   20.00
   0   5  -5  199.58   28.00
  -1   5  -5  173.98   25.20
   1  -5   5  197.38   27.10
   2  -5   5  117.19   24.50
   3  -5   5  278.37   34.20
   3  -5   5  257.77   32.50
   4  -5   5   37.80   24.20
   4  -5   5   36.50   26.50
   5  -5   5   35.80   29.20
   5  -5   5   56.09   29.00
   6  -5   5  -44.50   24.90
   6  -5   5  -13.20   31.90
   6   4  -5   31.80   32.80
   6   4  -5   72.59   44.90
   5   4  -5    8.10   34.80
   5   4  -5  -25.80   23.50
   4   4  -5   50.89   24.80
   4   4  -5   36.20   31.40
   3   4  -5   52.89   19.80
   3   4  -5    6.20   18.20
   3   4  -5   14.90   24.50
   2   4  -5   -3.30   16.80
   2   4  -5   28.00   16.30
   2   4  -5   14.10   24.60
   1   4  -5  377.66   39.50
   0   4  -5  584.54   38.60
   0  -4   5  609.74   41.00
  -1   4  -5   57.29   18.20
   1  -4   5   21.60   17.70
   2  -4   5   29.50   19.70
   2  -4   5   80.39   19.10
   3  -4   5   -6.20   17.20
   3  -4   5   56.59   23.40
  -4   4  -5  407.16   36.80
   4  -4   5  376.96   40.90
   4  -4   5  341.57   39.90
  -5   4  -5   39.60   24.00
   5  -4   5   67.49   30.10
   5  -4   5   21.20   25.40
   6  -4   5   33.20   31.00
   6  -4   5   -6.60   26.80
   6   3  -5    3.00   37.00
   6   3  -5  -15.30   27.60
   5   3  -5   75.89   36.40
   5   3  -5   78.79   27.90
   4   3  -5   57.39   27.60
   4   3  -5   12.50   28.00
   4   3  -5   -4.10   19.50
   3   3  -5   55.99   20.10
   3   3  -5   49.60   25.70
   3   3  -5   44.90   19.00
   2   3  -5   91.99   26.30
   2   3  -5   94.09   19.70
   2   3  -5   90.89   18.70
   1   3  -5  673.43   42.90
   0   3  -5   95.79   17.40
   0  -3   5  100.49   19.50
  -1   3  -5  620.24   37.20
   1  -3   5  653.43   38.90
   2  -3   5    5.60   14.70
   2  -3   5   34.40   16.90
  -3   3  -5   77.89   20.00
   3  -3   5   92.59   20.70
   3  -3   5   82.79   22.50
  -4   3  -5   29.70   18.80
   4  -3   5  -18.70   17.50
   4  -3   5   19.00   22.70
  -5   3  -5  219.38   33.50
   5  -3   5  159.58   33.40
   5  -3   5  199.68   35.80
   6  -3   5  -35.50   26.30
   6  -3   5   48.80   30.60
   6   2  -5   20.10   29.90
   6   2  -5   -6.40   36.80
   5   2  -5   28.30   25.10
   5   2  -5   40.20   34.20
   4   2  -5  179.98   37.40
   4   2  -5  189.48   30.50
   4   2  -5  206.38   34.20
   3   2  -5   24.70   19.90
   3   2  -5   81.89   20.20
   3   2  -5   54.89   24.40
   2   2  -5  320.67   27.40
   2   2  -5  381.66   37.10
   2   2  -5  286.77   29.70
   1   2  -5  316.47   23.30
   1   2  -5  283.77   26.30
   0   2  -5 5352.66  216.08
   0  -2   5 5465.85  216.18
   1  -2   5  435.26   30.10
  -2   2  -5  310.27   25.10
   2  -2   5  322.57   25.60
   2  -2   5  361.36   31.50
  -3   2  -5   76.49   16.80
   3  -2   5   17.30   19.00
   3  -2   5   69.29   18.50
  -4   2  -5   78.39   22.60
   4  -2   5   81.99   21.90
   4  -2   5   63.89   24.50
  -5   2  -5    9.30   22.50
   5  -2   5   -7.70   25.30
   5  -2   5   10.70   22.10
   6  -2   5   31.70   30.70
   6  -2   5   44.70   30.80
   6   1  -5  -23.20   25.80
   6   1  -5   24.40   36.50
   5   1  -5   21.00   23.40
   5   1  -5  152.68   37.20
   5   1  -5   98.29   28.60
   5   1  -5  -17.10   29.40
   4   1  -5  111.89   31.10
   4   1  -5  106.39   27.80
   4   1  -5   99.29   23.50
   4   1  -5  165.78   26.00
   4   1  -5  123.29   31.40
   3   1  -5  330.67   28.50
   3   1  -5  358.46   35.20
   3   1  -5  300.07   38.20
   3   1  -5  316.57   29.80
   3   1  -5  294.57   31.50
   2   1  -5  216.38   23.20
   2   1  -5  240.58   24.60
   2   1  -5  216.38   28.00
   1   1  -5   78.59   16.80
   1   1  -5   81.29   15.10
   1   1  -5   76.19   14.00
   0   1  -5  298.67   20.00
   0   1  -5  319.27   19.70
   0  -1   5  330.17   20.80
  -1   1  -5 7528.85  271.97
   1  -1   5 7303.27  312.27
  -2   1  -5   36.00   12.70
   2  -1   5   28.80   18.00
   2  -1   5   24.90   18.10
   2  -1   5   39.80   13.40
  -3   1  -5   18.10   13.00
  -3   1  -5   43.30   16.30
   3  -1   5   34.00   21.70
   3  -1   5   53.89   20.80
   3  -1   5   27.80   15.30
  -4   1  -5   31.00   19.00
   4  -1   5   30.40   25.40
   4  -1   5   14.50   18.30
   4  -1   5   36.00   23.40
  -5   1  -5   72.09   25.20
   5  -1   5  100.49   35.20
   5  -1   5  131.79   31.90
   5  -1   5   62.29   26.10
  -6   1  -5   12.50   23.20
   6  -1   5   46.80   28.80
   6  -1   5  -16.70   27.60
   6   0  -5   51.19   28.50
   6   0  -5   27.50   26.90
   6   0  -5   -7.70   30.60
   6   0  -5   55.49   33.90
   5   0  -5   48.20   27.00
   5   0  -5   28.60   29.30
   5   0  -5   26.20   22.40
   5   0  -5   31.10   23.90
   4   0  -5  122.19   26.40
   4   0  -5   88.89   23.50
   4   0  -5  201.78   33.50
   4   0  -5  134.09   31.90
   4   0  -5  153.28   25.40
   3   0  -5  238.28   32.70
   3   0  -5  288.77   26.40
   3   0  -5  268.17   32.20
   3   0  -5  246.18   27.20
   3   0  -5  219.28   26.70
   2   0  -5  715.23   39.70
   2   0  -5  696.03   39.20
   2   0  -5  670.53   36.50
   2   0  -5  717.53   44.80
   2   0  -5  625.44   49.80
   1   0  -5  398.76   24.00
   1   0  -5  331.27   26.90
   1   0  -5  365.76   28.90
   0   0  -5  247.38   18.50
   0   0  -5  219.48   16.20
   0   0  -5  225.18   14.50
   0   0  -5  257.27   15.70
   0   0  -5  242.38   14.80
   0   0   5  258.57   15.70
  -1   0  -5  430.56   26.50
  -1   0  -5  393.86   24.10
   1   0   5  439.76   23.70
   1   0   5  419.16   28.60
   1   0   5  400.26   32.20
  -2   0  -5  445.46   26.20
  -2   0  -5  449.26   29.70
   2   0   5  336.37   33.60
   2   0   5  413.76   39.40
   2   0   5  447.36   28.50
   2   0   5  458.25   26.00
  -3   0  -5  -19.90   13.90
   3   0   5   16.00   19.60
   3   0   5   21.60   22.00
   3   0   5   -4.50   11.50
   3   0   5   10.90   15.50
  -4   0  -5   92.19   21.10
   4   0   5  104.99   28.30
   4   0   5   53.29   30.40
   4   0   5  106.09   23.20
   4   0   5   95.89   20.30
  -5   0  -5   21.00   20.40
   5   0   5   25.50   22.20
   5   0   5  -10.10   25.60
   5   0   5   34.60   31.30
   5   0   5   -4.40   18.40
   6   0   5   10.80   25.80
   6   0   5   -7.30   35.80
   6   0   5  -37.10   29.20
   6  -1  -5  120.19   31.30
   6  -1  -5  123.89   40.40
   6  -1  -5  103.29   31.60
   5  -1  -5   56.69   25.20
   5  -1  -5  106.89   32.70
   5  -1  -5   91.79   25.70
   5  -1  -5   89.89   27.30
   4  -1  -5   13.80   18.20
   4  -1  -5   41.40   24.10
   4  -1  -5   15.40   25.40
   4  -1  -5    6.80   18.30
   4  -1  -5   24.20   19.80
   3  -1  -5 1273.37   72.19
   3  -1  -5 1477.85   69.19
   3  -1  -5 1413.26   80.29
   3  -1  -5 1324.17   69.29
   3  -1  -5 1483.55   94.19
   2  -1  -5   30.30   15.40
   2  -1  -5   50.59   14.10
   2  -1  -5   64.99   20.80
   2  -1  -5   54.09   18.80
   2  -1  -5   50.49   14.40
   1  -1  -5 4684.23  222.88
   1  -1  -5 4854.51  176.78
   1  -1  -5 4787.02  262.17
   1  -1  -5 4861.21  195.78
   1  -1  -5 4715.73  189.08
   1  -1  -5 4927.01  205.28
   0  -1  -5  133.09   13.60
   0  -1  -5  154.88   14.00
   0  -1  -5  147.89   14.00
   0  -1  -5  118.49   11.30
   0   1   5  150.68   13.10
  -1  -1  -5   36.70   10.90
  -1  -1  -5   34.80   10.80
   1   1   5   28.80   13.60
   1   1   5   32.30   14.50
   1   1   5   30.20    9.50
  -2  -1  -5  108.99   13.30
  -2  -1  -5   72.69   13.30
   2   1   5   72.49   11.30
   2   1   5   81.19   21.40
   2   1   5   69.59   15.00
   2   1   5   76.59   20.70
  -3  -1  -5  229.58   22.00
   3   1   5  194.18   21.00
   3   1   5  209.88   29.90
   3   1   5  214.08   35.80
   3   1   5  219.58   24.90
  -4  -1  -5   17.80   15.40
   4   1   5   32.50   28.60
   4   1   5   25.90   15.90
   4   1   5   54.59   27.50
   4   1   5   33.90   20.60
   5   1   5  -21.70   20.70
   5   1   5    7.30   27.80
   5   1   5   54.39   35.70
   5   1   5   28.30   20.90
   6   1   5   61.69   41.80
   6   1   5   22.70   33.50
   6   1   5  -13.10   26.10
   6  -2  -5    6.70   26.20
   6  -2  -5   54.39   32.60
   6  -2  -5   -8.40   23.60
   5  -2  -5   -7.50   26.10
   5  -2  -5   49.10   24.10
   5  -2  -5   62.39   24.20
   5  -2  -5  -11.10   22.00
   4  -2  -5   72.99   29.80
   4  -2  -5   56.29   26.20
   4  -2  -5   40.30   20.00
   4  -2  -5   45.50   21.30
   4  -2  -5   69.79   21.10
   3  -2  -5   37.10   20.40
   3  -2  -5   58.09   17.20
   3  -2  -5   23.70   16.90
   3  -2  -5   36.30   23.20
   3  -2  -5   46.10   17.70
   2  -2  -5 1658.83  100.69
   2  -2  -5 1680.23   75.39
   2  -2  -5 1722.43   88.19
   2  -2  -5 1611.84   76.39
   2  -2  -5 1609.14   80.09
   1  -2  -5 1562.64   71.19
   1  -2  -5 1553.34   80.79
   1  -2  -5 1564.84   63.69
   1  -2  -5 1538.95   68.19
   1  -2  -5 1608.74   67.79
   1  -2  -5 1579.44   72.89
   0  -2  -5   90.29   13.80
   0  -2  -5   92.49   14.20
   0   2   5  105.09   14.20
  -1  -2  -5  259.17   21.10
  -1  -2  -5  254.67   22.10
   1   2   5  299.57   27.60
  -2  -2  -5   28.20   12.00
  -2  -2  -5   10.80   11.20
   2   2   5    8.00   11.80
   2   2   5    9.30    9.40
   2   2   5    4.20   18.90
  -3  -2  -5  -17.90   11.40
   3   2   5    3.70   15.70
   3   2   5   16.20   21.70
   3   2   5   21.20   12.50
  -4  -2  -5   43.20   17.30
   4   2   5   47.30   17.30
   4   2   5   44.70   30.90
   4   2   5   61.49   23.00
   5   2   5    3.90   18.10
   5   2   5  -38.50   32.50
   5   2   5   22.00   26.00
   6   2   5   15.30   35.50
   6   2   5   14.90   40.20
   6  -3  -5    8.90   25.40
   5  -3  -5   50.99   24.80
   5  -3  -5  111.39   29.20
   5  -3  -5   55.99   26.50
   4  -3  -5   -0.80   18.40
   4  -3  -5  -17.00   19.30
   4  -3  -5  -11.10   27.10
   4  -3  -5   32.10   19.80
   3  -3  -5   52.49   18.50
   3  -3  -5   90.39   26.60
   3  -3  -5   25.20   18.20
   3  -3  -5   79.29   20.50
   2  -3  -5  212.38   22.10
   2  -3  -5  217.88   29.80
   2  -3  -5  249.58   24.90
   1  -3  -5  738.93   36.70
   1  -3  -5  777.22   41.10
   1  -3  -5  742.53   47.00
   0  -3  -5   45.20   14.60
   0  -3  -5   61.29   14.70
   0   3   5   78.79   14.20
  -1  -3  -5  240.28   22.00
  -1  -3  -5  243.58   22.90
   1   3   5  265.37   28.30
  -2  -3  -5  154.18   18.50
  -2  -3  -5  163.88   19.00
   2   3   5  133.39   28.50
   2   3   5  161.38   18.00
  -3  -3  -5   30.70   14.90
   3   3   5   14.70   20.60
   3   3   5   52.69   14.90
   3   3   5   36.10   28.20
   4   3   5  -35.00   23.00
   4   3   5   -5.90   14.30
   4   3   5    9.40   29.30
   5   3   5  -29.60   30.00
   5   3   5  -25.20   18.40
   5   3   5  -16.60   35.30
   6   3   5  -14.60   44.30
   6  -4  -5   -2.70   27.30
   5  -4  -5   -2.50   25.60
   5  -4  -5   68.39   25.30
   4  -4  -5   94.09   26.30
   4  -4  -5   81.49   25.60
   4  -4  -5   38.50   32.70
   3  -4  -5   42.60   19.20
   3  -4  -5   47.60   27.60
   3  -4  -5   59.59   21.00
   2  -4  -5  130.89   22.90
   2  -4  -5  133.49   18.70
   2  -4  -5  116.39   27.60
   1  -4  -5    2.90   10.30
   1  -4  -5   -1.00   15.10
   1  -4  -5   29.70   18.40
  -1   4   5   21.70   12.60
   0  -4  -5 1736.03   77.99
   0   4   5 1694.13   77.39
  -1  -4  -5   55.39   15.70
  -1  -4  -5   69.79   17.40
   1   4   5   15.90   21.80
  -2  -4  -5   -1.00   14.00
  -2  -4  -5  -17.20   13.80
   2   4   5    4.40   21.60
   2   4   5   -6.70   12.90
  -3  -4  -5   40.60   17.70
   3   4   5   33.80   29.70
   3   4   5   30.20   16.90
  -4  -4  -5   81.09   21.70
   4   4   5   63.69   35.10
   4   4   5   64.99   19.80
   5   4   5   36.80   22.00
   5   4   5    3.00   39.10
   6  -5  -5   15.30   30.00
   5  -5  -5   81.79   29.90
   4  -5  -5   19.50   29.90
   4  -5  -5   31.40   26.60
   3  -5  -5  -14.90   21.70
   3  -5  -5   -6.60   17.80
   3  -5  -5    9.40   25.40
   2  -5  -5   85.09   26.60
   2  -5  -5   86.29   23.30
   2  -5  -5   62.39   17.50
   1  -5  -5   55.79   13.20
  -1   5   5   30.10   16.30
   0  -5  -5   17.90   16.70
   0   5   5   17.80   17.00
  -1  -5  -5  196.08   25.40
   1   5   5  185.88   35.20
  -2  -5  -5    2.60   17.40
   2   5   5   39.50   25.70
  -3  -5  -5    2.10   18.80
   3   5   5   39.20   31.20
   3   5   5   -4.90   17.40
   4   5   5   -1.20   16.70
   4   5   5  -28.00   33.50
   5   5   5  -16.10   42.90
   5  -6  -5    2.20   28.30
   4  -6  -5  201.08   35.90
   4  -6  -5  193.38   36.50
   3  -6  -5   10.70   20.90
   3  -6  -5   28.30   24.80
   2  -6  -5   63.69   26.10
   2  -6  -5   63.59   19.30
   1  -6  -5   79.39   16.60
   0  -6  -5  158.28   25.60
  -1  -6  -5   23.00   19.90
   1   6   5   65.29   37.00
  -2  -6  -5   24.00   21.60
   2   6   5  -70.29   33.00
  -3  -6  -5   41.80   24.80
   3   6   5   58.19   21.00
   3   6   5   11.00   36.20
  -4  -6  -5   49.00   25.50
   4   6   5   23.70   42.00
   4   6   5   18.70   21.10
   5   6   5   33.40   48.60
   5  -7  -5   43.40   34.00
   4  -7  -5   50.39   33.90
   3  -7  -5  155.68   38.20
   2  -7  -5   61.69   21.80
   2  -7  -5   47.00   29.70
   1  -7  -5  -10.20   14.90
  -1  -7  -5  125.49   28.50
   1   7   5  144.49   48.50
  -2  -7  -5   21.10   23.50
   2   7   5   80.69   39.20
  -3  -7  -5   34.00   26.50
   3   7   5  -35.60   35.20
   3   7   5   78.79   25.80
   4   7   5   -6.60   44.80
   4   7   5   24.50   25.40
   5  -8  -5   31.90   40.70
   4  -8  -5   -1.30   33.90
   3  -8  -5   12.80   31.50
   2  -8  -5   17.90   33.30
   1  -8  -5  -13.60   15.20
  -1  -8  -5  187.28   35.20
  -2  -8  -5   42.20   29.10
   2   8   5   22.30   49.99
   3   8   5    7.30   40.50
   3   8   5   28.10   25.50
   4   8   5  -32.20   45.20
   4   8   5   22.90   30.10
   4  -9  -5   -9.10   37.00
   3  -9  -5   41.10   33.80
   2  -9  -5   71.89   36.10
   1   9   5   23.40   61.79
   2   9   5   25.60   49.00
   3   9   5   13.50   29.00
   3   9   5   90.29   48.00
   3 -10  -5   34.80   39.20
   2 -10  -5   -5.10   36.00
   1  10   5   49.30   77.29
   2  10   5   15.70   54.89
   1  11   5  176.88  103.79
   1 -11   6  -26.40   39.20
   3  10  -6 -160.48   62.09
   3  10  -6   34.50   36.70
   2  10  -6   30.60   62.69
   1 -10   6  -13.00   36.30
   2 -10   6  -22.00   31.00
   3 -10   6  -32.00   28.40
   3 -10   6  -36.90   34.70
   3   9  -6  -21.50   27.10
   3   9  -6  -76.09   43.90
   2   9  -6  -23.70   51.09
   1  -9   6   10.20   29.40
   2  -9   6    3.90   30.70
   3  -9   6  -21.40   25.70
   3  -9   6   17.20   31.50
   4  -9   6   -5.60   37.10
   4  -9   6   25.10   32.60
   4   8  -6   86.79   43.80
   4   8  -6  123.59   39.50
   3   8  -6   15.60   26.80
   3   8  -6  -37.60   39.10
   2   8  -6   94.89   55.99
   1  -8   6   42.70   30.10
   2  -8   6    3.70   27.20
   3  -8   6  -15.50   29.90
   3  -8   6   40.80   27.60
   4  -8   6  -28.60   31.60
   4  -8   6   18.10   29.00
   5   7  -6   -2.90   31.40
   5   7  -6   27.20   44.30
   4   7  -6   33.70   31.20
   4   7  -6   -1.10   34.80
   3   7  -6   37.70   44.70
   3   7  -6  123.09   31.30
   2   7  -6  132.99   55.09
   2   7  -6   61.79   33.50
   1  -7   6  -45.20   23.40
   2  -7   6  173.88   32.80
   3  -7   6   -2.10   25.10
   3  -7   6   29.40   28.80
   4  -7   6   -7.10   24.90
   4  -7   6  -12.50   30.40
   5  -7   6   18.50   31.40
   5  -7   6  -18.60   28.30
   5   6  -6   80.79   33.00
   5   6  -6   33.80   43.00
   4   6  -6  -21.40   32.20
   4   6  -6  -47.90   23.70
   3   6  -6  149.09   28.90
   3   6  -6   88.09   38.30
   2   6  -6  107.89   40.00
   2   6  -6   72.79   26.60
   2   6  -6   64.89   23.30
   0   6  -6   41.10   22.90
   1  -6   6  -29.50   19.90
   2  -6   6  -10.00   22.60
   3  -6   6   58.19   28.00
   3  -6   6   81.59   25.50
   4  -6   6   53.99   32.30
   4  -6   6   49.00   27.00
   5  -6   6   18.00   27.80
   5  -6   6   -8.40   29.70
   5   5  -6  -67.79   23.90
   5   5  -6   14.60   37.50
   4   5  -6   69.39   37.70
   4   5  -6  105.89   29.80
   3   5  -6  -76.89   27.50
   3   5  -6   -2.10   21.30
   3   5  -6   25.20   20.50
   2   5  -6   54.69   20.40
   2   5  -6   48.30   31.50
   2   5  -6   51.09   20.80
   1   5  -6  156.48   26.20
   0   5  -6   80.49   21.90
  -1   5  -6  355.06   32.60
   1  -5   6  341.97   33.70
   2  -5   6   40.40   22.20
   3  -5   6   61.79   25.00
   3  -5   6   95.89   24.90
  -4   5  -6   32.70   25.50
   4  -5   6   40.50   27.10
   4  -5   6   32.60   21.50
   5  -5   6   84.29   30.20
   5  -5   6   83.79   30.50
   6  -5   6   -8.10   31.50
   6   4  -6  -14.10   29.70
   6   4  -6  -72.59   34.90
   5   4  -6  -16.00   32.50
   5   4  -6    2.90   27.20
   4   4  -6   77.89   35.80
   4   4  -6   55.49   25.00
   4   4  -6   83.39   27.60
   3   4  -6    6.30   18.90
   3   4  -6   30.90   19.00
   3   4  -6    8.50   24.50
   2   4  -6   31.80   17.70
   2   4  -6   26.70   17.40
   2   4  -6   51.69   26.80
   1   4  -6  146.49   24.60
  -1  -4   6  115.19   22.30
   0   4  -6  607.74   38.70
   1  -4   6   61.99   19.00
  -2   4  -6   65.89   18.50
   2  -4   6   64.79   21.50
   3  -4   6   15.90   21.50
   3  -4   6   30.50   18.40
  -4   4  -6  121.69   26.10
   4  -4   6  118.39   27.30
  -5   4  -6   32.90   23.30
   5  -4   6   21.20   28.60
   5  -4   6   40.20   27.10
   6  -4   6   22.20   30.30
   6  -4   6    0.50   30.70
   6   3  -6   -6.70   29.40
   6   3  -6   16.10   39.80
   5   3  -6   56.89   36.70
   5   3  -6   38.50   26.30
   4   3  -6    0.10   20.50
   4   3  -6  -12.40   23.30
   4   3  -6   47.00   30.30
   3   3  -6    1.70   17.00
   3   3  -6  -15.50   21.90
   3   3  -6   10.90   18.00
   2   3  -6  116.19   20.30
   2   3  -6  140.69   29.10
   2   3  -6   94.39   20.90
   1   3  -6   43.00   17.50
   0   3  -6  144.59   19.60
   0  -3   6  130.29   20.00
   1  -3   6  694.03   41.40
   2  -3   6   55.09   16.90
   2  -3   6   21.50   17.60
  -3   3  -6   96.19   21.20
   3  -3   6  107.49   24.30
   3  -3   6  123.99   22.30
  -4   3  -6  -12.20   18.10
   4  -3   6   -0.40   22.10
   4  -3   6   21.70   19.90
  -5   3  -6  287.27   37.60
   5  -3   6  178.68   34.90
   5  -3   6  169.88   35.60
   6  -3   6   32.60   29.10
   6  -3   6  -13.90   28.10
   6   2  -6   -5.40   28.50
   6   2  -6   12.80   35.90
   5   2  -6  -30.70   22.20
   5   2  -6    3.60   29.20
   4   2  -6   85.39   29.90
   4   2  -6   78.79   23.90
   4   2  -6   53.29   28.80
   3   2  -6   68.39   19.00
   3   2  -6   84.19   26.60
   3   2  -6   43.90   20.60
   2   2  -6  112.69   28.60
   2   2  -6   85.69   23.70
   2   2  -6  216.98   23.80
   1   2  -6  131.39   17.20
   1   2  -6  132.99   19.00
   0   2  -6   65.89   13.80
   0  -2   6   43.60   14.30
   0  -2   6   49.60   15.10
  -1   2  -6  285.37   21.80
   1  -2   6  259.77   24.70
  -2   2  -6  558.14   32.90
   2  -2   6  573.74   40.40
   2  -2   6  557.64   34.60
  -3   2  -6  102.69   18.70
   3  -2   6   78.49   19.20
   3  -2   6   99.99   23.50
  -4   2  -6  129.39   20.90
  -4   2  -6  122.89   26.70
   4  -2   6  199.08   32.00
   4  -2   6  120.69   24.80
  -5   2  -6    6.40   21.90
   5  -2   6    9.40   25.20
   5  -2   6   21.20   23.80
   6  -2   6   21.90   29.40
   6  -2   6   57.19   30.30
   6   1  -6   34.30   37.20
   6   1  -6   -2.60   29.90
   5   1  -6   31.70   23.90
   5   1  -6   75.69   26.00
   5   1  -6  -15.30   27.00
   4   1  -6   52.79   20.60
   4   1  -6   47.90   27.30
   4   1  -6   63.29   25.70
   4   1  -6   58.39   20.80
   4   1  -6   80.79   29.70
   3   1  -6  267.97   31.60
   3   1  -6  252.97   29.10
   3   1  -6  242.38   24.60
   3   1  -6  215.78   33.50
   2   1  -6  391.86   33.20
   2   1  -6  412.36   29.80
   2   1  -6  426.46   38.70
   1   1  -6   -8.00   13.80
   1   1  -6    5.70   11.50
   1   1  -6   23.80   13.60
   0   1  -6  494.25   27.20
   0   1  -6  538.85   28.30
   0   1  -6  523.65   27.40
   0   1  -6  493.05   33.10
   0  -1   6  528.15   28.10
  -1   1  -6  340.97   24.10
   1  -1   6  333.67   26.80
  -2   1  -6   30.50   15.30
  -2   1  -6   41.10   13.30
   2  -1   6   43.40   13.70
   2  -1   6   35.10   19.10
  -3   1  -6   23.60   16.20
  -3   1  -6   32.70   13.50
   3  -1   6   69.69   24.80
   3  -1   6   13.20   14.70
   3  -1   6  -15.50   20.00
  -4   1  -6   22.40   20.00
   4  -1   6   72.09   22.30
   4  -1   6   52.79   27.40
   4  -1   6   41.30   24.30
  -5   1  -6   64.39   25.60
   5  -1   6  120.39   28.40
   5  -1   6   54.29   28.40
   5  -1   6   92.29   35.40
  -6   1  -6  -34.50   22.50
   6  -1   6  -59.09   24.30
   6  -1   6  -44.80   23.00
   6   0  -6    0.90   26.30
   6   0  -6   17.90   25.60
   6   0  -6   18.70   34.20
   6   0  -6   15.90   31.90
   5   0  -6  -22.50   25.50
   5   0  -6   27.60   25.80
   5   0  -6   16.40   28.60
   5   0  -6   18.70   22.00
   4   0  -6   23.90   28.00
   4   0  -6    7.90   19.20
   4   0  -6   42.40   19.20
   4   0  -6  -12.20   22.10
   4   0  -6   26.40   21.70
   3   0  -6  317.77   38.00
   3   0  -6  338.67   27.70
   3   0  -6  360.16   32.90
   3   0  -6  328.97   30.80
   3   0  -6  434.86   40.70
   2   0  -6  343.77   28.30
   2   0  -6  372.06   35.00
   2   0  -6  344.57   23.70
   2   0  -6  329.97   27.00
   2   0  -6  395.16   33.30
   1   0  -6  301.77   25.70
   1   0  -6  314.17   22.30
   1   0  -6  271.87   26.40
   0   0  -6  143.99   13.20
   0   0  -6  188.88   16.70
   0   0  -6  152.98   14.00
   0   0  -6  165.68   14.70
   0   0  -6  162.68   14.00
   0   0   6  162.48   13.50
  -1   0  -6  213.58   18.90
  -1   0  -6  229.18   18.40
   1   0   6  175.58   21.10
   1   0   6  208.58   16.50
   1   0   6  223.88   21.00
  -2   0  -6  457.15   31.90
  -2   0  -6  475.65   28.40
   2   0   6  510.35   30.50
   2   0   6  451.85   36.30
   2   0   6  491.65   43.60
  -3   0  -6    8.90   14.50
  -3   0  -6   26.50   13.10
   3   0   6   -7.10   11.60
   3   0   6   16.10   19.60
   3   0   6   -9.10   14.60
   3   0   6   44.20   24.20
  -4   0  -6  156.98   24.70
   4   0   6  161.68   31.70
   4   0   6  122.39   24.10
   4   0   6  142.49   23.80
   4   0   6  173.98   37.60
  -5   0  -6    1.40   19.90
   5   0   6    0.50   21.50
   5   0   6   -9.30   18.10
   5   0   6    9.10   30.60
   5   0   6  -36.10   24.80
  -6   0  -6  -10.70   21.30
   6   0   6   40.70   39.30
   6   0   6   -8.50   30.00
   6   0   6   19.80   27.90
   6  -1  -6  103.39   36.00
   6  -1  -6   96.89   36.50
   6  -1  -6   91.69   31.50
   6  -1  -6   91.39   29.50
   5  -1  -6   -5.40   26.00
   5  -1  -6   19.80   22.00
   5  -1  -6   -6.60   21.50
   5  -1  -6   31.60   22.80
   4  -1  -6   59.89   22.40
   4  -1  -6   56.59   21.30
   4  -1  -6   30.10   25.30
   4  -1  -6   50.29   27.20
   4  -1  -6   49.00   19.90
   3  -1  -6   48.00   18.40
   3  -1  -6   61.29   23.30
   3  -1  -6   47.00   17.40
   3  -1  -6   85.39   23.10
   2  -1  -6   18.40   18.10
   2  -1  -6   53.79   17.40
   2  -1  -6   18.60   13.60
   2  -1  -6   28.20   12.50
   2  -1  -6   25.10   14.20
   1  -1  -6 1834.32   75.39
   1  -1  -6 1826.82   77.59
   1  -1  -6 1858.61  102.99
   1  -1  -6 1762.92   70.79
   1  -1  -6 1753.12   90.19
   1  -1  -6 1816.62   82.49
   0  -1  -6   73.89   12.00
   0  -1  -6   86.19   12.80
   0  -1  -6   83.79    9.80
   0  -1  -6   59.69   12.30
   0   1   6   65.39   11.90
  -1  -1  -6  319.37   20.80
  -1  -1  -6  300.77   22.40
   1   1   6  289.87   19.20
   1   1   6  334.27   28.20
   1   1   6  289.57   25.60
  -2  -1  -6  173.08   17.00
  -2  -1  -6  170.28   18.50
   2   1   6  224.88   29.60
   2   1   6  173.28   24.60
   2   1   6  139.69   13.90
   2   1   6  152.18   18.70
  -3  -1  -6  251.67   23.50
   3   1   6  250.57   22.10
   3   1   6  223.78   25.70
   3   1   6  227.18   31.30
   3   1   6  265.47   38.60
  -4  -1  -6   21.20   17.00
   4   1   6   35.00   15.40
   4   1   6   -4.00   28.40
   4   1   6   16.30   24.50
   4   1   6    0.80   18.20
  -5  -1  -6   24.60   18.70
   5   1   6   13.10   17.60
   5   1   6  -12.60   26.20
   5   1   6   26.10   34.40
   5   1   6   19.50   23.60
   6   1   6   25.40   28.70
   6   1   6   69.29   42.40
   6   1   6  -23.30   33.70
   6  -2  -6    3.80   27.10
   6  -2  -6    6.40   27.00
   6  -2  -6   -9.30   23.10
   6  -2  -6   22.30   33.60
   5  -2  -6   26.10   27.80
   5  -2  -6    9.30   20.90
   5  -2  -6   44.80   25.80
   5  -2  -6   14.10   21.00
   4  -2  -6   36.10   28.70
   4  -2  -6   15.50   20.50
   4  -2  -6   24.30   20.20
   4  -2  -6   29.60   24.10
   4  -2  -6   38.10   20.40
   3  -2  -6  106.99   20.80
   3  -2  -6  135.69   20.80
   3  -2  -6  102.19   21.70
   3  -2  -6   97.49   25.10
   3  -2  -6  136.59   27.80
   2  -2  -6  343.57   34.20
   2  -2  -6  330.17   33.40
   2  -2  -6  410.96   26.50
   2  -2  -6  307.27   27.40
   2  -2  -6  313.27   25.90
   1  -2  -6  629.24   35.20
   1  -2  -6  645.74   32.90
   1  -2  -6  646.44   31.60
   1  -2  -6  634.44   34.80
   1  -2  -6  632.44   41.50
   0  -2  -6  264.97   21.20
   0  -2  -6  257.97   20.20
   0   2   6  258.87   21.60
  -1  -2  -6  208.08   18.80
  -1  -2  -6  180.28   17.90
   1   2   6  188.58   22.50
  -2  -2  -6   47.20   13.30
  -2  -2  -6   31.00   12.80
   2   2   6   35.40   20.00
   2   2   6   23.40   12.30
   2   2   6   25.40    9.40
  -3  -2  -6   32.00   14.60
   3   2   6   29.80   12.30
   3   2   6    3.60   23.50
   3   2   6   45.40   17.00
  -4  -2  -6   75.99   19.00
   4   2   6   72.49   23.00
   4   2   6   80.09   19.20
   4   2   6  116.39   37.10
   5   2   6    4.40   25.30
   5   2   6   -4.60   35.60
   5   2   6    2.40   17.80
   6   2   6  -11.10   34.10
   6   2   6   30.80   47.70
   6  -3  -6   44.20   27.50
   5  -3  -6   32.60   24.50
   5  -3  -6    8.30   22.80
   5  -3  -6    5.80   22.70
   4  -3  -6  -11.20   18.60
   4  -3  -6   -6.30   17.00
   4  -3  -6   23.40   27.50
   4  -3  -6   41.10   22.30
   3  -3  -6   58.59   25.90
   3  -3  -6   74.49   19.90
   3  -3  -6   44.40   19.20
   3  -3  -6   53.99   18.60
   2  -3  -6   20.40   20.70
   2  -3  -6   52.89   14.70
   2  -3  -6   57.69   16.20
   1  -3  -6   96.89   12.40
   1  -3  -6  114.39   20.70
   1  -3  -6   87.89   17.10
   0  -3  -6   32.90   13.90
   0  -3  -6   19.40   13.90
   0   3   6   42.70   14.00
  -1  -3  -6  184.78   19.80
  -1  -3  -6  195.28   20.30
   1   3   6  164.98   23.70
  -2  -3  -6   29.90   14.10
  -2  -3  -6   37.90   13.90
   2   3   6    2.10   10.00
   2   3   6   43.30   21.70
  -3  -3  -6   23.90   15.10
   3   3   6   41.10   26.30
   3   3   6   44.00   13.40
   3   3   6   -4.30   18.40
  -4  -3  -6  -13.20   15.70
   4   3   6   24.50   15.00
   4   3   6   -6.80   23.40
   4   3   6   36.20   30.80
   5   3   6  157.98   49.60
   5   3   6   45.60   33.00
   5   3   6   72.49   22.40
   6   3   6   -0.20   48.80
   6  -4  -6   35.80   26.30
   5  -4  -6    9.40   22.80
   5  -4  -6   33.50   26.10
   4  -4  -6  118.59   27.40
   4  -4  -6   83.79   25.60
   4  -4  -6   82.39   35.10
   3  -4  -6   -7.50   24.50
   3  -4  -6   -7.80   17.90
   3  -4  -6   26.80   17.80
   2  -4  -6  290.27   35.50
   2  -4  -6  254.57   24.40
   2  -4  -6  247.88   27.60
   1  -4  -6  196.08   23.70
   1  -4  -6  232.88   28.00
   1  -4  -6  197.98   17.30
  -1   4   6  184.48   20.30
   0  -4  -6 1527.65   67.29
   0  -4  -6 1571.94   72.39
   0   4   6 1487.95   69.69
  -1  -4  -6  155.18   21.50
  -1  -4  -6  160.38   20.80
   1   4   6  170.38   29.20
  -2  -4  -6   27.40   15.50
  -2  -4  -6   17.50   15.80
   2   4   6   27.30   22.00
   2   4   6   28.80   14.40
  -3  -4  -6  146.19   22.80
  -3  -4  -6  140.99   22.70
   3   4   6  144.09   21.80
   3   4   6   93.99   33.90
  -4  -4  -6   68.49   22.70
   4   4   6   62.39   20.00
   4   4   6   75.09   38.30
   5   4   6   35.80   43.90
   6  -5  -6  -22.90   27.30
   5  -5  -6   25.00   25.40
   4  -5  -6   36.40   24.30
   4  -5  -6   54.59   27.00
   3  -5  -6   28.70   19.80
   3  -5  -6   13.80   22.60
   3  -5  -6   -6.60   25.60
   2  -5  -6   36.10   21.80
   2  -5  -6   27.50   16.00
   2  -5  -6   12.90   24.00
   1  -5  -6   50.59   12.80
   1  -5  -6   58.09   18.30
  -1   5   6   42.30   16.80
   0  -5  -6   64.29   19.10
   0   5   6   75.79   19.10
  -1  -5  -6  648.74   43.30
   1   5   6  610.04   52.89
  -2  -5  -6   20.90   19.20
  -2  -5  -6   29.60   18.30
   2   5   6   29.10   24.20
  -3  -5  -6  -12.70   18.30
  -3  -5  -6   -5.80   18.10
   3   5   6  -10.60   31.60
   3   5   6    3.20   17.90
  -4  -5  -6  -15.80   20.50
   4   5   6   19.20   18.00
   4   5   6   -5.40   36.30
   5   5   6   16.30   46.80
   5  -6  -6   52.39   31.20
   4  -6  -6  127.09   33.60
   3  -6  -6   46.00   22.60
   3  -6  -6   22.80   26.50
   2  -6  -6   23.20   16.50
   2  -6  -6    7.40   24.50
   1  -6  -6   20.80   13.60
   0  -6  -6  170.88   26.80
  -1  -6  -6   -7.30   18.60
   1   6   6   -6.70   33.00
  -2  -6  -6  243.38   32.70
   2   6   6  190.08   39.30
  -3  -6  -6   43.80   23.10
   3   6   6  -85.39   35.80
   3   6   6   13.60   19.40
  -4  -6  -6   14.10   24.70
   4   6   6  -49.80   35.30
   4   6   6    4.80   18.90
   5   6   6   -8.80   47.00
   5  -7  -6  -16.80   29.00
   4  -7  -6   -3.80   29.80
   3  -7  -6  230.88   40.10
   2  -7  -6  127.89   33.50
   1  -7  -6  -24.20   14.00
   0  -7  -6    5.80   21.40
  -1  -7  -6  170.98   30.20
   1   7   6   47.60   43.80
  -2  -7  -6  102.89   26.80
   2   7   6  -11.40   34.50
  -3  -7  -6   83.19   28.10
   3   7   6   83.49   26.30
   3   7   6   70.89   41.60
   4   7   6   19.70   25.00
   4   7   6  -34.50   42.90
   4  -8  -6   -9.60   35.80
   3  -8  -6  -21.40   29.10
   2  -8  -6  172.98   39.90
   2   8   6   45.10   46.50
   3   8   6   51.79   42.90
   3   8   6  -29.60   23.30
   4  -9  -6  -27.80   36.80
   3  -9  -6   27.90   35.80
   2  -9  -6  -12.80   32.90
   1   9   6  -62.39   54.79
   2   9   6   -7.80   47.10
   3   9   6   60.09   48.90
   3   9   6   15.40   27.40
   3 -10  -6   -8.10   37.90
   2 -10  -6   28.00   37.70
   1  10   6  -58.69   62.89
   2  10   6  -49.40   53.29
   1  11   6  141.79   98.69
   1 -11   7  -44.20   36.10
   2  10  -7   -6.80   62.79
   2 -10   7  -25.10   30.80
   3 -10   7  -45.90   27.60
   3 -10   7  -18.10   36.30
   3   9  -7   29.40   30.20
   3   9  -7  -11.90   46.10
   2   9  -7   50.19   56.39
   1  -9   7   -3.40   29.30
   2  -9   7  -17.60   28.70
   3  -9   7  -28.10   31.60
   3  -9   7   32.40   30.00
   4  -9   7  -15.20   34.70
   4  -9   7   -2.10   30.00
   4   8  -7   69.99   36.90
   4   8  -7   29.50   41.50
   3   8  -7    8.40   27.40
   3   8  -7   14.90   43.90
   2   8  -7  174.18   61.69
   1  -8   7   65.69   32.60
   2  -8   7   -8.80   27.90
   3  -8   7   13.10   25.90
   3  -8   7  -14.90   29.60
   4  -8   7  -12.60   28.10
   4  -8   7   -6.30   31.70
   5   7  -7   14.60   43.10
   5   7  -7  -61.29   30.50
   4   7  -7   -4.40   37.70
   4   7  -7  -15.80   28.50
   3   7  -7  -17.90   22.80
   3   7  -7   -1.60   44.10
   3   7  -7  -75.39   26.20
   2   7  -7  152.18   55.39
   2   7  -7   45.60   29.00
   2   7  -7  -14.10   21.90
   1  -7   7   27.90   24.70
   2  -7   7  238.58   36.30
   3  -7   7   15.00   26.80
   3  -7   7   79.29   30.20
   4  -7   7    4.60   31.70
   4  -7   7  -28.00   24.00
   5  -7   7   18.20   33.30
   5  -7   7   28.20   32.40
   5   6  -7   20.40   39.30
   5   6  -7   -4.00   28.20
   4   6  -7  -20.60   31.50
   4   6  -7  -23.70   24.70
   3   6  -7  126.49   39.80
   3   6  -7  164.78   29.50
   3   6  -7  112.59   27.80
   2   6  -7   94.39   42.00
   2   6  -7   72.39   27.70
   2   6  -7   27.70   21.80
   1   6  -7   69.19   26.90
   0   6  -7  120.79   26.90
   1  -6   7   14.80   21.80
   2  -6   7   -2.10   23.30
   3  -6   7   22.00   25.00
   3  -6   7   -3.60   22.30
   4  -6   7   54.39   27.00
   4  -6   7   58.19   31.50
   5  -6   7  -27.60   26.30
   5  -6   7   34.30   29.80
   5   5  -7   17.80   38.70
   5   5  -7  -22.40   26.40
   4   5  -7   75.79   37.60
   4   5  -7   82.09   28.40
   4   5  -7   83.99   24.90
   3   5  -7   67.99   33.90
   3   5  -7   44.80   22.10
   3   5  -7   51.29   24.60
   2   5  -7   55.79   23.30
   2   5  -7   58.59   34.30
   2   5  -7   43.90   19.30
   1   5  -7  694.23   50.59
   0   5  -7   63.29   21.90
   0  -5   7   44.60   23.30
  -1   5  -7  241.68   28.30
   1  -5   7  197.48   27.90
   2  -5   7   22.80   21.30
   3  -5   7   65.09   23.80
   3  -5   7   55.09   25.60
   4  -5   7   43.00   26.40
   4  -5   7   14.90   22.70
   5  -5   7   85.49   32.20
   5  -5   7   49.70   29.70
   6   4  -7    9.20   42.20
   6   4  -7   29.00   31.50
   5   4  -7   44.70   36.40
   5   4  -7    9.80   27.90
   4   4  -7   85.69   27.40
   4   4  -7  110.39   36.60
   4   4  -7   78.39   26.50
   3   4  -7   -6.80   19.20
   3   4  -7   15.40   20.30
   3   4  -7   19.50   24.40
   2   4  -7   94.59   21.30
   2   4  -7   76.19   19.70
   2   4  -7   63.39   29.40
   1   4  -7  117.69   24.60
  -1  -4   7  128.09   24.10
   0   4  -7  441.86   35.60
   0  -4   7  545.65   37.90
  -1   4  -7  183.58   22.70
   1  -4   7  140.29   23.10
  -2   4  -7    9.10   16.80
   2  -4   7   42.60   20.00
  -3   4  -7    5.90   20.50
   3  -4   7    4.50   22.20
   3  -4   7  -16.20   17.60
  -4   4  -7    5.40   20.70
   4  -4   7   54.79   24.70
   4  -4   7   57.79   25.50
  -5   4  -7  -20.80   21.00
   5  -4   7   18.10   29.40
   5  -4   7   -5.40   24.60
   6  -4   7  -21.40   28.60
   6  -4   7   30.80   30.60
   6   3  -7  -15.10   36.10
   6   3  -7   20.30   28.90
   5   3  -7   98.69   38.30
   5   3  -7  104.09   31.50
   4   3  -7   51.39   31.10
   4   3  -7    1.10   20.30
   4   3  -7   29.80   25.40
   3   3  -7    6.60   20.30
   3   3  -7   13.30   25.00
   3   3  -7    5.70   17.10
   2   3  -7  -19.70   18.50
   2   3  -7   17.30   15.30
   2   3  -7   16.90   28.10
   1   3  -7   67.69   18.70
   0   3  -7  -23.80   13.90
  -1   3  -7  298.27   24.70
   1  -3   7  280.87   26.80
  -2   3  -7  212.58   23.20
   2  -3   7  196.08   25.10
   2  -3   7  156.48   24.70
  -3   3  -7   85.59   19.60
   3  -3   7   77.69   22.80
   3  -3   7   72.89   20.10
  -4   3  -7    8.50   19.60
   4  -3   7   16.90   23.90
   4  -3   7    4.70   20.00
  -5   3  -7    2.70   24.50
  -5   3  -7  -21.40   18.30
   5  -3   7   38.50   24.80
   5  -3   7   34.70   27.10
   6  -3   7  -16.60   28.90
   6  -3   7   34.20   29.40
   6   2  -7  -14.30   36.50
   6   2  -7   21.90   30.70
   5   2  -7   -8.50   22.70
   5   2  -7  -13.70   30.30
   4   2  -7  291.07   44.10
   4   2  -7  275.77   35.90
   4   2  -7  330.97   41.60
   3   2  -7   96.99   21.70
   3   2  -7   78.49   26.50
   3   2  -7   85.49   24.10
   2   2  -7   14.50   25.00
   2   2  -7   34.40   16.80
   1   2  -7   66.09   14.50
   1   2  -7   48.50   15.50
   0   2  -7  315.17   21.90
   0   2  -7  287.87   22.70
   0  -2   7  305.97   24.90
   0  -2   7  285.27   22.90
  -1   2  -7  144.69   17.60
   1  -2   7  164.78   19.80
  -2   2  -7  882.61   43.70
   2  -2   7  867.11   47.10
   2  -2   7  837.32   49.60
  -3   2  -7  167.88   21.70
   3  -2   7  187.28   24.20
   3  -2   7  192.88   27.70
  -4   2  -7  125.09   24.80
  -4   2  -7   74.99   19.20
   4  -2   7  104.59   28.80
   4  -2   7  104.59   23.60
  -5   2  -7   12.20   23.70
   5  -2   7   22.30   26.60
   5  -2   7   23.20   24.20
   6  -2   7   36.40   28.30
   6  -2   7  -11.60   30.40
   6   1  -7   48.40   31.80
   6   1  -7   -9.60   33.50
   5   1  -7   50.39   25.80
   5   1  -7   21.80   30.10
   4   1  -7  -15.70   25.50
   4   1  -7   25.90   19.60
   4   1  -7    2.80   24.00
   4   1  -7   20.90   19.80
   3   1  -7  153.28   24.00
   3   1  -7  165.38   28.10
   3   1  -7  169.68   21.00
   3   1  -7  164.28   29.80
   2   1  -7  331.37   31.50
   2   1  -7  282.67   26.00
   2   1  -7  295.17   34.40
   1   1  -7   98.89   18.40
   1   1  -7   94.99   15.90
   1   1  -7  113.29   17.40
   0   1  -7  299.27   23.70
   0   1  -7  331.97   22.40
   0   1  -7  327.17   27.80
   0   1  -7  294.77   22.10
   0  -1   7  322.77   22.50
  -1   1  -7  159.58   17.20
  -1   1  -7  139.59   17.80
   1  -1   7  148.59   19.40
  -2   1  -7   37.80   13.80
  -2   1  -7   -9.30   13.40
   2  -1   7   24.90   13.10
   2  -1   7   -4.80   17.80
  -3   1  -7    8.90   12.80
  -3   1  -7   17.20   16.30
   3  -1   7    8.90   14.90
   3  -1   7   -7.90   20.50
   3  -1   7   31.50   20.50
  -4   1  -7   55.69   17.40
  -4   1  -7   77.49   23.70
   4  -1   7   77.29   26.50
   4  -1   7   29.80   28.10
   4  -1   7   75.69   23.10
  -5   1  -7   71.59   24.80
   5  -1   7   58.89   25.40
   5  -1   7  117.99   32.00
  -6   1  -7  -25.40   23.00
   6  -1   7    8.90   27.00
   6  -1   7  -26.80   29.10
   6   0  -7  -24.30   34.20
   6   0  -7   11.20   32.80
   6   0  -7    1.70   27.60
   6   0  -7    3.50   26.20
   5   0  -7   83.79   35.00
   5   0  -7   56.99   26.10
   5   0  -7  114.79   33.60
   5   0  -7   21.30   23.00
   4   0  -7   80.59   23.50
   4   0  -7   65.19   26.10
   4   0  -7   76.79   30.80
   4   0  -7   76.19   20.70
   4   0  -7  100.19   29.80
   3   0  -7  214.98   32.10
   3   0  -7  202.88   26.80
   3   0  -7  227.38   28.50
   3   0  -7  221.18   23.20
   3   0  -7  280.37   33.70
   2   0  -7  276.97   29.00
   2   0  -7  226.88   28.10
   2   0  -7  267.17   25.80
   1   0  -7  243.08   20.60
   1   0  -7  276.97   23.60
   1   0  -7  302.97   25.30
   1   0  -7  231.58   17.10
   0   0  -7   44.90   11.60
   0   0  -7   42.20    9.60
   0   0  -7   67.39   11.80
   0   0  -7   72.29   13.90
   0   0  -7   60.89   10.90
   0   0   7   58.89   11.60
  -1   0  -7   81.79   14.60
  -1   0  -7   73.79   13.90
   1   0   7   87.09   12.30
   1   0   7  112.39   17.10
  -2   0  -7  170.58   20.20
  -2   0  -7  160.28   18.10
   2   0   7  166.98   19.10
   2   0   7  185.08   27.70
   2   0   7  189.38   24.80
  -3   0  -7   22.90   16.70
  -3   0  -7   66.29   15.70
   3   0   7   87.49   24.50
   3   0   7   56.19   17.30
   3   0   7   37.30   24.10
   3   0   7   66.99   15.20
  -4   0  -7  209.98   27.70
   4   0   7  189.08   32.50
   4   0   7  181.18   38.50
   4   0   7  178.68   25.10
   4   0   7  192.08   28.60
  -5   0  -7   45.10   24.00
   5   0   7   11.40   27.10
   5   0   7   11.10   33.70
   5   0   7   58.49   25.90
  -6   0  -7   34.40   24.00
   6   0   7  -10.20   31.60
   6   0   7   -8.60   26.50
   6   0   7   50.19   39.80
   6  -1  -7  -10.00   24.90
   6  -1  -7   15.90   31.60
   6  -1  -7   22.00   24.50
   5  -1  -7   11.60   21.20
   5  -1  -7  -25.90   24.00
   5  -1  -7    9.40   21.50
   5  -1  -7   18.00   25.70
   4  -1  -7   87.69   31.40
   4  -1  -7   68.59   20.70
   4  -1  -7   35.60   21.80
   4  -1  -7   95.79   24.20
   4  -1  -7   70.29   27.20
   3  -1  -7   81.39   24.50
   3  -1  -7   57.59   24.40
   3  -1  -7   69.79   16.60
   3  -1  -7   73.79   20.00
   3  -1  -7   42.40   17.90
   2  -1  -7  164.98   23.90
   2  -1  -7  156.68   21.90
   2  -1  -7  150.98   19.60
   2  -1  -7  173.78   25.80
   1  -1  -7  449.76   34.30
   1  -1  -7  500.45   26.70
   1  -1  -7  517.85   28.40
   1  -1  -7  496.25   34.70
   1  -1  -7  521.05   30.20
   0  -1  -7   16.20   10.40
   0  -1  -7   13.30   11.20
   0  -1  -7   16.70    7.70
   0  -1  -7   17.70   11.10
   0   1   7   15.10   11.30
  -1  -1  -7  244.98   19.10
  -1  -1  -7  224.98   19.50
   1   1   7  204.28   16.40
   1   1   7  245.58   25.70
   1   1   7  205.48   21.90
  -2  -1  -7  182.08   18.80
  -2  -1  -7  227.98   21.20
   2   1   7  189.48   20.20
   2   1   7  171.98   25.70
   2   1   7  203.28   14.90
   2   1   7  278.57   32.60
  -3  -1  -7   79.09   18.00
  -3  -1  -7   97.89   15.90
   3   1   7   83.59   19.50
   3   1   7  141.69   31.60
   3   1   7   69.29   25.10
   3   1   7   97.89   14.80
  -4  -1  -7   49.40   19.10
   4   1   7   14.40   14.80
   4   1   7   21.70   29.40
   4   1   7   36.50   20.80
   4   1   7   25.70   27.20
  -5  -1  -7   19.80   20.80
   5   1   7   59.99   31.30
   5   1   7   28.90   23.90
   5   1   7   22.90   36.00
   5   1   7   -2.90   18.10
   6   1   7   20.20   29.00
   6   1   7    1.80   35.90
   6   1   7   17.00   43.00
   6  -2  -7    6.50   26.50
   6  -2  -7  -15.00   27.50
   6  -2  -7  -12.30   28.70
   6  -2  -7    6.20   24.60
   5  -2  -7   24.40   21.70
   5  -2  -7   35.60   28.00
   5  -2  -7    1.90   23.50
   5  -2  -7   32.10   23.80
   4  -2  -7   20.70   19.40
   4  -2  -7   19.10   18.50
   4  -2  -7   25.70   23.90
   4  -2  -7   -1.60   18.10
   4  -2  -7   -3.30   27.10
   3  -2  -7  155.38   29.60
   3  -2  -7  132.49   24.20
   3  -2  -7  106.79   20.50
   3  -2  -7  133.39   19.80
   3  -2  -7  143.79   26.90
   2  -2  -7    0.50   11.40
   2  -2  -7    9.80   12.60
   2  -2  -7   14.10   14.20
   2  -2  -7   -4.50   14.00
   2  -2  -7  -12.90   17.40
   1  -2  -7  135.79   17.30
   1  -2  -7  136.69   16.60
   1  -2  -7  117.09   16.90
   1  -2  -7  156.88   13.80
   0  -2  -7  226.38   20.20
   0  -2  -7  195.58   18.70
   0   2   7  232.38   19.00
  -1  -2  -7  204.18   20.40
  -1  -2  -7  228.58   19.80
   1   2   7  200.28   23.90
  -2  -2  -7   89.79   16.00
  -2  -2  -7  137.49   18.00
   2   2   7   79.99   10.80
   2   2   7  112.69   16.60
   2   2   7  106.69   23.60
  -3  -2  -7   23.00   14.20
  -3  -2  -7   40.30   15.80
   3   2   7   15.80   24.10
   3   2   7   -1.70   11.00
   3   2   7   37.30   17.20
  -4  -2  -7   36.40   17.90
   4   2   7   27.50   16.00
   4   2   7   44.20   21.80
   4   2   7   25.40   33.50
  -5  -2  -7   43.70   21.40
   5   2   7   21.70   18.00
   5   2   7  -33.30   33.60
   5   2   7    4.70   24.60
   6   2   7   23.40   44.90
   6   2   7   26.30   36.80
   6  -3  -7   27.50   25.90
   6  -3  -7   61.29   30.90
   5  -3  -7    4.90   22.40
   5  -3  -7  -10.30   23.60
   5  -3  -7  -26.30   20.10
   4  -3  -7   -6.00   26.30
   4  -3  -7    3.10   20.40
   4  -3  -7   -4.10   19.40
   4  -3  -7   -8.10   17.30
   3  -3  -7   -3.70   15.80
   3  -3  -7    7.00   16.90
   3  -3  -7   37.70   24.70
   3  -3  -7   30.00   18.10
   2  -3  -7   51.29   22.00
   2  -3  -7   54.29   17.10
   2  -3  -7   62.99   14.50
   2  -3  -7   53.29   16.70
   1  -3  -7  213.88   21.90
   1  -3  -7  217.38   22.10
   1  -3  -7  205.88   24.80
  -1   3   7  227.18   20.40
   0  -3  -7   50.39   15.00
   0  -3  -7   58.99   15.80
   0   3   7   53.59   14.90
  -1  -3  -7  184.88   20.70
  -1  -3  -7  212.78   21.10
  -2  -3  -7   73.69   15.70
  -2  -3  -7   21.50   14.30
   2   3   7   40.00   23.30
   2   3   7   44.40   11.60
  -3  -3  -7   18.50   15.70
  -3  -3  -7   17.60   15.20
   3   3   7   -2.00   18.30
   3   3   7    0.40   25.00
   3   3   7   14.90   12.10
  -4  -3  -7   19.10   17.80
   4   3   7   22.50   33.80
   4   3   7   62.99   26.80
   4   3   7    4.10   14.80
   5   3   7  127.99   53.19
   5   3   7   76.79   36.20
   6  -4  -7  -21.50   24.80
   5  -4  -7   -5.30   22.50
   4  -4  -7   95.49   34.90
   4  -4  -7   91.49   27.00
   4  -4  -7   46.80   23.40
   3  -4  -7   14.20   18.40
   3  -4  -7   45.70   17.80
   3  -4  -7   24.40   24.70
   2  -4  -7  255.27   28.20
   2  -4  -7  265.07   24.20
   2  -4  -7  255.57   34.40
   1  -4  -7  322.07   21.90
   1  -4  -7  345.17   29.70
   1  -4  -7  333.97   33.10
  -1   4   7  333.97   28.00
   0  -4  -7  206.28   24.30
   0  -4  -7  217.18   23.00
   0   4   7  190.08   20.60
  -1  -4  -7  291.57   27.20
  -1  -4  -7  295.17   26.00
   1   4   7  159.28   33.40
  -2  -4  -7   36.10   17.40
  -2  -4  -7   62.99   17.60
   2   4   7   47.50   25.20
   2   4   7   58.39   14.90
  -3  -4  -7  136.79   22.70
  -3  -4  -7  174.48   23.80
   3   4   7  142.99   36.60
   3   4   7  121.49   19.40
  -4  -4  -7   57.09   21.90
   4   4   7   29.80   16.30
   4   4   7   11.20   35.70
   5   4   7  -11.60   42.00
   6  -5  -7   11.70   28.50
   5  -5  -7   38.70   25.40
   4  -5  -7   22.70   25.80
   4  -5  -7   37.30   31.10
   3  -5  -7   -9.70   23.40
   3  -5  -7    2.30   18.40
   3  -5  -7   -7.70   26.00
   2  -5  -7   17.20   21.90
   2  -5  -7    8.80   23.10
   2  -5  -7   28.80   15.10
   1  -5  -7   46.30   19.40
   1  -5  -7   26.70   11.90
   1  -5  -7   17.40   17.10
   0  -5  -7  119.69   21.10
   0   5   7   84.39   20.40
  -1  -5  -7  867.81   48.50
  -1  -5  -7  900.81   52.59
   1   5   7  868.41   64.69
  -2  -5  -7   81.49   22.60
  -2  -5  -7   74.59   20.90
   2   5   7   86.59   28.80
  -3  -5  -7   11.90   20.70
  -3  -5  -7  -10.20   18.50
   3   5   7   -2.10   15.70
   3   5   7  -34.10   31.60
  -4  -5  -7   70.69   25.60
   4   5   7   27.30   17.60
   4   5   7   50.19   41.00
   5   5   7   54.09   48.10
   5  -6  -7  -40.20   25.20
   4  -6  -7    3.10   25.90
   3  -6  -7   21.50   20.90
   3  -6  -7   29.00   26.20
   3  -6  -7    6.30   29.00
   2  -6  -7   56.59   20.40
   2  -6  -7   73.29   27.30
   1  -6  -7   77.09   15.80
   0  -6  -7    3.10   19.80
  -1  -6  -7   18.20   20.40
   1   6   7    9.60   29.80
  -2  -6  -7  404.96   39.90
   2   6   7  394.36   48.70
  -3  -6  -7   13.80   23.50
   3   6   7   28.10   18.00
   3   6   7  -19.00   34.80
  -4  -6  -7    3.00   24.90
   4   6   7   37.70   42.00
   5   6   7  -30.40   49.00
   5  -7  -7   32.30   33.80
   4  -7  -7   -9.60   31.30
   3  -7  -7   96.39   32.10
   2  -7  -7  124.99   33.10
   0  -7  -7   79.49   25.70
  -1  -7  -7  106.89   28.60
   1   7   7  137.39   44.40
  -2  -7  -7   -4.30   24.30
   2   7   7  -50.39   39.50
  -3  -7  -7   72.99   28.40
   3   7   7   94.59   42.50
   3   7   7   41.50   22.30
   4   7   7   46.70   48.50
   4  -8  -7   33.10   34.90
   3  -8  -7  -20.70   32.30
   2  -8  -7   37.90   35.00
  -1  -8  -7   28.50   28.00
   1   8   7  274.17   66.49
   2   8   7    8.30   38.30
   3   8   7  -14.80   24.10
   3   8   7  -21.10   42.70
   4  -9  -7  -24.20   38.50
   3  -9  -7   -2.30   34.30
   2  -9  -7   -0.80   32.90
   1   9   7  -56.79   52.09
   2   9   7  -14.40   48.80
   3   9   7   19.90   29.20
   3 -10  -7  -84.99   36.40
   2 -10  -7   30.10   38.50
   1  10   7  -41.40   61.59
   1 -11   8  -38.90   36.60
   2  10  -8   32.90   65.89
   2  10  -8   19.20   32.90
   1 -10   8    4.80   34.10
   2 -10   8    1.70   32.60
   3 -10   8   31.80   32.80
   3 -10   8  -81.49   32.20
   3   9  -8   21.20   50.29
   3   9  -8   -6.80   29.50
   2   9  -8    8.40   28.40
   2   9  -8  -28.60   53.69
   1  -9   8   29.10   30.20
   2  -9   8   21.80   29.90
   3  -9   8   10.30   32.70
   3  -9   8  -19.00   27.40
   4  -9   8  -17.10   29.00
   4   8  -8   27.50   40.00
   4   8  -8   53.19   34.60
   3   8  -8  -28.80   23.70
   3   8  -8    3.60   27.10
   3   8  -8   37.60   42.50
   2   8  -8  279.77   71.19
   2   8  -8   97.49   31.40
   2   8  -8   67.19   38.00
   1  -8   8  -93.09   28.50
   2  -8   8   -2.00   27.10
   3  -8   8   45.10   32.00
   3  -8   8    2.90   27.60
   4  -8   8   -2.90   33.70
   4  -8   8   -3.10   30.10
   5   7  -8   24.10   44.20
   5   7  -8  -10.50   33.90
   4   7  -8  -61.19   33.90
   4   7  -8   14.70   28.80
   3   7  -8  -46.60   28.30
   3   7  -8  -27.50   45.30
   3   7  -8   22.00   26.00
   2   7  -8   45.20   46.50
   2   7  -8   14.90   23.20
   2   7  -8   16.10   27.00
   1   7  -8   87.59   32.10
   1  -7   8    9.20   22.70
   2  -7   8  180.58   33.40
   3  -7   8   62.39   28.50
   3  -7   8  107.69   32.80
   4  -7   8  -39.70   23.70
   4  -7   8  -34.40   29.30
   5  -7   8  -20.80   31.10
   5  -7   8  -21.70   31.10
   5   6  -8   30.30   40.10
   5   6  -8   19.30   29.80
   4   6  -8   -3.30   22.30
   4   6  -8   30.30   33.90
   4   6  -8   -2.30   25.00
   3   6  -8   46.30   26.10
   3   6  -8  139.59   28.00
   3   6  -8   92.79   39.30
   2   6  -8  245.68   55.59
   2   6  -8   77.59   32.80
   2   6  -8   15.30   21.40
   1   6  -8   47.40   25.20
   1  -6   8    0.60   20.80
   2  -6   8    0.10   23.50
   3  -6   8   58.69   25.10
   3  -6   8   27.10   25.20
   4  -6   8   65.79   32.60
   4  -6   8  104.19   31.00
   5  -6   8   12.60   29.40
   5  -6   8   35.60   31.50
   5   5  -8  -19.30   26.90
   5   5  -8   18.20   38.90
   4   5  -8   18.90   24.60
   4   5  -8   65.49   26.30
   4   5  -8   17.10   34.50
   3   5  -8  153.58   37.20
   3   5  -8  100.49   26.40
   3   5  -8  110.39   28.30
   2   5  -8   30.70   22.70
   2   5  -8   84.59   36.20
   2   5  -8   25.90   18.60
   1   5  -8  441.96   41.50
   0   5  -8    1.00   20.60
  -1   5  -8   64.39   21.00
   1  -5   8   38.70   20.80
   2  -5   8   24.30   22.20
   3  -5   8   25.20   24.60
   3  -5   8   19.20   22.80
  -4   5  -8   53.59   26.20
   4  -5   8   31.80   24.40
   4  -5   8   41.10   27.10
   5  -5   8   89.79   30.80
   5  -5   8   41.60   28.40
   6   4  -8  -27.20   38.40
   6   4  -8   11.60   31.00
   5   4  -8   43.90   34.40
   5   4  -8   23.20   28.00
   4   4  -8   16.90   22.20
   4   4  -8   12.50   24.60
   4   4  -8   17.70   29.60
   3   4  -8   25.40   25.50
   3   4  -8   36.60   22.80
   3   4  -8   19.20   19.60
   2   4  -8   99.39   22.10
   2   4  -8  139.79   33.20
   2   4  -8  127.99   22.80
   1   4  -8   87.09   22.80
   0   4  -8 1083.79   55.09
   0  -4   8 1003.70   55.99
   1  -4   8   51.99   21.30
  -2   4  -8   31.80   17.00
   2  -4   8   -1.80   18.30
  -3   4  -8   66.19   21.10
   3  -4   8   67.99   22.20
   3  -4   8   29.10   23.10
  -4   4  -8   33.80   23.40
   4  -4   8   22.00   23.10
   4  -4   8   37.00   25.00
  -5   4  -8   -6.00   22.30
  -5   4  -8   39.10   27.10
   5  -4   8  -16.70   27.40
   5  -4   8   12.50   26.60
   6  -4   8   -4.50   31.10
   6  -4   8    8.00   31.30
   6   3  -8    8.60   29.50
   6   3  -8   -9.70   36.90
   5   3  -8   81.89   30.50
   5   3  -8   99.29   38.30
   4   3  -8    8.80   25.40
   4   3  -8    9.30   21.20
   4   3  -8  -17.00   28.80
   3   3  -8   45.30   23.70
   3   3  -8   23.30   27.20
   3   3  -8   24.00   19.80
   2   3  -8   69.99   17.60
   2   3  -8  -36.50   21.80
   2   3  -8    1.60   31.10
   1   3  -8    2.50   15.60
   1   3  -8   72.19   20.00
  -1  -3   8   65.09   20.80
   0   3  -8   33.90   15.30
   0  -3   8   31.10   16.60
   0  -3   8   33.40   17.30
  -1   3  -8  768.32   43.10
  -1   3  -8  731.93   39.80
   1  -3   8  860.61   46.00
  -2   3  -8  255.47   25.40
   2  -3   8  263.37   29.60
   2  -3   8  307.67   28.70
  -3   3  -8   62.39   19.20
   3  -3   8   17.90   20.40
   3  -3   8   25.20   16.70
  -4   3  -8  -18.20   18.40
   4  -3   8   27.30   24.80
   4  -3   8   -2.90   19.90
  -5   3  -8  -11.70   24.50
  -5   3  -8   28.10   19.20
   5  -3   8  -29.70   26.20
   5  -3   8   -5.30   22.60
   6  -3   8  -15.30   28.20
   6  -3   8  -14.10   27.20
   6   2  -8   49.99   32.50
   6   2  -8  -57.09   32.40
   5   2  -8   16.50   29.90
   5   2  -8   34.90   25.80
   4   2  -8  731.33   67.79
   4   2  -8  704.43   51.79
   4   2  -8  665.13   56.49
   3   2  -8   50.69   25.00
   3   2  -8   55.79   20.10
   3   2  -8   68.79   24.20
   2   2  -8    5.10   15.00
   2   2  -8  -29.80   18.80
   1   2  -8   29.10   10.50
   1   2  -8   -7.00   12.10
   1   2  -8    2.00   14.30
   0   2  -8   54.89   13.70
   0  -2   8   73.79   13.40
   0  -2   8   37.30   14.30
  -1   2  -8  185.68   18.80
  -1   2  -8  160.28   19.20
   1  -2   8  210.78   21.90
  -2   2  -8  460.85   31.20
   2  -2   8  527.15   36.80
   2  -2   8  452.35   32.90
  -3   2  -8  164.08   22.30
  -3   2  -8  157.38   24.50
   3  -2   8  134.49   26.60
   3  -2   8  172.28   24.50
  -4   2  -8   13.50   20.30
  -4   2  -8   16.70   16.40
   4  -2   8   27.70   24.60
   4  -2   8  -14.60   17.70
  -5   2  -8   28.20   19.50
  -5   2  -8   28.00   25.60
   5  -2   8   12.90   28.20
   5  -2   8   -2.60   22.10
  -6   2  -8   20.10   28.10
   6  -2   8  -17.60   26.20
   6  -2   8  -24.90   28.50
   6   1  -8  -20.80   27.80
   6   1  -8  -11.30   33.20
   5   1  -8   19.10   24.50
   5   1  -8   -5.20   29.00
   4   1  -8   60.89   29.80
   4   1  -8   44.00   26.20
   4   1  -8   70.69   23.10
   3   1  -8 1404.06   74.69
   3   1  -8 1434.46   80.69
   3   1  -8 1343.67   94.19
   2   1  -8   57.09   16.30
   2   1  -8  -25.30   19.00
   2   1  -8  -26.50   20.20
   1   1  -8  143.29   13.30
   1   1  -8  159.48   18.50
   1   1  -8  138.69   19.50
   1   1  -8  154.88   21.80
   0   1  -8  262.27   23.80
   0   1  -8  256.07   19.30
   0   1  -8  240.68   18.40
   0   1  -8  232.98   20.20
   0   1  -8  273.77   20.50
  -1   1  -8   88.59   15.90
  -1   1  -8   89.59   15.20
   1  -1   8   68.79   16.70
  -2   1  -8   13.30   14.90
  -2   1  -8   -1.10   12.70
   2  -1   8    1.90   19.10
   2  -1   8   16.70   13.20
  -3   1  -8   22.30   17.30
  -3   1  -8  -17.70   13.30
   3  -1   8    2.00   20.70
   3  -1   8   12.40   15.50
  -4   1  -8   92.49   25.30
  -4   1  -8   58.79   18.60
   4  -1   8   94.39   29.10
   4  -1   8   57.09   21.10
  -5   1  -8   43.30   25.00
   5  -1   8   36.60   29.60
   5  -1   8   92.99   28.10
   6  -1   8  -16.80   24.50
   6  -1   8   -7.50   30.50
   6   0  -8   38.10   28.20
   6   0  -8  -36.70   24.70
   6   0  -8  -36.20   30.80
   5   0  -8  117.09   35.60
   5   0  -8   47.80   33.20
   5   0  -8   68.49   28.30
   5   0  -8   15.60   22.30
   4   0  -8   88.79   20.60
   4   0  -8   75.79   31.50
   4   0  -8   54.09   27.80
   4   0  -8   76.79   23.80
   4   0  -8   50.19   26.30
   3   0  -8    7.20   22.10
   3   0  -8   10.70   13.60
   3   0  -8   -0.20   15.80
   3   0  -8   25.50   19.00
   3   0  -8    7.40   18.40
   2   0  -8 1521.05   82.09
   2   0  -8 1505.35   75.09
   2   0  -8 1544.35   94.29
   1   0  -8  428.96   24.50
   1   0  -8  477.85   29.30
   1   0  -8  503.75   33.70
   1   0  -8  473.85   34.20
   0   0  -8   54.29   11.60
   0   0  -8   41.90    9.70
   0   0  -8   60.09   14.20
   0   0  -8   62.19   11.00
   0   0  -8   50.39   12.10
   0   0   8   47.50   11.70
  -1   0  -8   37.20   13.10
  -1   0  -8   24.60   12.70
   1   0   8   52.09   15.50
  -2   0  -8  246.18   24.20
  -2   0  -8  268.37   22.90
   2   0   8  227.78   21.50
   2   0   8  225.48   30.80
   2   0   8  260.27   28.20
  -3   0  -8   83.79   19.40
  -3   0  -8   86.59   16.70
   3   0   8   78.19   27.10
   3   0   8   62.59   17.60
   3   0   8   84.49   24.80
  -4   0  -8  228.08   30.20
  -4   0  -8  190.38   23.40
   4   0   8  227.48   42.10
   4   0   8  229.78   29.50
   4   0   8  206.78   36.10
  -5   0  -8   59.99   25.00
   5   0   8  -11.80   28.00
   5   0   8   41.50   24.10
   5   0   8   -2.20   32.80
  -6   0  -8  -49.20   22.70
   6   0   8   23.30   28.50
   6   0   8   -8.60   39.50
   6   0   8  -15.30   32.40
   6  -1  -8   30.60   27.40
   6  -1  -8  -30.20   23.60
   6  -1  -8  -10.90   30.70
   5  -1  -8   19.80   28.60
   5  -1  -8   14.40   20.40
   5  -1  -8   60.19   27.60
   5  -1  -8   19.50   22.30
   4  -1  -8  106.89   33.30
   4  -1  -8  100.89   25.70
   4  -1  -8  121.59   26.60
   4  -1  -8   81.59   29.80
   4  -1  -8   54.89   19.40
   3  -1  -8   52.09   24.30
   3  -1  -8   43.10   18.70
   3  -1  -8   78.29   20.10
   3  -1  -8   83.19   24.50
   3  -1  -8   88.89   17.20
   2  -1  -8  368.96   35.20
   2  -1  -8  299.37   29.70
   2  -1  -8  277.27   33.20
   2  -1  -8  470.95   30.60
   1  -1  -8  178.38   15.80
   1  -1  -8  123.89   16.30
   1  -1  -8  123.29   20.40
   1  -1  -8  142.09   17.60
   1  -1  -8  175.78   16.50
   0  -1  -8  137.59   16.40
   0  -1  -8  117.19   15.60
   0  -1  -8  146.09   14.90
   0  -1  -8  109.49   11.90
   0   1   8  108.69   14.70
  -1  -1  -8   66.49   13.90
  -1  -1  -8   65.89   13.10
   1   1   8   70.39   10.30
   1   1   8   44.90   16.60
   1   1   8   71.69   16.20
  -2  -1  -8   87.89   16.90
  -2  -1  -8   74.59   14.70
   2   1   8  104.89   22.30
   2   1   8   71.89   14.50
   2   1   8   84.29   23.70
  -3  -1  -8   47.10   16.30
  -3  -1  -8   34.50   14.30
   3   1   8   26.50   11.70
   3   1   8   26.70   24.00
   3   1   8   44.70   23.40
   3   1   8   22.30   16.50
  -4  -1  -8   22.30   19.20
   4   1   8   17.40   27.90
   4   1   8    9.60   14.50
   4   1   8   66.39   33.60
   4   1   8   11.10   19.40
  -5  -1  -8   56.59   23.20
   5   1   8   45.40   25.80
   5   1   8   37.00   35.60
   5   1   8   39.60   29.90
   6   1   8  -24.30   27.90
   6   1   8  -59.09   32.70
   6   1   8   11.10   44.80
   6  -2  -8   82.29   35.20
   6  -2  -8  121.09   33.60
   6  -2  -8   79.59   28.80
   5  -2  -8   -2.60   21.00
   5  -2  -8    8.00   19.50
   5  -2  -8    0.20   26.50
   5  -2  -8   23.70   25.60
   4  -2  -8   36.20   21.60
   4  -2  -8   23.10   28.90
   4  -2  -8    9.00   23.00
   4  -2  -8   11.60   20.10
   4  -2  -8   17.90   17.90
   3  -2  -8   74.99   20.60
   3  -2  -8   67.19   22.70
   3  -2  -8   91.19   17.90
   3  -2  -8  111.59   27.50
   3  -2  -8   97.09   20.00
   2  -2  -8  393.76   37.80
   2  -2  -8  355.56   29.80
   2  -2  -8  385.96   26.60
   2  -2  -8  427.66   36.10
   2  -2  -8  395.26   27.80
   1  -2  -8   54.69   17.50
   1  -2  -8   20.20   13.00
   1  -2  -8   46.20   13.40
   1  -2  -8   33.20   13.80
   1  -2  -8   40.40   10.40
   0  -2  -8  180.78   18.40
   0  -2  -8  191.68   19.10
   0   2   8  183.68   18.50
  -1  -2  -8  169.18   19.70
  -1  -2  -8  205.68   19.90
   1   2   8  201.08   23.90
  -2  -2  -8   90.39   16.80
  -2  -2  -8   80.89   15.50
   2   2   8  107.09   23.90
   2   2   8   74.39   15.10
  -3  -2  -8   33.40   14.70
  -3  -2  -8    1.00   14.60
   3   2   8    6.60   10.10
   3   2   8   67.59   28.00
   3   2   8   -1.80   15.50
  -4  -2  -8  121.99   22.90
   4   2   8   98.79   24.40
   4   2   8   52.59   16.30
   4   2   8  127.29   39.50
  -5  -2  -8   31.00   21.40
   5   2   8    2.00   24.50
   5   2   8   95.29   43.70
   6   2   8  -15.20   44.90
   6   2   8   20.10   33.40
   6  -3  -8   89.29   31.00
   6  -3  -8   11.40   23.20
   5  -3  -8   21.40   23.00
   5  -3  -8   27.20   25.20
   5  -3  -8   51.39   27.60
   4  -3  -8  -10.60   19.30
   4  -3  -8   24.10   18.60
   4  -3  -8   10.80   27.90
   4  -3  -8    1.90   20.40
   3  -3  -8    1.70   16.00
   3  -3  -8    8.10   16.20
   3  -3  -8    1.20   17.30
   3  -3  -8    3.00   23.30
   2  -3  -8  256.87   22.80
   2  -3  -8  273.07   32.90
   2  -3  -8  262.47   25.70
   2  -3  -8  268.07   28.00
   1  -3  -8  296.67   26.80
   1  -3  -8  345.17   26.00
   1  -3  -8  313.77   30.60
  -1   3   8  288.27   23.90
   0  -3  -8   29.10   15.10
   0  -3  -8   51.19   14.90
   0   3   8   40.50   14.60
  -1  -3  -8  470.95   31.80
  -1  -3  -8  439.26   29.50
   1   3   8  377.46   35.10
  -2  -3  -8  145.79   19.30
  -2  -3  -8  141.39   19.80
   2   3   8   83.79   18.10
   2   3   8  110.19   14.20
   2   3   8  124.09   27.10
  -3  -3  -8    5.40   16.60
  -3  -3  -8   10.70   15.20
   3   3   8   19.40   19.60
   3   3   8    1.30   11.00
   3   3   8   -9.10   26.90
  -4  -3  -8   35.40   19.90
   4   3   8    6.10   14.00
   4   3   8   34.90   24.90
   4   3   8   57.39   37.10
  -5  -3  -8   82.29   24.40
   5   3   8  111.99   38.00
   5   3   8  147.29   53.89
   6  -4  -8   -3.90   26.00
   5  -4  -8   -6.90   21.00
   4  -4  -8   32.10   22.00
   4  -4  -8   80.99   34.80
   4  -4  -8   46.40   24.80
   3  -4  -8   13.20   24.40
   3  -4  -8    8.00   16.90
   3  -4  -8  -21.50   18.20
   2  -4  -8  160.28   24.60
   2  -4  -8  181.08   30.50
   2  -4  -8  225.18   21.60
   1  -4  -8  167.68   23.80
   1  -4  -8  125.69   21.10
  -1   4   8  124.19   18.80
   0  -4  -8   24.20   16.50
   0  -4  -8   20.50   15.30
   0   4   8    6.40   13.50
  -1  -4  -8   28.10   16.60
  -1  -4  -8   34.80   15.80
   1   4   8   57.29   19.30
  -2  -4  -8   31.70   16.50
  -2  -4  -8   28.50   18.00
   2   4   8   22.30   13.30
   2   4   8   30.50   24.60
  -3  -4  -8   99.19   21.50
  -3  -4  -8   60.99   19.70
   3   4   8   51.69   15.40
   3   4   8   60.09   32.50
  -4  -4  -8    0.70   20.00
   4   4   8  -19.30   34.50
   4   4   8    5.50   13.30
   5   4   8  -10.30   46.00
   6  -5  -8   -7.80   26.90
   5  -5  -8   35.40   25.60
   4  -5  -8   42.60   26.70
   3  -5  -8   21.50   18.70
   3  -5  -8   -6.60   26.10
   3  -5  -8  -41.20   20.50
   2  -5  -8   56.49   27.00
   2  -5  -8  125.29   26.30
   2  -5  -8  100.99   18.10
   1  -5  -8   25.60   18.60
   1  -5  -8    9.20   17.50
  -1   5   8   25.40   16.30
   0  -5  -8  134.69   23.90
  -1  -5  -8  189.98   27.20
  -1  -5  -8  228.68   26.70
   1   5   8  200.78   31.00
  -2  -5  -8  123.29   23.70
  -2  -5  -8  116.49   22.70
   2   5   8  166.28   33.60
  -3  -5  -8    8.40   18.70
  -3  -5  -8  -24.50   19.10
   3   5   8  -11.80   15.00
   3   5   8   27.90   33.10
  -4  -5  -8  110.09   26.20
   4   5   8   76.19   44.30
  -5  -5  -8   35.90   26.00
   5   5   8  -61.59   45.70
   5  -6  -8   28.80   29.70
   4  -6  -8   37.60   27.00
   3  -6  -8  144.39   27.20
   3  -6  -8  109.19   30.00
   3  -6  -8  146.19   37.80
   2  -6  -8   15.80   16.10
   2  -6  -8   55.09   26.10
   2  -6  -8   10.50   27.30
   1  -6  -8   64.89   21.60
   0  -6  -8   73.09   22.30
  -1  -6  -8   71.89   23.50
   1   6   8   24.70   30.40
  -2  -6  -8  207.78   30.80
   2   6   8  165.88   41.20
  -3  -6  -8   31.50   24.70
   3   6   8   19.90   36.40
   3   6   8   40.30   18.50
  -4  -6  -8    5.00   25.00
   4   6   8   77.59   46.50
   5  -7  -8  -21.40   32.10
   4  -7  -8   37.30   32.00
   3  -7  -8  -27.10   29.10
   2  -7  -8   29.20   19.10
   2  -7  -8   -4.70   27.30
   0  -7  -8   56.29   25.10
  -1  -7  -8  -26.90   21.90
   1   7   8  149.79   49.70
  -2  -7  -8  -13.00   23.80
  -3  -7  -8   88.79   28.80
   3   7   8   45.80   21.40
   3   7   8   49.10   41.10
   4   7   8   24.50   47.90
   4  -8  -8   33.70   35.90
   3  -8  -8   39.10   32.80
   2  -8  -8   18.50   34.80
   0  -8  -8   84.19   29.50
  -1  -8  -8   64.09   29.20
   1   8   8   23.70   50.29
  -2  -8  -8   55.19   32.70
   2   8   8  -43.90   35.10
   3   8   8  -40.70   42.70
   3   8   8  -15.50   21.20
   4  -9  -8  -41.10   38.30
   3  -9  -8    1.90   36.50
   2  -9  -8    1.60   34.00
  -1  -9  -8   27.10   29.10
   1   9   8  -69.89   49.90
   2   9   8  -17.70   47.90
   3 -10  -8  -28.40   37.40
   2 -10  -8   50.49   40.20
   1  10   8  -99.89   56.49
   2  10  -9   15.10   63.59
   2  10  -9   45.30   35.80
   0 -10   9   -0.70   36.20
   2 -10   9    9.20   34.90
   3 -10   9    7.50   30.50
   3   9  -9   25.90   33.90
   3   9  -9  -15.00   49.70
   3   9  -9   37.80   31.10
   2   9  -9   41.60   59.29
   2   9  -9   28.70   30.30
   1  -9   9  -24.00   28.80
   2  -9   9   29.90   32.10
   3  -9   9   23.80   33.30
   3  -9   9   15.80   30.10
   4  -9   9    2.80   30.30
   4   8  -9  -27.70   28.80
   4   8  -9  -23.50   39.80
   3   8  -9   34.20   32.00
   3   8  -9  -46.80   39.40
   3   8  -9  -19.40   24.50
   2   8  -9  211.98   67.99
   2   8  -9   67.59   29.60
   1  -8   9    6.70   29.30
   2  -8   9   17.20   28.80
   3  -8   9   39.60   30.50
   3  -8   9   43.00   31.80
   4  -8   9   14.30   29.10
   4  -8   9   22.90   35.50
   4   7  -9  -77.49   34.30
   4   7  -9    2.50   27.70
   3   7  -9  -17.00   30.40
   3   7  -9   20.20   25.00
   3   7  -9  -45.30   43.00
   2   7  -9  -11.80   21.40
   2   7  -9   -8.40   26.30
   2   7  -9   33.40   45.10
   1  -7   9   62.19   27.10
   2  -7   9  116.99   30.70
   3  -7   9   22.50   28.10
   3  -7   9   61.89   30.20
   4  -7   9   17.40   31.70
   4  -7   9   18.90   28.50
   5  -7   9  -25.50   30.00
   5  -7   9  -21.70   31.90
   5   6  -9   12.60   29.80
   5   6  -9  -19.90   37.40
   4   6  -9   23.40   27.80
   4   6  -9    5.00   25.10
   4   6  -9   42.40   37.50
   3   6  -9    2.30   22.20
   3   6  -9  -34.80   23.60
   3   6  -9   -9.00   35.40
   2   6  -9  187.98   54.79
   2   6  -9   36.40   22.40
   2   6  -9   65.09   30.40
   1   6  -9   47.40   25.00
   0   6  -9   35.90   24.60
   0  -6   9   44.40   26.10
   1  -6   9   33.20   21.70
   2  -6   9   38.50   24.50
   3  -6   9   43.50   24.80
   3  -6   9  -12.20   24.20
   4  -6   9  123.39   32.10
   4  -6   9  103.49   34.90
   5  -6   9   12.40   31.70
   5  -6   9   45.40   31.90
   5   5  -9  -48.30   24.90
   5   5  -9   33.10   30.50
   5   5  -9   13.40   38.10
   4   5  -9    5.70   35.00
   4   5  -9   63.29   26.70
   4   5  -9   13.80   26.50
   3   5  -9  265.17   36.60
   3   5  -9  198.58   42.00
   3   5  -9  192.18   31.20
   2   5  -9   27.70   18.30
   2   5  -9    9.00   32.00
   2   5  -9    0.90   19.10
   1   5  -9  141.09   28.20
   0   5  -9    6.60   18.80
   0  -5   9    4.10   21.30
  -1   5  -9  -25.90   17.90
   1  -5   9   -2.30   18.70
   2  -5   9   77.89   24.30
  -3   5  -9   21.10   24.10
   3  -5   9    3.30   21.40
   3  -5   9   -6.20   23.60
   4  -5   9   35.10   27.70
   4  -5   9   33.20   27.00
   5  -5   9  124.89   34.60
   5  -5   9   56.89   31.30
   6   4  -9   27.30   40.70
   6   4  -9   51.89   33.30
   5   4  -9   14.30   26.50
   5   4  -9   11.60   33.50
   4   4  -9   12.30   32.00
   4   4  -9   70.89   27.70
   4   4  -9   78.59   27.30
   3   4  -9   40.60   25.40
   3   4  -9   92.49   31.10
   3   4  -9   33.20   21.90
   2   4  -9  144.49   24.00
   2   4  -9  182.48   35.10
   2   4  -9  150.28   26.20
   1   4  -9   54.99   24.10
  -1  -4   9  111.29   25.80
   0   4  -9  586.44   38.60
   0  -4   9  604.94   40.70
  -1   4  -9    6.20   16.60
   1  -4   9  -20.80   16.70
  -2   4  -9   -9.20   16.20
   2  -4   9  -25.60   17.50
  -3   4  -9   95.59   24.00
   3  -4   9  126.19   27.90
   3  -4   9   90.39   24.80
  -4   4  -9  -38.80   19.20
   4  -4   9   22.90   23.90
   4  -4   9   67.09   24.00
  -5   4  -9   45.60   29.20
  -5   4  -9   22.60   24.10
   5  -4   9   32.10   26.70
   5  -4   9   22.00   29.10
   6  -4   9  -28.20   29.10
   6   3  -9  -25.90   29.10
   6   3  -9   40.00   40.20
   5   3  -9   -8.60   23.40
   5   3  -9    9.70   33.10
   4   3  -9  -28.10   27.30
   4   3  -9   36.80   23.00
   4   3  -9    3.30   25.20
   3   3  -9   31.60   20.50
   3   3  -9   50.09   26.20
   3   3  -9   62.69   24.70
   2   3  -9   42.10   16.20
   2   3  -9   20.80   24.70
   2   3  -9    2.40   18.20
   1   3  -9   38.60   16.60
   1   3  -9   58.09   12.90
  -1  -3   9   41.00   18.90
   0   3  -9  114.49   17.20
   0   3  -9  108.19   17.20
   0  -3   9  133.49   19.60
   0  -3   9   92.39   19.20
  -1   3  -9 1742.13   72.59
   1  -3   9 1674.83   81.79
  -2   3  -9  101.29   19.50
   2  -3   9   90.19   22.10
  -3   3  -9   16.40   17.90
   3  -3   9    4.10   20.40
   3  -3   9    2.80   17.70
  -4   3  -9   34.20   21.10
  -4   3  -9   75.19   25.10
   4  -3   9   -9.80   24.70
   4  -3   9   54.69   23.60
  -5   3  -9  -35.50   24.80
  -5   3  -9  -13.50   19.40
   5  -3   9    8.80   24.40
   5  -3   9  -34.70   24.70
   6  -3   9   -0.40   30.60
   6  -3   9   -6.10   28.70
   6   2  -9  -19.00   35.80
   6   2  -9    6.80   29.20
   5   2  -9   39.80   32.90
   5   2  -9   36.80   26.10
   4   2  -9   45.20   23.90
   4   2  -9   73.19   28.10
   4   2  -9   19.00   26.00
   3   2  -9   64.79   25.80
   3   2  -9   53.29   20.10
   3   2  -9   86.59   25.50
   2   2  -9  -19.20   18.20
   2   2  -9    2.40   14.90
   2   2  -9   22.50   19.20
   1   2  -9   49.60   16.50
   1   2  -9   35.70   14.30
   1   2  -9   55.19   11.90
   0   2  -9  140.39   16.20
   0   2  -9  136.69   16.70
   0   2  -9  145.39   20.70
   0  -2   9  120.39   17.00
   0  -2   9  129.59   16.00
  -1   2  -9  106.29   17.90
   1  -2   9  140.79   19.70
  -2   2  -9  794.82   42.30
   2  -2   9  822.12   45.00
   2  -2   9  710.53   45.70
  -3   2  -9   81.59   18.60
  -3   2  -9   71.69   21.10
   3  -2   9   66.69   19.60
   3  -2   9   65.69   24.30
  -4   2  -9    5.60   15.60
  -4   2  -9   -8.60   20.70
   4  -2   9  -29.90   22.50
   4  -2   9    1.80   18.40
  -5   2  -9  -32.90   17.00
  -5   2  -9  -26.10   25.10
   5  -2   9  -28.20   24.40
   5  -2   9    6.70   24.70
   6  -2   9  -10.00   26.00
   6  -2   9  -29.70   27.80
   6   1  -9    4.50   28.30
   6   1  -9   -7.00   36.50
   5   1  -9    7.50   23.90
   5   1  -9  -24.50   27.40
   4   1  -9   38.30   30.50
   4   1  -9   37.50   25.80
   4   1  -9   45.40   21.30
   3   1  -9  675.43   50.49
   3   1  -9  642.44   45.30
   3   1  -9  647.94   57.29
   2   1  -9   13.70   14.30
   2   1  -9  -42.70   18.10
   1   1  -9  138.09   13.50
   1   1  -9  130.89   17.90
   1   1  -9  139.19   19.60
   1   1  -9  115.59   20.60
   0   1  -9   95.79   17.70
   0   1  -9   66.39   13.80
   0   1  -9   86.69   12.80
   0   1  -9  107.09   13.90
   0   1  -9  108.99   15.70
   0  -1   9   78.69   13.40
  -1   1  -9   86.69   13.70
  -1   1  -9   63.59   13.80
  -1   1  -9   89.99   16.70
   1  -1   9   87.49   16.60
  -2   1  -9   12.60   13.70
  -2   1  -9    4.20   15.40
   2  -1   9   27.70   20.00
   2  -1   9   10.70   13.60
  -3   1  -9   66.39   17.80
  -3   1  -9   87.99   21.70
   3  -1   9   60.79   18.70
   3  -1   9   48.40   24.80
  -4   1  -9   24.20   16.90
  -4   1  -9   12.80   21.50
   4  -1   9   38.10   26.00
   4  -1   9   33.70   20.30
  -5   1  -9   16.10   24.30
   5  -1   9   48.70   24.60
   5  -1   9   28.70   29.50
  -6   1  -9  -15.30   25.70
   6  -1   9  -14.20   26.20
   6  -1   9    7.20   30.40
   6   0  -9    4.80   26.20
   6   0  -9   -7.10   32.80
   6   0  -9   11.90   27.60
   5   0  -9   36.50   30.90
   5   0  -9  124.79   37.50
   5   0  -9   47.30   23.50
   5   0  -9   22.00   25.90
   4   0  -9   71.49   27.90
   4   0  -9   91.39   24.30
   4   0  -9   59.59   27.20
   4   0  -9  139.59   33.60
   4   0  -9  104.19   20.90
   3   0  -9  -23.10   20.30
   3   0  -9    6.80   12.40
   3   0  -9   -8.30   15.20
   3   0  -9   14.10   19.60
   2   0  -9 1790.12   86.09
   2   0  -9 1792.32   95.09
   2   0  -9 1748.33  107.59
   1   0  -9  228.78   18.80
   1   0  -9  255.37   22.30
   1   0  -9  269.17   27.00
   1   0  -9  279.47   23.40
   0   0  -9  196.98   17.90
   0   0  -9  193.78   16.30
   0   0  -9  240.18   21.10
   0   0  -9  197.68   17.80
   0   0  -9  196.78   16.20
   0   0   9  189.28   17.00
  -1   0  -9   36.20   13.50
  -1   0  -9   43.50   14.50
  -1   0  -9   25.70   13.00
   1   0   9   35.30   15.30
  -2   0  -9   46.80   16.30
  -2   0  -9   70.39   15.50
   2   0   9   52.99   20.20
   2   0   9   34.70   20.40
   2   0   9   50.39   13.30
  -3   0  -9   66.89   19.90
  -3   0  -9   82.69   16.30
   3   0   9   77.99   27.50
   3   0   9   68.89   25.40
   3   0   9   61.19   17.60
  -4   0  -9   85.09   23.90
  -4   0  -9   69.99   19.10
   4   0   9  100.09   35.70
   4   0   9   90.79   23.40
   4   0   9  115.99   31.00
  -5   0  -9   62.89   25.40
   5   0   9   22.40   24.80
   5   0   9   10.10   29.00
   5   0   9   20.60   34.90
   6   0   9   -5.80   32.70
   6   0   9  -14.70   25.70
   6  -1  -9   42.20   33.10
   6  -1  -9   -0.80   24.60
   6  -1  -9    7.00   28.20
   5  -1  -9    9.10   20.80
   5  -1  -9  -12.30   26.10
   5  -1  -9   31.40   30.60
   5  -1  -9   11.40   22.00
   4  -1  -9   71.29   30.50
   4  -1  -9  118.59   28.00
   4  -1  -9   64.89   29.40
   4  -1  -9   72.99   24.80
   4  -1  -9   86.79   19.90
   3  -1  -9  345.17   31.80
   3  -1  -9  341.27   39.40
   3  -1  -9  318.97   33.50
   3  -1  -9  281.07   25.60
   3  -1  -9  269.97   36.80
   2  -1  -9   46.30   21.10
   2  -1  -9   44.10   16.60
   2  -1  -9   79.29   19.40
   2  -1  -9   62.79   18.10
   1  -1  -9  110.29   20.60
   1  -1  -9  103.39   16.60
   1  -1  -9   95.09   14.60
   1  -1  -9   93.29   13.90
   1  -1  -9   95.69   14.50
   0  -1  -9  306.97   24.70
   0  -1  -9  294.47   19.00
   0  -1  -9  312.77   24.20
   0  -1  -9  297.77   22.20
   0   1   9  302.97   23.40
  -1  -1  -9   75.39   14.40
  -1  -1  -9   70.09   14.90
   1   1   9   85.09   16.50
  -2  -1  -9   28.70   14.00
  -2  -1  -9   64.49   15.90
   2   1   9   28.20   12.50
   2   1   9   46.10   21.10
   2   1   9   10.90   19.40
  -3  -1  -9   18.20   14.50
  -3  -1  -9   24.50   16.70
   3   1   9  -12.10   21.20
   3   1   9   -8.90   14.90
   3   1   9   34.70   27.00
   3   1   9   -1.50   10.10
  -4  -1  -9   20.80   17.70
  -4  -1  -9  -13.00   18.30
   4   1   9   -0.40   25.80
   4   1   9    5.40   13.80
   4   1   9   32.90   32.00
   4   1   9  -38.50   17.10
  -5  -1  -9   -7.20   21.30
   5   1   9  -32.10   28.70
   5   1   9  -12.70   33.60
   5   1   9   23.30   24.90
  -6  -1  -9   29.30   24.70
   6   1   9  -27.90   43.00
   6   1   9  -30.40   27.10
   6  -2  -9   -7.90   22.70
   6  -2  -9   11.60   31.90
   6  -2  -9   31.00   29.30
   5  -2  -9   28.50   28.10
   5  -2  -9   -4.20   22.70
   5  -2  -9   -4.30   19.00
   5  -2  -9   28.10   26.60
   4  -2  -9   57.09   26.20
   4  -2  -9    3.40   16.30
   4  -2  -9   57.89   22.80
   4  -2  -9   13.40   21.50
   4  -2  -9   24.60   27.80
   3  -2  -9   26.50   23.80
   3  -2  -9   59.19   22.00
   3  -2  -9   10.90   17.40
   3  -2  -9   40.80   15.00
   3  -2  -9   38.80   17.80
   2  -2  -9  665.53   48.60
   2  -2  -9  637.84   34.40
   2  -2  -9  660.73   41.10
   2  -2  -9  648.14   37.10
   2  -2  -9  672.73   48.00
   1  -2  -9  220.68   25.70
   1  -2  -9  252.57   21.40
   1  -2  -9  230.78   22.20
   1  -2  -9  205.18   21.30
   0  -2  -9  508.75   30.20
   0  -2  -9  488.85   31.90
   0   2   9  504.55   30.40
  -1  -2  -9   78.59   15.30
  -1  -2  -9   80.39   16.10
   1   2   9   67.89   16.30
  -2  -2  -9   47.10   15.70
  -2  -2  -9   47.20   14.30
   2   2   9   64.09   22.30
   2   2   9   23.90   13.20
  -3  -2  -9   24.20   15.50
  -3  -2  -9   39.60   16.40
   3   2   9   -3.40   26.80
   3   2   9   12.60   15.30
   3   2   9   -2.70    9.20
  -4  -2  -9   89.59   21.90
   4   2   9   65.99   16.00
   4   2   9  120.49   41.70
   4   2   9   50.89   23.10
  -5  -2  -9   23.10   23.70
   5   2   9    1.60   40.80
   5   2   9   54.09   27.20
   6   2   9   -8.10   31.20
   6   2   9   21.10   48.40
   6  -3  -9   12.00   23.40
   6  -3  -9  -30.30   25.80
   5  -3  -9  -31.40   19.90
   5  -3  -9   -9.70   21.10
   4  -3  -9   13.20   20.40
   4  -3  -9   13.30   21.30
   4  -3  -9   10.30   29.00
   4  -3  -9   16.30   17.50
   3  -3  -9  -12.70   15.90
   3  -3  -9   29.10   18.90
   3  -3  -9   -0.10   22.20
   3  -3  -9  -21.20   15.00
   2  -3  -9  442.06   31.90
   2  -3  -9  485.85   29.60
   2  -3  -9  479.85   42.50
   2  -3  -9  468.45   33.90
   2  -3  -9  481.05   33.60
   1  -3  -9   77.49   16.60
   1  -3  -9  111.99   21.10
   1  -3  -9   49.30   18.70
   0  -3  -9  193.28   22.10
   0  -3  -9  163.18   20.40
   0   3   9  167.08   20.30
  -1  -3  -9  327.07   27.70
  -1  -3  -9  345.57   27.90
   1   3   9  340.07   31.60
  -2  -3  -9   53.99   16.80
  -2  -3  -9   48.30   16.10
   2   3   9   47.60   22.80
   2   3   9   50.69   15.80
   2   3   9   67.29   11.60
  -3  -3  -9   15.90   17.80
  -3  -3  -9   14.30   16.10
   3   3   9   20.20   25.90
   3   3   9   -3.80    9.50
   3   3   9   -2.60   17.90
  -4  -3  -9   18.00   20.20
   4   3   9   12.00   35.60
   4   3   9   12.30   23.50
  -5  -3  -9   37.90   24.70
   5   3   9   40.50   33.30
   5   3   9   45.60   47.40
   6  -4  -9   -4.20   23.90
   5  -4  -9   28.10   23.50
   4  -4  -9   30.20   22.00
   4  -4  -9   38.80   21.80
   4  -4  -9   45.50   31.00
   3  -4  -9   26.40   19.10
   3  -4  -9   65.19   19.40
   3  -4  -9   62.89   28.90
   2  -4  -9  190.78   24.80
   2  -4  -9  200.58   20.70
   2  -4  -9  176.88   30.90
   1  -4  -9  108.29   19.80
   1  -4  -9   90.59   19.90
   1  -4  -9   76.29   20.90
   0  -4  -9  225.48   26.10
   0  -4  -9  259.87   24.30
   0  -4  -9  237.08   24.50
   0   4   9  205.68   23.60
  -1  -4  -9  138.09   20.90
  -1  -4  -9  163.38   23.50
   1   4   9  187.88   24.90
  -2  -4  -9   16.90   16.70
  -2  -4  -9   18.70   16.20
   2   4   9    9.10   12.10
   2   4   9   17.50   25.10
  -3  -4  -9   63.19   19.60
  -3  -4  -9   42.90   19.60
   3   4   9   38.50   13.40
   3   4   9   37.40   30.90
  -4  -4  -9  -35.90   19.20
   4   4   9   -4.10   35.50
  -5  -4  -9   34.60   24.60
   5   4   9    1.80   49.40
   6  -5  -9   32.90   28.80
   5  -5  -9   17.00   24.60
   4  -5  -9   15.00   33.20
   4  -5  -9    0.30   24.00
   3  -5  -9  231.88   29.00
   3  -5  -9  162.48   30.90
   3  -5  -9  199.98   39.20
   2  -5  -9   33.80   24.00
   2  -5  -9   19.70   21.70
   2  -5  -9   14.70   14.10
   1  -5  -9   20.40   19.30
   1  -5  -9   11.90   18.90
  -1   5   9   45.10   17.50
   0  -5  -9  131.79   23.50
   0  -5  -9   70.49   19.80
   0   5   9   50.49   19.20
  -1  -5  -9  168.08   26.60
  -1  -5  -9  178.18   24.40
   1   5   9  156.88   31.30
  -2  -5  -9    2.10   19.20
  -2  -5  -9   32.40   19.40
   2   5   9   13.10   28.60
  -3  -5  -9   39.20   22.40
  -3  -5  -9  -12.70   18.00
   3   5   9   18.50   15.20
   3   5   9   10.60   33.20
  -4  -5  -9   47.70   23.40
  -4  -5  -9   93.29   27.80
   4   5   9    9.10   42.40
  -5  -5  -9   -8.90   24.60
   5   5   9   -2.80   50.19
   5  -6  -9   -1.70   27.80
   4  -6  -9   -7.30   25.90
   3  -6  -9   39.80   26.70
   2  -6  -9   45.50   17.40
   2  -6  -9   35.20   26.50
   2  -6  -9   47.70   27.70
   1  -6  -9   26.50   20.10
   0  -6  -9  117.49   24.50
  -1  -6  -9  138.49   27.60
   1   6   9   41.10   36.90
  -2  -6  -9   33.80   24.30
  -2  -6  -9   34.20   21.20
   2   6   9  -74.79   30.70
  -3  -6  -9   17.90   21.90
  -3  -6  -9   22.60   24.70
   3   6   9    3.20   16.70
   3   6   9  -33.20   36.30
  -4  -6  -9   40.10   27.30
   4   6   9   32.90   44.90
   5  -7  -9   33.60   34.80
   4  -7  -9   18.10   31.00
   3  -7  -9   19.30   31.70
   2  -7  -9   29.70   30.00
   0  -7  -9   53.89   25.60
  -1  -7  -9   19.00   24.30
   1   7   9   26.70   39.40
  -2  -7  -9   39.20   26.50
   2   7   9   55.99   36.00
  -3  -7  -9   52.39   28.60
   3   7   9   35.80   20.10
   3   7   9   61.19   42.70
   4  -8  -9   28.20   35.10
   3  -8  -9  -39.90   30.70
   2  -8  -9   15.90   33.40
   0  -8  -9   83.89   28.60
  -1  -8  -9   -9.50   25.30
   1   8   9  -32.20   54.79
  -2  -8  -9   16.80   27.80
   2   8   9   57.99   37.80
   3   8   9  -61.99   39.00
   4  -9  -9   15.40   40.80
   3  -9  -9  -29.30   32.60
   2  -9  -9  -27.90   33.70
  -1  -9  -9  -17.50   28.20
   1   9   9  -47.00   49.60
  -2  -9  -9   12.30   31.30
   3 -10  -9    5.00   40.90
   2 -10  -9  -60.59   37.10
   2  10 -10   -2.10   32.90
   2  10 -10   25.80   67.49
   0 -10  10   -8.20   34.80
   1 -10  10    0.00   33.20
   3 -10  10    0.20   32.80
   3   9 -10  -23.00   49.20
   3   9 -10    9.30   31.70
   3   9 -10   -6.10   33.80
   2   9 -10    2.10   28.20
   2   9 -10   44.90   58.79
   2  -9  10   47.70   35.20
   3  -9  10   11.60   32.90
   3  -9  10  -46.80   26.20
   4   8 -10    8.50   43.80
   4   8 -10   -2.90   31.20
   3   8 -10    7.20   45.50
   3   8 -10   -3.70   26.40
   3   8 -10   52.69   34.80
   2   8 -10  -30.80   25.00
   2   8 -10  127.39   61.29
   1  -8  10   19.10   27.60
   2  -8  10   28.70   29.90
   3  -8  10   21.30   30.10
   3  -8  10  -34.60   27.70
   4  -8  10   63.99   38.90
   4  -8  10   29.50   31.60
   4   7 -10  -28.70   26.80
   4   7 -10  -56.79   37.20
   4   7 -10    3.90   29.70
   3   7 -10   11.30   42.20
   3   7 -10    5.60   29.50
   3   7 -10   -6.20   23.40
   2   7 -10   16.10   22.70
   2   7 -10   65.69   48.80
   2   7 -10   51.89   32.00
   1  -7  10   45.50   26.80
   2  -7  10   54.59   29.30
   3  -7  10   61.29   30.00
   3  -7  10   35.30   29.80
   4  -7  10    1.20   28.40
   4  -7  10   50.49   34.80
   5  -7  10   15.80   31.00
   5   6 -10   22.10   39.40
   5   6 -10    5.10   29.60
   4   6 -10    8.60   27.20
   4   6 -10   33.20   29.70
   4   6 -10   56.49   36.50
   3   6 -10   -3.60   43.70
   3   6 -10    1.10   21.40
   2   6 -10   35.40   41.70
   2   6 -10   14.60   21.40
   2   6 -10   26.60   25.40
   1   6 -10   -2.20   26.00
   0   6 -10   14.60   23.70
   1  -6  10   -8.00   22.10
   2  -6  10   97.29   28.80
   3  -6  10   41.80   26.00
   3  -6  10    9.20   26.80
   4  -6  10   33.30   31.00
   4  -6  10   63.39   29.80
   5  -6  10  -22.80   27.00
   5  -6  10   57.09   34.50
   5   5 -10    0.80   27.50
   5   5 -10   68.29   33.40
   5   5 -10  -27.40   35.10
   4   5 -10   16.20   36.30
   4   5 -10   21.00   28.30
   4   5 -10   54.89   27.10
   3   5 -10  141.69   31.90
   3   5 -10  181.08   32.10
   3   5 -10  223.28   46.30
   2   5 -10    0.70   17.80
   2   5 -10   -4.70   19.80
   2   5 -10  -27.00   30.30
   1   5 -10  180.08   30.30
   0   5 -10   -4.70   18.60
   0  -5  10  -44.90   19.20
   1  -5  10  -22.80   17.80
   2  -5  10   98.29   25.70
  -3   5 -10  -13.30   20.50
   3  -5  10    2.40   25.60
   3  -5  10   55.39   25.40
  -4   5 -10   23.70   27.20
   4  -5  10   43.10   27.20
   4  -5  10   75.29   29.40
   5  -5  10   92.09   33.80
   5  -5  10  124.49   36.40
   5   4 -10   -4.70   26.40
   5   4 -10    4.40   33.50
   4   4 -10  -14.30   34.50
   4   4 -10   27.10   29.30
   4   4 -10   32.30   25.40
   3   4 -10   57.39   22.70
   3   4 -10    4.60   26.80
   3   4 -10   14.70   31.80
   2   4 -10  171.78   25.00
   2   4 -10  208.38   36.70
   2   4 -10  149.49   26.40
   1   4 -10   49.10   21.60
  -1  -4  10  111.09   23.80
   0   4 -10  378.56   30.70
   0  -4  10  367.36   33.40
   0  -4  10  294.47   29.30
  -1   4 -10   76.19   19.90
  -1   4 -10  107.49   19.60
   1  -4  10   81.09   20.90
  -2   4 -10   28.20   17.30
   2  -4  10   41.40   20.60
  -3   4 -10  133.59   25.40
   3  -4  10  165.98   28.60
   3  -4  10   69.49   26.70
  -4   4 -10    9.10   21.30
   4  -4  10    5.80   23.90
   4  -4  10   19.90   23.10
  -5   4 -10   21.50   30.40
  -5   4 -10  -21.90   21.90
   5  -4  10   -2.40   24.90
   5  -4  10    0.90   28.20
   6   3 -10  -49.40   27.40
   6   3 -10  -10.90   36.60
   5   3 -10   11.90   33.00
   5   3 -10   -5.50   26.30
   4   3 -10   22.70   22.10
   4   3 -10   11.20   30.00
   4   3 -10  -15.70   25.70
   3   3 -10   17.80   24.60
   3   3 -10   47.00   26.40
   3   3 -10   30.90   19.70
   2   3 -10   29.30   19.10
   2   3 -10   54.59   17.90
   2   3 -10   55.09   25.50
   1   3 -10   62.59   17.00
   1   3 -10  139.19   24.10
   1   3 -10  117.39   15.70
   0   3 -10  128.89   18.10
   0   3 -10  112.59   17.00
   0  -3  10  113.49   19.40
  -1   3 -10  222.88   22.40
  -1   3 -10  223.88   23.20
   1  -3  10  230.48   25.60
  -2   3 -10  -16.50   14.60
   2  -3  10    8.90   19.70
  -3   3 -10   20.30   18.10
   3  -3  10   -1.50   17.80
   3  -3  10    6.40   20.40
  -4   3 -10  -15.00   17.80
  -4   3 -10    3.80   22.70
   4  -3  10   26.10   23.60
   4  -3  10   42.70   27.10
  -5   3 -10   20.10   20.60
  -5   3 -10  -24.60   25.00
   5  -3  10  -15.30   23.60
   5  -3  10  -10.10   27.40
   6  -3  10   -1.10   27.80
   6   2 -10   19.50   30.60
   6   2 -10   42.10   38.80
   5   2 -10    4.20   25.20
   5   2 -10   21.90   30.60
   4   2 -10   84.59   30.80
   4   2 -10  112.99   33.00
   4   2 -10   57.49   24.30
   3   2 -10   42.40   25.10
   3   2 -10   49.20   19.40
   3   2 -10   53.49   24.80
   2   2 -10   19.60   15.70
   2   2 -10  -59.29   20.60
   1   2 -10  172.38   22.80
   1   2 -10  189.08   21.10
   1   2 -10  184.68   17.10
  -1  -2  10  218.08   21.40
   0   2 -10  331.07   25.10
   0   2 -10  339.17   31.90
   0   2 -10  351.66   25.70
   0   2 -10  404.46   26.60
   0  -2  10  342.87   26.60
  -1   2 -10   16.40   12.80
  -1   2 -10   40.00   14.70
   1  -2  10   28.30   16.60
  -2   2 -10  232.28   25.40
  -2   2 -10  243.38   26.70
   2  -2  10  267.77   28.60
   2  -2  10  279.57   27.10
  -3   2 -10   32.90   16.30
  -3   2 -10    5.50   18.20
   3  -2  10   39.00   18.00
   3  -2  10   21.10   22.70
  -4   2 -10   47.20   22.50
  -4   2 -10   30.90   17.80
   4  -2  10   -5.60   18.70
   4  -2  10   13.70   25.60
  -5   2 -10  -21.60   18.00
  -5   2 -10  -28.80   26.00
   5  -2  10    5.60   23.50
   5  -2  10  -15.80   25.10
   6  -2  10   22.80   33.00
   6  -2  10  -43.60   26.10
   6   1 -10   -0.90   36.10
   6   1 -10   15.00   30.10
   5   1 -10  -14.70   27.80
   5   1 -10    1.90   23.70
   4   1 -10   60.19   23.10
   4   1 -10   58.59   27.80
   4   1 -10   76.89   32.70
   3   1 -10   72.79   25.30
   3   1 -10  115.19   27.60
   3   1 -10  114.79   23.80
   2   1 -10  123.99   25.20
   2   1 -10  127.69   21.10
   2   1 -10  125.29   22.60
   1   1 -10  216.58   22.10
   1   1 -10  162.68   16.20
   1   1 -10  192.38   23.20
   1   1 -10  196.78   23.70
   0   1 -10    8.60   16.00
   0   1 -10   19.30   10.80
   0   1 -10   14.70   12.20
   0   1 -10   -2.90   11.20
   0   1 -10   -9.00    9.50
  -1   1 -10  345.47   24.50
  -1   1 -10  332.97   25.80
  -1   1 -10  352.86   28.30
   1  -1  10  320.27   28.30
  -2   1 -10   -1.50   15.40
  -2   1 -10   -0.40   14.80
   2  -1  10  -12.10   12.00
   2  -1  10  -36.10   17.70
  -3   1 -10   46.60   21.00
  -3   1 -10   49.90   17.10
   3  -1  10   56.69   18.40
   3  -1  10   36.30   24.30
  -4   1 -10   30.60   21.90
  -4   1 -10   10.20   16.70
   4  -1  10    6.80   24.50
   4  -1  10   19.50   19.30
  -5   1 -10   15.30   24.80
  -5   1 -10   10.80   18.60
   5  -1  10    5.40   29.80
   5  -1  10   -2.90   21.80
   6  -1  10  -10.20   28.10
   6  -1  10    2.20   30.30
   6   0 -10   -7.10   27.50
   6   0 -10   14.10   34.40
   6   0 -10   41.70   29.60
   5   0 -10   45.90   22.40
   5   0 -10    6.90   24.40
   5   0 -10   17.00   31.00
   4   0 -10   75.49   32.90
   4   0 -10   13.30   16.60
   4   0 -10   40.60   22.90
   4   0 -10   24.30   23.80
   3   0 -10   46.00   24.10
   3   0 -10   42.20   17.90
   3   0 -10   27.20   20.00
   2   0 -10  243.88   30.70
   2   0 -10  255.97   27.30
   2   0 -10  238.58   29.00
   1   0 -10   62.29   12.20
   1   0 -10   80.29   15.30
   1   0 -10   69.99   18.70
   1   0 -10   87.09   13.20
   0   0 -10   79.89   14.20
   0   0 -10   87.99   13.00
   0   0 -10   80.99   13.50
   0   0 -10   83.79   12.10
   0   0 -10   83.99   16.10
   0   0  10   83.29   14.50
  -1   0 -10  -11.20   12.20
  -1   0 -10    7.60   13.90
  -1   0 -10   -5.70   12.30
  -1   0 -10   11.80   10.30
   1   0  10   15.60   14.80
  -2   0 -10   -3.20   14.70
  -2   0 -10   31.70   14.70
   2   0  10    3.10   18.50
   2   0  10   21.40   12.70
  -3   0 -10   22.90   16.70
  -3   0 -10   23.10   17.90
   3   0  10   56.49   26.90
   3   0  10    1.40   24.00
   3   0  10   51.69   17.50
  -4   0 -10  118.49   21.30
  -4   0 -10   91.19   24.90
   4   0  10  145.69   32.90
   4   0  10   88.29   23.00
   4   0  10  167.28   39.00
  -5   0 -10   46.80   26.40
   5   0  10   39.10   33.50
   5   0  10   70.69   27.30
   5   0  10   30.40   38.10
  -6   0 -10   43.80   26.70
   6   0  10  -54.69   30.40
   6   0  10  -44.30   24.60
   6  -1 -10    0.70   24.90
   6  -1 -10   26.70   29.70
   6  -1 -10    6.50   32.30
   5  -1 -10   28.80   30.80
   5  -1 -10    2.00   19.60
   5  -1 -10  -35.90   19.50
   5  -1 -10    8.90   26.80
   4  -1 -10   84.49   28.00
   4  -1 -10   61.69   28.20
   4  -1 -10   54.89   18.00
   4  -1 -10  123.49   34.40
   4  -1 -10   54.39   24.50
   3  -1 -10  133.39   24.60
   3  -1 -10  171.98   25.80
   3  -1 -10  133.69   18.70
   3  -1 -10  230.68   34.20
   3  -1 -10  135.59   28.70
   2  -1 -10   58.89   21.10
   2  -1 -10   36.80   17.10
   2  -1 -10   50.49   17.30
   1  -1 -10   74.49   19.00
   1  -1 -10   74.69   15.50
   1  -1 -10   85.29   14.30
   1  -1 -10   76.29   14.60
  -1   1  10   89.59   14.60
   0  -1 -10  251.07   20.70
   0  -1 -10  211.18   17.40
   0  -1 -10  254.07   21.60
   0  -1 -10  235.28   23.30
   0   1  10  282.17   23.10
  -1  -1 -10   20.10   13.20
  -1  -1 -10   49.60   13.90
   1   1  10   36.30   13.90
   1   1  10   17.20    8.70
  -2  -1 -10   33.10   13.90
  -2  -1 -10   13.20   14.80
   2   1  10   25.90   20.40
   2   1  10   47.00   20.70
   2   1  10   27.90   12.60
  -3  -1 -10   78.89   20.40
  -3  -1 -10   70.19   18.20
   3   1  10   54.19   29.30
   3   1  10   80.19   19.50
   3   1  10   54.39   25.20
  -4  -1 -10   33.10   21.90
  -4  -1 -10   13.70   17.90
   4   1  10   -9.60   18.90
   4   1  10  -16.50   30.40
   4   1  10   12.20   27.30
  -5  -1 -10   58.69   25.60
   5   1  10   48.00   39.10
   5   1  10   28.90   33.90
   5   1  10   73.09   26.60
  -6  -1 -10   41.50   26.20
   6   1  10    3.60   44.70
   6   1  10   33.10   30.60
   6  -2 -10    9.70   33.30
   6  -2 -10   63.39   30.40
   5  -2 -10    2.70   33.60
   5  -2 -10   42.10   25.10
   5  -2 -10   -1.80   26.40
   5  -2 -10   -6.30   24.30
   5  -2 -10   29.00   20.00
   4  -2 -10   53.09   31.50
   4  -2 -10   45.30   23.60
   4  -2 -10   14.60   17.60
   4  -2 -10   37.50   21.40
   4  -2 -10    9.10   23.40
   3  -2 -10   16.60   19.60
   3  -2 -10   27.20   17.30
   3  -2 -10    5.40   23.20
   3  -2 -10   11.30   17.50
   3  -2 -10   -2.80   12.80
   2  -2 -10  533.15   33.70
   2  -2 -10  562.14   31.80
   2  -2 -10  585.44   38.10
   2  -2 -10  535.15   42.30
   2  -2 -10  516.85   43.90
   2  -2 -10  515.15   34.20
   1  -2 -10  223.78   22.00
   1  -2 -10  251.57   23.40
   1  -2 -10  266.57   27.70
   1  -2 -10  236.28   22.30
   0  -2 -10 2128.69   84.59
   0  -2 -10 2036.20  101.29
   0  -2 -10 2077.79   89.59
   0   2  10 2071.19   88.89
  -1  -2 -10    4.90   13.00
  -1  -2 -10  -11.30   13.10
   1   2  10    1.40   13.50
  -2  -2 -10  136.99   19.20
  -2  -2 -10  131.79   20.30
   2   2  10   89.29   16.40
   2   2  10  124.29   28.00
  -3  -2 -10   45.00   17.00
  -3  -2 -10   28.20   17.20
   3   2  10   28.30   16.80
   3   2  10   76.19   31.00
  -4  -2 -10   32.90   21.50
  -4  -2 -10   20.30   17.50
   4   2  10   21.10   21.00
   4   2  10   21.90   35.30
  -5  -2 -10   52.39   26.00
   5   2  10   -1.70   25.10
   5   2  10    7.30   43.40
   6   2  10   33.40   33.30
   6  -3 -10   27.70   25.00
   6  -3 -10   -5.50   25.20
   5  -3 -10    6.30   20.90
   5  -3 -10  -14.20   22.00
   4  -3 -10  -37.80   26.20
   4  -3 -10    8.20   19.90
   4  -3 -10    5.00   17.40
   4  -3 -10   -6.00   19.40
   3  -3 -10   19.00   16.50
   3  -3 -10  -13.30   21.70
   3  -3 -10   13.80   16.30
   3  -3 -10   -7.20   17.90
   2  -3 -10  477.65   33.90
   2  -3 -10  480.45   29.80
   2  -3 -10  465.35   42.20
   2  -3 -10  462.45   31.60
   2  -3 -10  418.26   33.80
   1  -3 -10  -28.90   13.70
   1  -3 -10  -17.40   15.40
   1  -3 -10   17.60   14.00
   0  -3 -10  213.58   22.50
   0  -3 -10  205.98   21.60
   0  -3 -10  180.78   22.20
   0   3  10  186.38   21.90
  -1  -3 -10  703.73   40.80
  -1  -3 -10  692.43   38.60
   1   3  10  647.84   47.60
  -2  -3 -10   66.49   17.90
  -2  -3 -10  101.09   19.70
   2   3  10   98.09   25.30
  -3  -3 -10   13.20   16.80
  -3  -3 -10   20.70   19.30
   3   3  10   -4.10   16.20
   3   3  10  -19.20   27.00
  -4  -3 -10   30.10   19.40
  -4  -3 -10   12.80   22.20
   4   3  10   40.40   39.20
   4   3  10   14.80   23.40
  -5  -3 -10   17.60   23.70
   5   3  10  -56.79   42.50
   5   3  10  -35.00   30.10
   6  -4 -10   36.50   25.50
   5  -4 -10    1.20   21.60
   4  -4 -10  178.48   28.70
   4  -4 -10  264.57   35.00
   4  -4 -10  220.38   43.30
   3  -4 -10  110.39   22.80
   3  -4 -10  116.19   22.50
   3  -4 -10   87.09   30.40
   2  -4 -10  185.78   25.10
   2  -4 -10  197.98   24.50
   2  -4 -10  169.18   29.70
   2  -4 -10  161.88   18.90
   1  -4 -10   56.39   19.00
   1  -4 -10   73.99   20.10
   1  -4 -10   42.70   17.10
   0  -4 -10   36.10   16.70
   0  -4 -10   50.29   18.50
   0   4  10   41.00   17.30
  -1  -4 -10   37.00   16.10
  -1  -4 -10   37.50   17.80
   1   4  10   10.40   16.00
   1   4  10   71.09   19.30
  -2  -4 -10   96.89   21.30
  -2  -4 -10  128.99   22.10
   2   4  10  166.88   31.80
   2   4  10   88.89   14.80
  -3  -4 -10   39.90   19.90
  -3  -4 -10   -3.70   17.70
   3   4  10   27.30   31.30
   3   4  10    1.10   10.90
  -4  -4 -10   29.90   22.80
  -4  -4 -10    5.40   19.30
   4   4  10   46.20   39.60
  -5  -4 -10   48.80   25.80
   5   4  10   27.10   51.49
   6  -5 -10   -5.80   27.30
   5  -5 -10   36.40   25.00
   4  -5 -10   13.30   23.90
   3  -5 -10  694.63   46.20
   3  -5 -10  630.44   59.39
   3  -5 -10  622.94   48.50
   2  -5 -10    5.10   22.80
   2  -5 -10   12.50   13.40
   2  -5 -10   69.49   22.50
  -2   5  10   10.40   18.00
   1  -5 -10   39.10   20.10
   1  -5 -10   63.99   21.60
  -1   5  10   15.40   17.40
   0  -5 -10   13.60   18.40
   0  -5 -10   15.00   16.90
   0   5  10   10.30   16.70
  -1  -5 -10    2.10   18.40
  -1  -5 -10   21.30   17.60
   1   5  10   14.60   20.30
  -2  -5 -10   16.70   19.50
  -2  -5 -10   -2.50   18.20
   2   5  10  -10.20   27.70
   2   5  10    6.90   14.60
  -3  -5 -10   48.40   21.70
  -3  -5 -10   45.90   24.00
   3   5  10   35.80   15.40
   3   5  10   23.60   35.60
  -4  -5 -10   35.90   25.50
   4   5  10   44.70   42.40
  -5  -5 -10  -35.70   25.10
   5  -6 -10  -21.70   24.70
   4  -6 -10  -20.80   23.30
   3  -6 -10  -47.70   24.40
   3  -6 -10    7.60   30.40
   2  -6 -10  363.66   45.30
   2  -6 -10  341.37   29.00
   2  -6 -10  312.37   40.60
   1  -6 -10   33.00   21.70
   1  -6 -10   63.79   23.20
   0  -6 -10   59.39   21.60
  -1  -6 -10   73.39   25.30
  -1  -6 -10   76.19   23.10
   1   6  10  -79.99   31.40
  -2  -6 -10   21.10   23.70
  -2  -6 -10   -7.00   19.60
   2   6  10   26.20   30.50
  -3  -6 -10   57.89   25.80
  -3  -6 -10   45.70   24.50
   3   6  10    9.00   37.80
  -4  -6 -10   32.30   27.20
   5  -7 -10   26.70   33.90
   4  -7 -10    9.50   31.70
   3  -7 -10  -18.50   29.00
   2  -7 -10   25.10   31.70
   1  -7 -10  111.99   28.80
   0  -7 -10   30.20   24.00
  -1  -7 -10   48.20   25.60
   1   7  10   26.00   36.80
  -2  -7 -10   52.09   27.40
   2   7  10  -29.00   35.20
  -3  -7 -10   59.89   30.20
   3   7  10   31.40   41.20
   4  -8 -10   74.59   37.30
   3  -8 -10   -8.70   31.10
   2  -8 -10  -13.50   33.00
  -1  -8 -10   42.90   29.40
   1   8  10  -35.00   48.00
  -2  -8 -10    9.80   27.60
   2   8  10   44.20   38.10
  -3  -8 -10   26.60   28.20
   3  -9 -10   12.90   34.50
   2  -9 -10   -3.40   35.10
   2 -10 -10  -14.90   36.50
   2  10 -11    1.70   34.60
   2  10 -11  137.09   74.09
   0 -10  11    1.70   34.30
   1 -10  11  -16.70   31.60
   2 -10  11  -19.20   32.90
   3   9 -11   28.80   36.40
   3   9 -11    6.40   31.10
   3   9 -11   53.29   55.69
   2   9 -11   41.30   63.99
   2   9 -11   43.50   32.70
   2  -9  11  -46.80   30.00
   3  -9  11   16.70   34.60
   3  -9  11   34.70   32.40
   4   8 -11  -11.90   41.80
   4   8 -11  -40.80   28.50
   3   8 -11  -13.10   25.30
   3   8 -11    6.00   33.00
   3   8 -11   31.80   49.40
   2   8 -11   54.59   56.19
   2   8 -11   27.30   26.70
   0  -8  11   39.30   30.10
   1  -8  11  -30.30   26.90
   2  -8  11   54.89   32.00
   3  -8  11  -10.00   31.50
   3  -8  11   40.60   31.10
   4  -8  11  -20.90   35.60
   4  -8  11   14.70   30.90
   4   7 -11  -30.10   37.00
   4   7 -11  -14.90   30.20
   4   7 -11  -14.30   28.10
   3   7 -11  -22.80   38.80
   3   7 -11   -3.60   29.40
   3   7 -11  -24.70   21.60
   2   7 -11   11.40   22.80
   2   7 -11   26.50   36.60
   0  -7  11   24.70   27.20
   1  -7  11   33.70   25.40
   2  -7  11   -5.10   27.70
   3  -7  11   46.00   30.00
   3  -7  11   16.70   27.30
   4  -7  11   11.10   29.10
   4  -7  11    1.30   31.20
   5   6 -11   16.80   41.70
   5   6 -11   28.30   31.70
   5   6 -11    6.40   32.90
   4   6 -11   32.00   36.50
   4   6 -11   37.10   29.60
   4   6 -11   13.40   30.10
   3   6 -11   30.50   24.00
   3   6 -11 -108.99   48.60
   2   6 -11   48.20   27.10
   2   6 -11   -9.40   40.40
   2   6 -11   40.40   22.00
   1   6 -11    8.00   25.70
   0  -6  11   41.50   25.10
   1  -6  11   47.00   26.90
   2  -6  11   36.30   25.80
  -3   6 -11   14.50   25.00
   3  -6  11   33.60   25.30
   3  -6  11    4.80   27.20
   4  -6  11  -15.00   27.50
   4  -6  11   21.30   28.20
   5  -6  11   24.00   32.70
   5  -6  11   47.00   34.50
   5   5 -11   90.49   35.50
   5   5 -11   44.60   40.00
   5   5 -11   92.39   32.50
   4   5 -11   -4.00   35.00
   4   5 -11   -8.30   27.60
   4   5 -11   41.60   25.10
   3   5 -11   79.29   25.90
   3   5 -11  -56.19   29.80
   3   5 -11   42.90   41.70
   2   5 -11  -14.70   31.80
   2   5 -11    3.20   21.90
   2   5 -11   17.00   18.00
   1   5 -11   82.59   26.00
   0   5 -11   31.00   18.90
   0  -5  11  -17.60   20.70
   0  -5  11   47.40   22.30
  -1   5 -11   30.90   21.40
   1  -5  11   20.20   22.00
  -2   5 -11   77.29   22.90
   2  -5  11   89.29   26.10
  -3   5 -11   35.00   23.70
   3  -5  11    5.60   27.20
   3  -5  11    6.80   23.00
   4  -5  11   48.50   28.00
   4  -5  11   16.60   28.60
   5  -5  11  -11.10   30.60
   5  -5  11   28.40   30.30
   5   4 -11   53.69   35.60
   5   4 -11   37.30   29.50
   5   4 -11   36.70   37.40
   4   4 -11   64.99   38.30
   4   4 -11  116.39   36.40
   4   4 -11  114.89   29.30
   3   4 -11   57.89   22.80
   3   4 -11  -48.80   31.70
   3   4 -11  -66.79   26.20
   2   4 -11  147.69   24.80
   2   4 -11  192.28   37.90
   2   4 -11  172.88   28.80
   1   4 -11   74.39   23.10
   1   4 -11  130.19   21.90
   1   4 -11   92.59   17.00
  -1  -4  11  171.88   26.50
   0   4 -11  173.68   20.70
   0   4 -11  189.88   22.60
   0  -4  11  186.08   23.70
   0  -4  11  123.59   23.50
  -1   4 -11   80.99   18.40
  -1   4 -11   92.19   20.00
   1  -4  11   85.59   21.20
   1  -4  11   62.69   18.10
  -2   4 -11  133.29   23.20
   2  -4  11  112.09   25.30
  -3   4 -11   21.70   21.10
   3  -4  11   76.19   24.30
   3  -4  11   30.30   24.30
  -4   4 -11   65.59   25.40
   4  -4  11   57.59   26.10
   4  -4  11   43.10   28.30
  -5   4 -11   17.30   23.10
   5  -4  11   -4.50   24.70
   5  -4  11   -6.10   28.80
   6   3 -11    8.00   31.30
   6   3 -11  -31.20   35.00
   5   3 -11  -12.10   31.10
   5   3 -11   44.30   28.20
   4   3 -11   27.40   29.50
   4   3 -11   24.00   23.00
   4   3 -11    5.60   26.90
   3   3 -11   45.10   20.10
   3   3 -11   -0.50   24.70
   3   3 -11   11.10   23.60
   2   3 -11   98.99   28.00
   2   3 -11   47.30   20.70
   2   3 -11   66.19   19.70
   1   3 -11  139.89   17.40
   1   3 -11  163.18   25.50
   1   3 -11  172.08   22.20
  -1  -3  11  128.49   21.70
   0   3 -11  158.38   19.30
   0   3 -11  165.98   19.80
   0   3 -11  138.79   24.20
   0  -3  11  165.08   20.00
  -1   3 -11  -13.00   12.90
  -1   3 -11    3.60   13.80
   1  -3  11    0.60   15.40
  -2   3 -11    1.30   15.50
   2  -3  11   24.40   20.50
  -3   3 -11   -9.10   17.80
  -3   3 -11  -32.30   17.60
   3  -3  11   21.10   22.30
   3  -3  11  -22.10   17.40
  -4   3 -11   24.90   24.50
  -4   3 -11    9.00   19.10
   4  -3  11   13.00   25.40
   4  -3  11   25.20   22.60
  -5   3 -11    0.50   27.00
  -5   3 -11   28.70   22.90
   5  -3  11   11.20   26.10
   5  -3  11   39.30   30.60
   6   2 -11   33.60   30.30
   6   2 -11   46.60   39.00
   5   2 -11   49.00   33.30
   5   2 -11   -5.20   23.50
   4   2 -11  -15.90   25.70
   4   2 -11   29.50   29.40
   4   2 -11    3.40   21.90
   3   2 -11   14.10   24.70
   3   2 -11   -6.70   23.70
   3   2 -11   21.20   18.30
   2   2 -11   69.99   24.50
   2   2 -11   60.99   19.10
   2   2 -11   62.89   21.30
   1   2 -11   76.69   16.90
   1   2 -11   90.09   13.30
  -1  -2  11  102.99   17.90
   0   2 -11  332.27   25.00
   0   2 -11  327.47   25.90
   0   2 -11  307.07   31.60
   0  -2  11  275.27   25.20
  -1   2 -11  -10.20   13.30
  -1   2 -11   11.10   14.50
   1  -2  11   -7.80   16.10
  -2   2 -11  267.77   28.30
  -2   2 -11  250.47   25.60
   2  -2  11  311.07   30.10
   2  -2  11  239.88   27.30
  -3   2 -11   48.30   16.80
  -3   2 -11   40.70   20.40
   3  -2  11   11.20   17.70
   3  -2  11   94.79   26.00
  -4   2 -11   22.40   19.80
  -4   2 -11   57.49   24.70
   4  -2  11   16.50   25.90
   4  -2  11   31.40   21.80
  -5   2 -11  -10.00   19.00
  -5   2 -11  -38.90   24.10
   5  -2  11   15.10   29.10
   5  -2  11  -34.60   22.70
   6  -2  11  -23.40   27.00
   6  -2  11  -28.10   30.70
   6   1 -11    0.00   29.60
   6   1 -11   32.10   35.80
   5   1 -11   11.50   25.20
   5   1 -11   44.90   30.90
   4   1 -11   35.00   32.90
   4   1 -11   45.70   22.60
   4   1 -11   64.29   28.00
   3   1 -11   24.20   19.10
   3   1 -11  -12.30   19.60
   3   1 -11   50.39   23.60
   2   1 -11  127.59   24.60
   2   1 -11  139.99   26.40
   2   1 -11   98.29   20.20
   1   1 -11  284.07   28.70
   1   1 -11  278.27   24.80
   1   1 -11  274.07   29.10
   1   1 -11  242.78   20.40
   0   1 -11   49.40   13.90
   0   1 -11   67.89   12.80
   0   1 -11   85.59   18.30
   0   1 -11   57.09   12.30
   0   1 -11   77.69   15.90
   0  -1  11   41.40   12.40
  -1   1 -11  812.32   41.20
  -1   1 -11  771.82   40.80
  -1   1 -11  782.72   45.10
   1  -1  11  827.62   45.10
  -2   1 -11   26.50   18.30
  -2   1 -11   37.90   16.10
   2  -1  11   49.30   20.80
   2  -1  11   15.70   14.50
  -3   1 -11  212.98   25.40
  -3   1 -11  201.58   28.60
   3  -1  11  191.78   25.80
   3  -1  11  222.38   31.60
  -4   1 -11   14.60   17.80
  -4   1 -11   41.20   22.90
   4  -1  11   13.90   25.50
   4  -1  11   14.80   19.30
  -5   1 -11   -5.90   19.10
  -5   1 -11    1.70   24.70
   5  -1  11   40.10   24.30
   5  -1  11  -15.50   28.10
   6  -1  11   -8.20   26.70
   6  -1  11    2.20   31.70
   6   0 -11   33.90   29.20
   6   0 -11  -15.00   30.90
   5   0 -11   22.80   31.00
   5   0 -11  -18.30   19.20
   5   0 -11   48.50   26.30
   4   0 -11   -6.30   20.10
   4   0 -11    6.10   24.10
   4   0 -11   23.20   17.40
   4   0 -11   14.50   29.20
   3   0 -11   47.20   19.30
   3   0 -11   59.29   22.50
   3   0 -11   78.39   27.30
   2   0 -11  101.49   20.20
   2   0 -11  105.09   20.90
   2   0 -11  105.69   24.40
   1   0 -11  141.69   16.40
   1   0 -11  177.68   20.70
   1   0 -11  187.28   24.80
   1   0 -11  138.29   15.70
   1   0 -11  187.18   18.90
  -1   0  11  145.49   16.10
   0   0 -11   14.30   11.50
   0   0 -11   33.40   12.00
   0   0 -11   31.60   14.80
   0   0 -11   21.70   11.30
   0   0 -11   31.30   10.00
   0   0  11    0.20   12.40
  -1   0 -11    3.00   12.40
  -1   0 -11   -3.80   13.20
  -1   0 -11   -3.90   10.30
  -1   0 -11  -13.50   14.30
   1   0  11   19.50   15.30
  -2   0 -11   40.00   16.50
  -2   0 -11   52.89   15.80
   2   0  11    8.50   12.20
   2   0  11   20.10   20.50
  -3   0 -11   28.80   19.60
  -3   0 -11   36.20   17.20
   3   0  11   23.40   26.10
   3   0  11    5.60   15.50
   3   0  11   59.79   24.40
  -4   0 -11  105.69   21.40
  -4   0 -11  157.48   27.40
   4   0  11   88.49   36.50
   4   0  11   67.79   29.20
   4   0  11   76.79   23.00
  -5   0 -11   46.90   25.60
  -5   0 -11  -16.50   17.70
   5   0  11    2.60   31.20
   5   0  11    6.40   22.80
   6   0  11   40.00   28.70
   6   0  11   33.40   35.00
   6  -1 -11   27.60   34.70
   6  -1 -11  -24.30   26.70
   6  -1 -11    6.00   24.20
   5  -1 -11  -12.80   18.60
   5  -1 -11    2.90   27.30
   5  -1 -11   12.20   23.30
   5  -1 -11   -7.00   29.90
   4  -1 -11  184.68   34.40
   4  -1 -11   44.00   17.70
   4  -1 -11   25.30   26.30
   4  -1 -11    7.90   21.50
   4  -1 -11   31.30   30.10
   3  -1 -11   45.90   26.70
   3  -1 -11   29.60   19.50
   3  -1 -11   60.49   23.30
   2  -1 -11  124.99   21.90
   2  -1 -11  167.78   22.70
   2  -1 -11  117.49   25.20
   1  -1 -11  162.18   17.90
   1  -1 -11  174.18   18.20
   1  -1 -11  167.38   20.00
   1  -1 -11  171.68   23.90
   0  -1 -11   93.39   15.30
   0  -1 -11   73.79   16.90
   0  -1 -11   45.40   14.50
   0  -1 -11   54.39   11.50
   0   1  11   74.09   15.50
  -1  -1 -11   16.80   12.40
  -1  -1 -11   23.90   13.60
  -1  -1 -11   16.00   15.40
  -2  -1 -11   -3.70   14.00
  -2  -1 -11   11.50   13.70
   2   1  11   13.50   12.30
   2   1  11   20.40   19.90
   2   1  11    4.20   20.20
  -3  -1 -11  143.79   21.20
  -3  -1 -11  142.69   23.80
   3   1  11   97.99   20.20
   3   1  11  154.38   33.00
   3   1  11  122.69   29.40
  -4  -1 -11  -20.30   16.50
  -4  -1 -11    7.70   22.00
   4   1  11    2.70   19.50
   4   1  11    7.20   32.60
   4   1  11  -13.40   27.20
  -5  -1 -11  162.08   32.90
   5   1  11   94.09   38.20
   5   1  11   52.49   26.10
   5   1  11  207.58   53.69
  -6  -1 -11   17.80   26.00
   6   1  11   23.20   30.60
   6  -2 -11   16.30   27.30
   6  -2 -11   -5.80   31.00
   5  -2 -11    9.30   27.40
   5  -2 -11   16.70   24.40
   5  -2 -11   31.30   20.50
   4  -2 -11   45.30   24.60
   4  -2 -11   22.10   21.50
   4  -2 -11   63.89   31.80
   4  -2 -11   27.90   17.20
   4  -2 -11   35.20   24.20
   3  -2 -11   39.10   19.10
   3  -2 -11   19.40   24.30
   3  -2 -11   -0.50   17.80
   3  -2 -11    9.80   20.00
   2  -2 -11  399.36   33.00
   2  -2 -11  435.16   30.20
   2  -2 -11  422.86   30.70
   2  -2 -11  393.56   40.60
   2  -2 -11  450.15   28.60
   2  -2 -11  408.96   36.20
   1  -2 -11   72.99   15.90
   1  -2 -11   87.19   20.70
   1  -2 -11   78.69   16.40
   1  -2 -11   74.09   18.10
  -1   2  11   51.19   15.40
   0  -2 -11  722.83   38.70
   0  -2 -11  628.94   36.40
   0  -2 -11  637.34   40.90
   0   2  11  642.44   36.80
  -1  -2 -11   11.20   14.50
  -1  -2 -11   15.50   13.40
   1   2  11    5.50   14.50
  -2  -2 -11  101.79   19.50
  -2  -2 -11  104.59   18.40
   2   2  11  133.49   27.50
   2   2  11   97.19   16.40
  -3  -2 -11  127.29   23.30
  -3  -2 -11  124.29   21.60
   3   2  11  118.99   36.20
   3   2  11  113.69   21.50
  -4  -2 -11    1.30   17.20
  -4  -2 -11  -32.20   19.80
   4   2  11    3.10   34.60
   4   2  11    5.80   20.30
  -5  -2 -11   59.69   27.20
   5   2  11    3.10   44.10
   5   2  11   28.80   27.10
   6  -3 -11   -7.60   25.90
   6  -3 -11  -13.10   21.70
   5  -3 -11    9.20   23.80
   5  -3 -11  -54.19   24.40
   5  -3 -11  -25.30   18.50
   4  -3 -11   10.50   21.00
   4  -3 -11    7.20   28.20
   4  -3 -11   19.30   17.80
   4  -3 -11   53.59   22.30
   3  -3 -11  -16.90   14.70
   3  -3 -11    4.00   18.60
   3  -3 -11   11.60   15.20
   3  -3 -11    4.60   23.70
   2  -3 -11  175.38   23.50
   2  -3 -11  166.68   20.10
   2  -3 -11  185.18   26.40
   2  -3 -11  218.78   31.80
   2  -3 -11  239.08   22.00
   2  -3 -11  221.28   23.70
   1  -3 -11   16.40   16.10
   1  -3 -11   -5.90   14.20
   1  -3 -11   15.20   17.00
   0  -3 -11  133.19   19.20
   0  -3 -11  138.79   20.50
   0  -3 -11  137.09   19.80
   0   3  11  156.28   21.10
  -1  -3 -11 1282.27   59.89
  -1  -3 -11 1255.07   63.09
   1   3  11 1302.27   78.89
  -2  -3 -11    5.10   15.10
  -2  -3 -11    5.50   15.70
   2   3  11    1.20   21.20
  -3  -3 -11   25.90   19.50
  -3  -3 -11   -2.80   17.30
   3   3  11   -1.20   29.30
   3   3  11   20.10   18.80
  -4  -3 -11  -15.50   21.90
  -4  -3 -11   18.80   20.00
   4   3  11    7.30   23.90
   4   3  11   32.40   39.10
  -5  -3 -11   58.19   26.30
   5   3  11  -23.60   30.80
   6  -4 -11   41.80   26.00
   5  -4 -11  -12.40   21.20
   4  -4 -11    3.40   18.90
   4  -4 -11   15.10   30.10
   4  -4 -11    3.10   21.60
   3  -4 -11   54.59   18.60
   3  -4 -11   39.60   27.90
   3  -4 -11   18.00   19.90
   2  -4 -11   32.00   18.90
   2  -4 -11   20.90   12.70
   2  -4 -11   19.10   21.60
   2  -4 -11   49.50   19.10
   1  -4 -11   41.60   20.20
   1  -4 -11   17.30   17.40
   1  -4 -11   29.00   16.70
  -1   4  11   26.80   17.00
   0  -4 -11  148.09   23.30
   0  -4 -11  151.48   21.20
   0   4  11  125.79   22.20
  -1  -4 -11   64.29   19.20
  -1  -4 -11   55.89   18.10
   1   4  11   49.99   19.60
  -2  -4 -11  413.86   34.00
  -2  -4 -11  450.95   37.10
   2   4  11  429.96   44.00
  -3  -4 -11   33.90   20.90
  -3  -4 -11   49.70   20.00
   3   4  11   -3.00   31.70
  -4  -4 -11   21.40   22.40
  -4  -4 -11    4.80   20.00
   4   4  11   15.90   41.90
  -5  -4 -11   26.10   25.90
   5  -5 -11   56.59   27.00
   4  -5 -11   -1.10   22.40
   3  -5 -11  182.88   36.30
   3  -5 -11  151.68   28.30
   3  -5 -11  157.08   24.80
   2  -5 -11  176.18   27.30
   2  -5 -11  135.99   19.00
   2  -5 -11  130.99   31.00
   2  -5 -11  138.89   26.70
   1  -5 -11   69.79   21.80
   1  -5 -11   36.90   21.30
  -1   5  11   65.39   19.60
   0  -5 -11    2.40   16.50
   0  -5 -11   -0.30   19.40
   0   5  11   26.00   18.10
  -1  -5 -11   83.49   20.10
  -1  -5 -11   70.09   21.30
   1   5  11  125.09   24.20
  -2  -5 -11   30.30   19.50
  -2  -5 -11   18.00   19.50
   2   5  11   52.79   29.80
   2   5  11   14.60   14.00
  -3  -5 -11  167.38   30.40
  -3  -5 -11  168.18   27.20
   3   5  11  193.78   44.90
  -4  -5 -11   52.39   24.20
  -4  -5 -11   20.00   25.70
   4   5  11   34.40   42.30
  -5  -5 -11   -0.90   26.60
   5  -6 -11  -38.70   26.80
   4  -6 -11   -0.70   25.70
   3  -6 -11   -8.30   26.50
   3  -6 -11  -10.90   28.50
   2  -6 -11  570.94   52.89
   2  -6 -11  500.05   48.00
   1  -6 -11   62.09   23.60
   1  -6 -11   90.49   25.40
   0  -6 -11   19.10   20.40
  -1  -6 -11   54.99   22.40
  -1  -6 -11   21.20   19.50
   1   6  11   12.60   25.30
  -2  -6 -11   31.90   22.70
  -2  -6 -11   41.50   25.60
   2   6  11   32.90   33.00
  -3  -6 -11  -18.40   23.20
  -3  -6 -11   13.20   23.40
   3   6  11  -44.80   34.40
  -4  -6 -11    4.60   26.40
   5  -7 -11    1.60   30.80
   4  -7 -11   81.19   33.10
   3  -7 -11   31.50   30.50
   3  -7 -11   69.59   33.80
   2  -7 -11    3.00   35.40
   2  -7 -11  -18.50   24.30
   1  -7 -11  153.38   30.90
   0  -7 -11  -30.10   21.40
  -1  -7 -11   43.70   25.70
   1   7  11   -4.90   37.00
  -2  -7 -11   34.50   27.20
   2   7  11  -27.30   33.80
  -3  -7 -11  -13.80   26.20
  -4  -7 -11  -26.20   27.80
   4  -8 -11   16.90   35.00
   3  -8 -11   19.80   31.70
   2  -8 -11   13.10   32.50
   0  -8 -11   -0.60   23.60
  -1  -8 -11  -11.40   24.30
   1   8  11  -16.60   36.70
  -2  -8 -11   21.20   27.60
   2   8  11   27.50   37.20
   3  -9 -11   -6.40   35.50
   2  -9 -11  -15.50   36.40
  -1  -9 -11  -10.40   27.60
   1   9  11   -1.30   50.89
   2 -10 -11  -30.00   41.20
   2  10 -12   92.79   76.09
   2  10 -12  -10.70   31.30
   3   9 -12   -8.70   51.69
   3   9 -12  -57.49   26.50
   2   9 -12  126.89   73.39
   2   9 -12   21.30   30.00
   2  -9  12   -2.90   31.10
   3  -9  12   33.60   33.20
   3  -9  12    3.00   34.30
   4   8 -12  -18.50   33.00
   4   8 -12   14.50   33.70
   4   8 -12   10.70   50.19
   3   8 -12    6.60   26.10
   3   8 -12  -25.40   36.70
   3   8 -12   14.10   50.79
   2   8 -12    7.60   25.80
   2   8 -12  -14.90   29.50
   2   8 -12   40.20   54.09
   0  -8  12   20.00   30.60
   1  -8  12  -10.80   26.40
   2  -8  12   -6.30   29.80
   3  -8  12  -12.80   28.10
   4  -8  12   24.90   31.90
   4  -8  12   60.29   39.20
   4   7 -12   27.00   40.40
   4   7 -12   -5.70   31.40
   4   7 -12  -50.69   26.10
   3   7 -12   28.40   24.50
   3   7 -12   10.00   39.50
   3   7 -12  -28.70   26.60
   0  -7  12    3.80   27.00
   1  -7  12  -15.00   25.00
   2  -7  12  -22.20   26.90
   3  -7  12   23.80   28.40
   3  -7  12   60.29   32.20
   4  -7  12   18.30   32.30
   4  -7  12  -21.30   30.10
   5   6 -12  -24.60   30.10
   5   6 -12   50.69   31.20
   5   6 -12   -2.30   40.90
   4   6 -12   -3.60   26.90
   4   6 -12   31.90   31.90
   4   6 -12   76.29   38.80
   3   6 -12    7.20   30.80
   3   6 -12  -17.40   41.10
   3   6 -12   55.69   24.70
   2   6 -12   61.89   23.20
   2   6 -12  107.39   32.80
   2   6 -12   83.69   46.80
   1   6 -12   57.49   32.00
   0  -6  12  239.28   34.10
   1  -6  12  196.38   30.50
  -2   6 -12   27.90   22.10
   2  -6  12   14.70   24.80
   3  -6  12   24.30   27.40
   3  -6  12  -11.70   26.80
   4  -6  12   23.40   30.50
   4  -6  12   -6.00   26.80
   5  -6  12  -20.50   31.70
   5  -6  12   10.80   35.10
   5   5 -12   25.40   35.20
   5   5 -12    8.60   39.10
   5   5 -12   26.90   29.10
   4   5 -12   47.70   32.40
   4   5 -12   15.40   24.80
   4   5 -12    1.20   33.40
   3   5 -12  -28.20   24.20
   3   5 -12   32.90   24.00
   3   5 -12   -1.80   33.40
   2   5 -12   62.19   24.80
   2   5 -12  103.99   39.30
   2   5 -12   70.79   22.10
   1   5 -12   40.60   17.10
   1   5 -12   55.19   25.00
  -1  -5  12   35.60   25.10
   0   5 -12   24.80   17.30
   0  -5  12   -2.30   19.80
   0  -5  12   10.90   21.60
  -1   5 -12  169.68   25.90
   1  -5  12  157.98   27.60
  -2   5 -12   80.29   21.90
   2  -5  12   23.10   22.80
  -3   5 -12   54.99   25.60
   3  -5  12   31.10   27.80
   3  -5  12   41.80   27.40
   4  -5  12   27.10   26.10
   4  -5  12  -29.90   25.30
   5  -5  12    2.60   30.20
   5  -5  12   -4.60   33.30
   5   4 -12   17.30   37.30
   5   4 -12   18.60   35.50
   5   4 -12   30.30   28.60
   4   4 -12  202.78   46.80
   4   4 -12  222.98   40.90
   4   4 -12  253.97   36.70
   3   4 -12    2.60   28.20
   3   4 -12   54.99   24.00
   3   4 -12   72.19   29.80
   2   4 -12  164.18   38.40
   2   4 -12   85.79   25.60
   2   4 -12  108.49   22.80
   1   4 -12   68.59   19.30
   1   4 -12  123.39   18.70
   1   4 -12  139.59   27.40
  -1  -4  12  193.38   26.70
   0   4 -12   10.10   15.10
   0   4 -12   26.50   16.40
   0  -4  12   30.30   17.30
   0  -4  12  -23.60   17.40
  -1   4 -12   91.99   19.40
  -1   4 -12   73.89   18.90
   1  -4  12   95.89   21.70
   1  -4  12   58.29   21.70
  -2   4 -12   98.59   22.20
   2  -4  12   75.49   25.20
  -3   4 -12   20.70   20.50
   3  -4  12  -17.10   20.90
   3  -4  12    0.70   22.00
  -4   4 -12   22.00   27.30
  -4   4 -12   31.40   23.90
   4  -4  12   55.69   27.70
   4  -4  12   64.69   29.20
  -5   4 -12   -7.40   21.60
   5  -4  12   43.60   28.90
   5  -4  12    8.70   30.90
   6   3 -12   -8.40   31.30
   6   3 -12   -8.70   38.60
   5   3 -12  -41.40   28.40
   5   3 -12   32.50   28.80
   4   3 -12   -3.10   27.70
   4   3 -12    4.00   28.70
   4   3 -12   24.90   23.40
   3   3 -12  225.68   38.00
   3   3 -12  262.57   37.30
   3   3 -12  245.48   32.10
   2   3 -12   37.70   18.80
   2   3 -12   26.50   20.10
   2   3 -12   17.60   23.40
   1   3 -12  136.29   20.30
   1   3 -12   93.29   24.00
   1   3 -12  119.09   17.10
  -1  -3  12  131.19   21.60
   0   3 -12   80.19   16.80
   0   3 -12   59.59   20.60
   0   3 -12   85.29   17.20
   0  -3  12   70.29   17.50
   0  -3  12   28.30   16.30
  -1   3 -12   25.50   14.70
  -1   3 -12   16.70   14.70
   1  -3  12    3.10   16.60
   1  -3  12   29.00   17.90
  -2   3 -12   45.40   17.90
   2  -3  12   61.49   22.60
  -3   3 -12   97.69   22.00
  -3   3 -12   28.20   23.20
   3  -3  12   52.99   24.70
   3  -3  12   78.79   24.30
  -4   3 -12   36.80   20.60
  -4   3 -12   59.29   26.30
   4  -3  12   41.30   27.20
   4  -3  12   68.59   26.70
  -5   3 -12  -10.30   28.10
  -5   3 -12  -13.70   22.40
   5  -3  12   37.40   26.70
   5  -3  12   33.40   30.90
   6   2 -12  -17.90   28.60
   6   2 -12  -28.40   33.30
   5   2 -12   18.60   26.30
   5   2 -12  -26.80   28.40
   4   2 -12  -15.50   26.40
   4   2 -12    5.60   23.00
   4   2 -12   -2.30   28.90
   3   2 -12    3.40   24.60
   3   2 -12    1.20   21.10
   3   2 -12   26.00   18.90
   2   2 -12   60.69   19.60
   2   2 -12   55.69   20.50
   2   2 -12   53.29   21.80
   1   2 -12   10.90   11.10
   1   2 -12   10.60   16.40
   1   2 -12   17.20   13.90
  -1  -2  12   -1.80   14.30
   0   2 -12   12.60   14.90
   0   2 -12   10.30   22.00
   0   2 -12   43.30   14.40
   0   2 -12   19.90   13.20
   0   2 -12   50.09   14.70
   0  -2  12   23.70   13.90
  -1   2 -12    0.60   13.00
  -1   2 -12   20.90   15.10
   1  -2  12    5.90   15.50
  -2   2 -12  107.59   19.10
  -2   2 -12   91.69   20.60
   2  -2  12   73.29   19.50
   2  -2  12  100.59   22.60
  -3   2 -12   34.50   17.20
  -3   2 -12   15.60   19.90
   3  -2  12   32.30   23.90
   3  -2  12   36.40   18.30
  -4   2 -12    8.40   24.40
  -4   2 -12  -10.40   18.50
   4  -2  12  -21.20   24.60
   4  -2  12  -10.30   19.80
  -5   2 -12   18.80   21.70
  -5   2 -12   57.49   29.60
   5  -2  12    4.60   25.00
   5  -2  12   -9.70   27.80
   6   1 -12   11.60   30.60
   6   1 -12    1.70   37.80
   5   1 -12   23.60   28.40
   5   1 -12   19.60   26.00
   4   1 -12  -10.40   27.10
   4   1 -12   12.30   24.80
   4   1 -12   15.80   21.60
   3   1 -12   -9.60   20.50
   3   1 -12  -12.30   21.60
   3   1 -12   21.80   18.80
   2   1 -12  113.99   22.30
   2   1 -12  104.39   20.70
   2   1 -12  100.89   24.70
   0   1 -12   34.30   13.80
   0   1 -12   48.10   11.80
   0   1 -12   54.99   14.10
   0   1 -12   38.10   17.30
   0  -1  12   44.20   12.90
  -1   1 -12  640.64   42.40
  -1   1 -12  636.34   35.00
  -1   1 -12  613.94   38.80
  -1   1 -12  524.75   35.20
   1  -1  12  635.14   38.00
  -2   1 -12   89.29   18.70
  -2   1 -12   75.69   20.00
   2  -1  12   55.89   21.70
   2  -1  12   68.09   17.10
  -3   1 -12   77.59   20.00
  -3   1 -12   45.00   21.50
   3  -1  12   49.90   25.50
   3  -1  12   72.09   19.60
  -4   1 -12   28.60   18.90
  -4   1 -12   43.60   23.90
   4  -1  12   45.10   22.40
   4  -1  12   -0.10   26.40
  -5   1 -12   39.60   21.00
  -5   1 -12   11.70   25.20
   5  -1  12   24.50   25.50
   5  -1  12   18.10   30.10
   6  -1  12   -4.20   27.50
   6   0 -12   24.70   29.80
   6   0 -12   -1.90   33.10
   5   0 -12    2.50   30.70
   5   0 -12  -18.20   22.80
   5   0 -12  -39.20   20.00
   4   0 -12   24.70   23.40
   4   0 -12   26.50   16.70
   4   0 -12   14.80   20.50
   4   0 -12   22.10   28.00
   3   0 -12   53.79   21.40
   3   0 -12   14.70   24.80
   3   0 -12   11.80   17.50
   2   0 -12   35.80   17.90
   2   0 -12   54.49   18.00
   2   0 -12   80.59   23.20
   1   0 -12   90.39   24.70
   1   0 -12  138.09   18.80
   1   0 -12   95.19   15.40
   1   0 -12  116.89   15.40
   0   0 -12   70.59   13.80
   0   0 -12   96.59   18.20
   0   0 -12   48.70   11.80
   0   0 -12   83.99   14.60
   0   0 -12   57.69   14.40
   0   0  12   61.39   15.10
  -1   0 -12   19.90   14.30
  -1   0 -12   40.50   15.40
  -1   0 -12   58.99   18.70
   1   0  12   17.20   16.40
  -2   0 -12    9.60   14.20
  -2   0 -12   27.90   17.20
   2   0  12   31.60   13.50
   2   0  12   55.59   21.30
  -3   0 -12   87.79   23.20
  -3   0 -12  134.39   23.00
   3   0  12   79.19   27.50
   3   0  12   97.29   21.00
  -4   0 -12   44.20   23.30
  -4   0 -12   51.09   19.60
   4   0  12   10.00   19.60
   4   0  12   36.50   28.20
  -5   0 -12   -8.50   18.50
  -5   0 -12   22.70   25.50
   5   0  12   74.09   28.20
   5   0  12   -7.20   30.90
   6   0  12   13.60   27.70
   6  -1 -12   27.60   29.30
   6  -1 -12   -7.10   32.10
   5  -1 -12   -0.50   23.70
   5  -1 -12    0.80   18.90
   5  -1 -12   -7.50   33.90
   5  -1 -12   56.29   31.00
   4  -1 -12   -3.40   23.00
   4  -1 -12   16.10   29.80
   4  -1 -12  -16.00   14.80
   4  -1 -12   10.10   22.20
   3  -1 -12   43.20   25.30
   3  -1 -12   21.90   19.20
   3  -1 -12   -7.10   20.20
   2  -1 -12  141.99   22.70
   2  -1 -12  179.58   18.70
   2  -1 -12  161.58   27.70
   2  -1 -12  181.88   24.60
   1  -1 -12  136.79   18.80
   1  -1 -12  160.38   18.90
   1  -1 -12  124.49   17.00
   1  -1 -12   53.99   21.10
   0  -1 -12   31.60   10.60
   0  -1 -12   25.00   16.90
   0  -1 -12   30.50   13.90
   0  -1 -12   44.00   14.10
  -1  -1 -12  127.09   18.60
  -1  -1 -12  152.58   19.30
   1   1  12  144.89   14.00
  -2  -1 -12  -15.20   15.30
  -2  -1 -12    5.30   14.00
   2   1  12   -1.70   19.70
   2   1  12    5.40   12.10
   2   1  12   -2.90   20.40
  -3  -1 -12  121.99   23.50
  -3  -1 -12  129.69   22.30
   3   1  12  127.79   22.30
   3   1  12  122.69   35.50
   3   1  12  107.19   29.70
  -4  -1 -12  -10.50   20.80
  -4  -1 -12  -22.40   17.60
   4   1  12   43.60   35.90
   4   1  12    8.80   28.10
   4   1  12  -18.50   18.40
  -5  -1 -12   56.79   28.50
   5   1  12   56.19   36.50
   5   1  12   78.09   27.80
   5   1  12   96.69   48.10
   6  -2 -12   16.50   32.20
   6  -2 -12    5.50   26.80
   5  -2 -12   12.80   20.10
   5  -2 -12   21.00   24.20
   5  -2 -12   25.70   29.00
   4  -2 -12    1.60   21.20
   4  -2 -12    5.60   22.80
   4  -2 -12   -6.30   29.10
   4  -2 -12   31.60   17.10
   4  -2 -12    3.30   23.70
   3  -2 -12    4.30   18.10
   3  -2 -12    5.90   17.70
   3  -2 -12    7.60   24.30
   3  -2 -12    5.50   18.60
   2  -2 -12  170.98   23.10
   2  -2 -12  179.48   24.90
   2  -2 -12  205.78   22.00
   2  -2 -12  165.68   20.60
   2  -2 -12  225.68   30.30
   1  -2 -12  187.48   21.10
   1  -2 -12  177.78   20.00
   1  -2 -12  160.88   21.00
   1  -2 -12  163.08   25.10
   0  -2 -12  101.79   18.70
   0  -2 -12   53.39   15.60
   0  -2 -12   88.79   17.00
   0   2  12   58.49   15.70
  -1  -2 -12  210.88   24.10
  -1  -2 -12  246.58   23.90
  -2  -2 -12   84.79   18.40
  -2  -2 -12   92.09   19.90
   2   2  12   98.09   26.40
  -3  -2 -12  140.69   22.20
  -3  -2 -12  132.19   24.60
   3   2  12  145.09   23.40
   3   2  12  159.18   38.10
  -4  -2 -12    5.00   18.70
  -4  -2 -12   -2.80   22.10
   4   2  12   10.80   21.00
   4   2  12   11.00   38.20
  -5  -2 -12   44.60   28.00
   5   2  12  -16.90   24.30
   6  -3 -12   54.59   31.10
   6  -3 -12   10.90   22.60
   5  -3 -12   22.30   24.70
   5  -3 -12    1.00   19.50
   4  -3 -12   35.50   23.60
   4  -3 -12    3.10   27.70
   4  -3 -12   33.50   23.20
   4  -3 -12   20.00   17.20
   3  -3 -12   83.69   18.80
   3  -3 -12   77.59   20.90
   3  -3 -12   62.79   28.90
   3  -3 -12   68.99   23.00
   2  -3 -12   83.09   18.20
   2  -3 -12  133.89   22.90
   2  -3 -12  127.49   21.00
   2  -3 -12  112.59   27.00
   2  -3 -12  150.58   21.00
   1  -3 -12   14.00   18.20
   1  -3 -12   26.80   17.00
   1  -3 -12   57.09   16.90
   0  -3 -12  191.58   24.10
   0  -3 -12  253.97   24.70
   0   3  12  231.68   24.40
  -1  -3 -12  110.89   19.80
  -1  -3 -12  103.89   20.20
   1   3  12  116.09   19.80
  -2  -3 -12   28.00   16.90
  -2  -3 -12   31.30   18.10
   2   3  12  -11.80   22.50
  -3  -3 -12   32.80   21.00
  -3  -3 -12   45.00   19.40
   3   3  12   49.70   33.00
   3   3  12   35.70   19.00
  -4  -3 -12   12.00   23.40
  -4  -3 -12  -13.50   19.40
   4   3  12  -34.40   22.70
   4   3  12  -19.20   37.90
  -5  -3 -12   72.49   28.90
   5   3  12    1.00   30.90
   5   3  12   60.99   51.59
   6  -4 -12    2.70   26.40
   5  -4 -12   12.70   21.20
   4  -4 -12    9.00   21.70
   4  -4 -12    7.10   21.90
   4  -4 -12   47.90   33.60
   4  -4 -12   -7.80   18.70
   3  -4 -12   86.69   20.60
   3  -4 -12   44.60   26.80
   3  -4 -12   53.79   19.70
   2  -4 -12   41.30   22.40
   2  -4 -12   27.20   17.60
   2  -4 -12   18.10   19.20
   2  -4 -12   11.50   12.40
   1  -4 -12   34.90   19.80
   1  -4 -12   36.30   17.90
   1  -4 -12   72.29   20.30
  -1   4  12   42.60   18.40
   0  -4 -12  218.58   25.40
   0  -4 -12  248.38   28.10
   0   4  12  204.28   25.80
  -1  -4 -12   24.90   17.70
  -1  -4 -12   38.10   17.20
   1   4  12    8.00   18.80
  -2  -4 -12  318.87   32.30
  -2  -4 -12  350.36   32.50
   2   4  12  349.07   42.30
  -3  -4 -12   20.40   19.10
  -3  -4 -12   23.40   20.10
   3   4  12   18.50   31.60
  -4  -4 -12   -3.90   20.50
  -4  -4 -12   -6.30   23.50
   4   4  12    6.80   44.80
  -5  -4 -12    5.60   26.50
   5  -5 -12    3.20   22.50
   4  -5 -12   48.50   26.00
   4  -5 -12   66.19   34.40
   3  -5 -12   82.59   30.80
   3  -5 -12   69.39   21.20
   3  -5 -12   73.89   24.10
   2  -5 -12  457.35   42.20
   2  -5 -12  455.95   49.30
   2  -5 -12  512.45   42.60
   1  -5 -12   78.59   22.20
   1  -5 -12  103.19   24.40
   1  -5 -12   90.99   23.00
   0  -5 -12   16.60   19.30
   0  -5 -12    5.60   16.90
   0   5  12   -4.20   18.10
  -1  -5 -12   44.70   21.00
  -1  -5 -12   64.79   20.40
   1   5  12  126.79   25.60
  -2  -5 -12    6.10   19.70
  -2  -5 -12   10.30   19.00
   2   5  12   11.70   13.10
   2   5  12   19.70   28.00
  -3  -5 -12  195.48   33.60
  -3  -5 -12  160.68   28.30
   3   5  12  237.88   47.30
  -4  -5 -12  -21.30   24.10
  -4  -5 -12   -7.10   22.50
  -5  -5 -12   19.10   29.30
   5  -6 -12   43.60   28.40
   4  -6 -12   30.30   28.50
   3  -6 -12   28.50   27.50
   2  -6 -12   50.89   27.30
   2  -6 -12   44.60   27.50
   1  -6 -12  121.59   27.40
   1  -6 -12  100.99   26.90
   0  -6 -12   -4.20   19.60
   0  -6 -12  -20.70   19.70
  -1  -6 -12   40.30   20.80
  -1  -6 -12   92.29   27.40
   1   6  12   54.89   29.60
  -2  -6 -12  109.79   26.60
  -2  -6 -12  152.08   30.60
   2   6  12   23.30   35.30
  -3  -6 -12   19.30   26.20
  -3  -6 -12   -4.70   22.60
   3   6  12    0.80   37.10
  -4  -6 -12    9.50   27.30
  -4  -6 -12  -12.40   23.60
   5  -7 -12  -10.20   32.20
   4  -7 -12   12.40   28.40
   3  -7 -12   89.79   32.90
   2  -7 -12   29.90   30.30
   2  -7 -12   11.90   26.90
   1  -7 -12   93.99   27.70
   0  -7 -12    1.70   22.10
   0   7  12  -52.79   41.80
  -1  -7 -12   70.79   27.00
  -2  -7 -12    8.40   27.00
  -3  -7 -12   45.10   30.30
  -4  -7 -12   15.20   31.60
   4  -8 -12   10.90   34.00
   3  -8 -12   17.50   32.80
   2  -8 -12    0.30   32.20
   1  -8 -12   25.20   26.40
   0  -8 -12   15.60   24.60
   0   8  12   92.89   56.59
  -1  -8 -12   36.30   28.70
  -2  -8 -12  -39.80   26.60
   2   8  12    2.70   36.40
  -3  -8 -12    8.60   31.00
   3  -9 -12  -18.40   34.20
   2  -9 -12    3.30   35.70
   2 -10 -12  -94.79   38.70
   2  10 -13  365.66   97.69
   2  10 -13   17.70   33.30
   3   9 -13  -14.20   27.00
   3   9 -13   -8.30   56.39
   2   9 -13  168.38   76.99
   1  -9  13  -27.60   30.10
   2  -9  13  -15.00   30.10
   3  -9  13    6.40   33.80
   3  -9  13  -18.60   34.80
   4   8 -13  -40.60   37.10
   4   8 -13  -19.10   29.50
   3   8 -13   43.80   56.79
   3   8 -13   12.50   25.90
   3   8 -13  -55.89   35.00
   2   8 -13  -35.40   51.49
   2   8 -13  -12.70   24.00
   0  -8  13   22.60   29.50
   1  -8  13   42.50   31.30
   2  -8  13   32.60   33.90
   3  -8  13  -19.10   29.00
   3  -8  13   30.50   34.40
   4  -8  13  -10.30   29.50
   4   7 -13   34.50   35.20
   4   7 -13   -8.70   26.80
   4   7 -13   -0.40   37.10
   3   7 -13   21.50   40.60
   3   7 -13    7.00   24.70
   3   7 -13   17.60   30.50
   2   7 -13   30.80   24.70
   2   7 -13  -11.80   30.70
   1   7 -13  150.28   36.70
   0  -7  13   -2.00   26.80
   1  -7  13  -16.00   28.20
   2  -7  13   10.70   27.40
   3  -7  13   12.40   31.30
   3  -7  13   70.49   32.20
   4  -7  13   42.80   35.50
   4  -7  13   50.79   33.00
   5   6 -13  -53.19   38.40
   5   6 -13   40.80   31.40
   5   6 -13  -40.90   31.30
   4   6 -13   40.60   37.30
   4   6 -13   49.80   35.90
   4   6 -13   47.00   29.80
   3   6 -13   31.50   24.60
   3   6 -13  -37.10   28.80
   3   6 -13   67.89   44.50
   2   6 -13  177.38   53.69
   2   6 -13    0.60   29.90
   2   6 -13   32.00   22.30
   1   6 -13   64.09   31.70
   0  -6  13  138.09   27.90
   1  -6  13  201.58   31.30
  -2   6 -13  -43.80   20.00
   2  -6  13   -0.60   25.00
  -3   6 -13   -0.20   25.80
   3  -6  13   46.30   30.10
   3  -6  13   13.50   28.90
   4  -6  13   18.20   30.00
   4  -6  13  -30.00   24.90
   5  -6  13   -7.40   31.50
   5   5 -13   53.79   32.40
   5   5 -13   22.10   36.50
   5   5 -13   53.19   41.00
   4   5 -13    5.80   31.00
   4   5 -13   37.60   25.00
   4   5 -13   21.10   32.20
   3   5 -13   32.70   32.30
   3   5 -13  -18.30   21.50
   3   5 -13   19.90   25.00
   2   5 -13   50.89   29.20
   2   5 -13  229.08   52.19
   2   5 -13   97.09   24.30
   1   5 -13    8.90   15.70
   1   5 -13    0.60   18.50
   1   5 -13   74.49   25.20
  -1  -5  13    8.80   23.30
   0   5 -13   46.00   18.40
   0   5 -13   67.69   21.00
   0  -5  13   48.40   19.70
   0  -5  13   26.40   22.70
  -1   5 -13  254.27   29.10
   1  -5  13  193.58   28.90
  -2   5 -13   11.30   20.20
   2  -5  13    7.30   23.00
   3  -5  13   79.19   29.70
   3  -5  13   49.30   28.70
   4  -5  13    7.00   26.40
   4  -5  13   11.90   27.50
   5  -5  13   -2.30   31.30
   5  -5  13  -44.00   30.60
   5   4 -13  -29.50   33.70
   5   4 -13   24.00   29.10
   5   4 -13   46.60   35.20
   4   4 -13  284.87   39.20
   4   4 -13  315.77   47.60
   4   4 -13  233.68   48.30
   3   4 -13   68.89   29.80
   3   4 -13   38.00   29.50
   3   4 -13   74.49   25.50
   2   4 -13   -0.80   21.20
   2   4 -13   -1.50   28.10
   2   4 -13    0.80   17.30
   1   4 -13   54.29   16.20
   1   4 -13   69.29   19.20
   1   4 -13    8.20   21.30
   0   4 -13   16.40   20.80
   0   4 -13   -1.40   14.70
   0   4 -13    3.50   15.70
   0  -4  13   -9.20   18.00
   0  -4  13    3.40   15.90
  -1   4 -13   -7.60   15.50
  -1   4 -13   24.10   16.70
   1  -4  13   17.50   19.30
  -2   4 -13  128.79   23.80
   2  -4  13  132.39   27.60
  -3   4 -13   24.40   21.60
   3  -4  13   37.20   24.50
   3  -4  13   39.60   25.70
  -4   4 -13   10.10   22.30
  -4   4 -13   41.20   29.20
   4  -4  13    4.10   24.80
   4  -4  13   -0.70   27.60
  -5   4 -13  -23.00   22.40
   5  -4  13    9.10   30.70
   5  -4  13   25.90   27.70
   6   3 -13  -30.40   28.90
   6   3 -13   37.60   40.00
   5   3 -13   35.20   33.50
   5   3 -13    8.50   26.00
   4   3 -13   -0.40   21.30
   4   3 -13  -36.10   27.10
   4   3 -13   -6.10   30.20
   3   3 -13  614.04   46.60
   3   3 -13  653.63   55.49
   3   3 -13  631.64   63.79
   2   3 -13   23.00   23.30
   2   3 -13   13.70   17.20
   2   3 -13   23.80   20.20
   1   3 -13   49.20   17.00
   1   3 -13   -2.80   12.70
   1   3 -13   18.70   18.70
   0   3 -13   24.00   15.10
   0   3 -13   49.80   15.60
   0   3 -13   49.20   21.20
   0  -3  13   58.39   16.40
   0  -3  13    4.80   16.00
  -1   3 -13   78.59   18.20
  -1   3 -13   67.09   17.20
   1  -3  13   52.19   19.90
  -2   3 -13   24.00   17.70
  -2   3 -13   10.60   18.10
   2  -3  13   53.79   20.70
  -3   3 -13  157.28   25.80
  -3   3 -13  128.59   28.10
   3  -3  13  145.69   30.00
   3  -3  13  138.89   28.10
  -4   3 -13    4.10   25.30
  -4   3 -13    3.00   20.50
   4  -3  13  -36.00   26.00
   4  -3  13   10.60   22.30
  -5   3 -13  -35.90   27.30
  -5   3 -13  -22.90   22.00
   5  -3  13   26.70   27.70
   5  -3  13    6.40   30.00
   6   2 -13    8.80   30.30
   6   2 -13  -23.40   35.30
   5   2 -13   10.80   30.20
   5   2 -13   15.80   25.20
   4   2 -13   63.39   25.60
   4   2 -13    9.70   26.50
   4   2 -13   21.80   30.40
   3   2 -13  -17.50   17.20
   3   2 -13   22.60   27.00
   3   2 -13   18.60   24.00
   2   2 -13  554.14   40.60
   2   2 -13  528.85   46.90
   2   2 -13  571.74   44.00
   1   2 -13    2.30   13.90
   1   2 -13   28.90   12.30
   1   2 -13   23.70   17.10
  -1  -2  13   -2.50   14.00
   0   2 -13   77.59   15.90
   0   2 -13   93.59   17.30
   0   2 -13   67.29   20.40
   0   2 -13   62.69   15.30
   0   2 -13   74.59   15.70
   0  -2  13   62.79   15.30
  -1   2 -13  -24.20   14.50
  -1   2 -13   13.70   13.80
  -1   2 -13  -11.40   13.10
   1  -2  13   -2.00   14.80
  -2   2 -13    7.70   17.10
  -2   2 -13   20.70   14.80
   2  -2  13   35.20   18.50
   2  -2  13    7.00   19.60
  -3   2 -13   10.60   17.20
  -3   2 -13   -4.40   20.00
   3  -2  13   -6.50   17.60
   3  -2  13  -11.20   22.50
  -4   2 -13   -9.60   23.30
  -4   2 -13  -14.20   18.90
   4  -2  13  -12.90   21.60
   4  -2  13  -16.10   25.90
  -5   2 -13   18.30   27.00
  -5   2 -13   -0.90   21.10
   5  -2  13   19.10   25.60
   5  -2  13   17.10   29.30
   6   1 -13   20.70   39.10
   6   1 -13   22.00   30.60
   5   1 -13   32.40   28.30
   5   1 -13   24.50   31.60
   4   1 -13  -22.70   18.40
   4   1 -13   11.20   23.60
   4   1 -13   -0.50   28.80
   3   1 -13   -3.20   19.10
   3   1 -13   15.80   21.40
   3   1 -13   13.00   27.20
   2   1 -13    5.90   20.00
   2   1 -13   15.40   16.70
   2   1 -13   -4.50   15.30
   1   1 -13  164.08   23.70
   1   1 -13  162.28   17.10
   1   1 -13  159.38   23.30
   1   1 -13  220.28   23.80
   0   1 -13   23.60   13.70
   0   1 -13   41.00   13.80
   0   1 -13   14.40   11.30
   0   1 -13   41.50   21.70
   0  -1  13   11.00   11.80
  -1   1 -13  165.98   19.20
  -1   1 -13  173.38   22.70
  -1   1 -13  175.18   21.80
  -1   1 -13  163.78   25.00
   1  -1  13  175.98   22.20
  -2   1 -13   35.40   18.90
  -2   1 -13   80.49   18.60
   2  -1  13   42.90   21.10
   2  -1  13   63.59   17.00
  -3   1 -13   23.50   17.90
  -3   1 -13   45.50   21.20
   3  -1  13   24.90   24.00
   3  -1  13   36.70   17.30
  -4   1 -13   57.39   20.70
  -4   1 -13   40.60   26.00
   4  -1  13   55.49   28.00
   4  -1  13   32.40   21.40
  -5   1 -13  -33.00   24.50
  -5   1 -13   25.20   22.00
   5  -1  13  -22.90   27.70
   5  -1  13   21.40   24.90
   6   0 -13   33.00   36.00
   6   0 -13   45.40   32.40
   5   0 -13   13.60   36.20
   5   0 -13   15.90   25.00
   5   0 -13   -2.10   29.00
   4   0 -13    8.60   21.50
   4   0 -13    6.50   24.20
   4   0 -13  -13.30   29.20
   3   0 -13   -8.50   22.50
   3   0 -13    0.60   18.10
   3   0 -13    4.30   17.30
   2   0 -13   -0.40   14.60
   2   0 -13    9.30   15.90
   2   0 -13    2.50   20.20
   1   0 -13   47.60   16.30
   1   0 -13   60.59   13.60
   1   0 -13   60.69   13.90
   1   0 -13   49.99   13.00
   1   0 -13   32.50   20.40
   0   0 -13  130.29   26.50
   0   0 -13  121.29   17.60
   0   0 -13  190.68   19.20
   0   0 -13  153.28   16.60
   0   0 -13  145.69   18.50
   0   0  13  134.59   18.40
  -1   0 -13    5.90   13.90
  -1   0 -13   -3.10   11.10
  -1   0 -13    7.90   13.50
  -1   0 -13    3.00   15.90
   1   0  13   14.50   15.70
  -2   0 -13   34.40   16.90
  -2   0 -13  -26.70   14.40
   2   0  13    9.80   20.40
   2   0  13   25.60   13.10
  -3   0 -13  201.18   26.10
  -3   0 -13  147.29   26.60
   3   0  13  177.88   24.60
   3   0  13  213.68   33.60
  -4   0 -13   33.20   19.50
  -4   0 -13   51.99   24.80
   4   0  13   19.40   21.00
   4   0  13   80.79   30.80
  -5   0 -13  -14.60   25.00
  -5   0 -13  -14.20   18.80
   5   0  13   14.90   31.80
   5   0  13  -22.30   23.60
   6  -1 -13  -33.60   23.70
   6  -1 -13   -0.90   27.60
   6  -1 -13  -18.70   30.20
   5  -1 -13   59.99   31.80
   5  -1 -13    1.60   24.30
   4  -1 -13   -7.60   27.20
   4  -1 -13   13.30   24.90
   4  -1 -13   -8.90   21.70
   3  -1 -13   50.49   23.30
   3  -1 -13   50.69   21.70
   3  -1 -13   54.69   26.80
   2  -1 -13  187.98   25.10
   2  -1 -13  162.58   27.90
   2  -1 -13  131.09   17.30
   2  -1 -13  134.79   22.70
   1  -1 -13  113.09   18.50
   1  -1 -13  127.29   23.40
   1  -1 -13  119.89   16.60
   1  -1 -13  123.69   17.60
   0  -1 -13   87.69   19.50
   0  -1 -13   83.39   13.90
   0  -1 -13  117.89   17.30
   0  -1 -13   87.79   16.70
  -1  -1 -13   71.79   16.10
  -1  -1 -13   34.40   15.20
  -1  -1 -13   74.69   16.70
  -2  -1 -13   13.60   16.90
  -2  -1 -13   18.50   15.60
   2   1  13   -4.60   12.70
   2   1  13    4.40   21.40
  -3  -1 -13   76.29   20.10
  -3  -1 -13   78.09   22.90
   3   1  13   98.69   21.30
   3   1  13  117.79   29.90
   3   1  13  128.49   33.70
  -4  -1 -13   29.70   21.20
  -4  -1 -13   67.79   26.00
   4   1  13   88.79   39.70
   4   1  13    1.20   29.70
   4   1  13   40.30   21.90
  -5  -1 -13    4.40   26.80
  -5  -1 -13   29.30   21.10
   5   1  13    2.20   25.00
   5   1  13   12.50   34.50
   5   1  13   -5.50   41.70
   6  -2 -13   39.70   35.00
   6  -2 -13   70.49   31.80
   5  -2 -13   53.09   30.00
   5  -2 -13  -10.10   23.50
   5  -2 -13    9.10   18.70
   4  -2 -13   90.69   29.30
   4  -2 -13   80.69   25.70
   4  -2 -13   87.89   34.70
   4  -2 -13   83.09   28.30
   3  -2 -13  -14.70   23.60
   3  -2 -13   19.00   18.50
   3  -2 -13   42.10   20.30
   2  -2 -13   83.79   20.30
   2  -2 -13   69.29   17.10
   2  -2 -13   65.39   17.00
   2  -2 -13   76.29   17.10
   2  -2 -13   98.19   25.10
   1  -2 -13  262.87   24.50
   1  -2 -13  265.27   25.80
   1  -2 -13  271.97   25.20
   1  -2 -13  285.07   30.80
  -1   2  13  209.08   23.20
   0  -2 -13   34.90   14.80
   0  -2 -13   40.70   16.90
   0  -2 -13   51.19   15.70
   0   2  13   62.79   15.90
  -1  -2 -13   22.10   16.20
  -1  -2 -13   26.60   15.00
  -2  -2 -13   65.99   19.50
  -2  -2 -13   91.19   19.90
   2   2  13   71.49   25.00
  -3  -2 -13   82.69   24.20
  -3  -2 -13  154.48   24.40
   3   2  13  122.09   35.90
   3   2  13  116.09   22.30
  -4  -2 -13   28.40   20.00
  -4  -2 -13   11.70   23.40
   4   2  13  -20.10   20.70
   4   2  13   61.29   39.60
  -5  -2 -13    3.90   28.50
  -5  -2 -13  -31.40   19.80
   5   2  13   -1.30   47.60
   5   2  13   25.30   27.10
   6  -3 -13   43.30   31.60
   5  -3 -13    8.90   25.90
   4  -3 -13   69.19   28.10
   4  -3 -13   50.19   25.80
   4  -3 -13   83.19   34.70
   4  -3 -13   83.19   19.00
   3  -3 -13  251.27   30.20
   3  -3 -13  275.47   40.30
   3  -3 -13  239.18   32.50
   2  -3 -13  169.08   30.60
   2  -3 -13  158.78   23.10
   2  -3 -13  156.38   25.30
   2  -3 -13  181.68   23.60
   1  -3 -13   54.39   18.40
   1  -3 -13   25.30   16.40
   1  -3 -13   -3.90   18.10
  -1   3  13   34.10   15.80
   0  -3 -13  183.88   23.00
   0  -3 -13  198.48   22.90
   0  -3 -13  161.08   23.30
   0   3  13  171.68   23.30
  -1  -3 -13  108.69   19.90
  -1  -3 -13  112.19   20.90
  -2  -3 -13   51.79   18.40
  -2  -3 -13   13.60   17.10
   2   3  13   33.00   25.50
  -3  -3 -13   42.50   22.20
  -3  -3 -13   20.90   18.70
   3   3  13   25.10   17.80
   3   3  13   62.79   34.70
  -4  -3 -13   23.30   25.60
  -4  -3 -13  -15.30   20.50
   4   3  13   -3.10   39.60
   4   3  13  -44.90   20.90
  -5  -3 -13   92.99   30.50
   5   3  13   21.00   32.40
   5  -4 -13   34.80   23.10
   4  -4 -13  -20.60   21.20
   4  -4 -13  -21.30   29.30
   4  -4 -13  -10.10   18.20
   3  -4 -13  110.49   32.30
   3  -4 -13   50.99   20.70
   3  -4 -13   89.49   24.10
   2  -4 -13    9.60   13.60
   2  -4 -13    6.40   20.00
   2  -4 -13   15.00   16.30
   2  -4 -13   31.20   24.20
   1  -4 -13   15.50   20.00
   1  -4 -13   20.60   19.00
   1  -4 -13   -3.10   16.30
  -1   4  13   34.10   18.10
   0  -4 -13  170.88   23.80
   0  -4 -13  115.49   22.50
   0   4  13  129.69   23.20
  -1  -4 -13   -4.80   17.40
  -1  -4 -13   23.00   17.40
   1   4  13   23.90   17.40
  -2  -4 -13   16.70   17.90
  -2  -4 -13   19.70   17.90
   2   4  13    5.80   24.60
  -3  -4 -13   53.79   20.10
  -3  -4 -13   15.70   22.00
   3   4  13   26.30   32.90
  -4  -4 -13    9.50   21.30
  -4  -4 -13    6.80   24.50
   4   4  13  -16.50   41.30
  -5  -4 -13  -16.40   26.70
   5  -5 -13   47.60   24.20
   4  -5 -13    1.00   22.50
   3  -5 -13  195.68   30.90
   3  -5 -13  232.58   27.00
   3  -5 -13  191.08   38.70
   2  -5 -13   15.70   21.80
   2  -5 -13   23.80   24.60
   2  -5 -13  -12.40   11.50
   2  -5 -13    4.40   21.20
   1  -5 -13    8.50   20.30
   1  -5 -13   18.10   18.40
   1  -5 -13  -11.30   18.70
  -1   5  13   22.90   21.00
   0  -5 -13   17.70   20.00
   0  -5 -13   25.10   18.10
   0   5  13   22.20   19.80
  -1  -5 -13   82.69   20.90
  -1  -5 -13   56.89   22.20
   1   5  13   40.50   24.50
  -2  -5 -13  -25.90   17.50
  -2  -5 -13  -10.10   20.40
   2   5  13    4.40   25.30
  -3  -5 -13   38.20   21.60
  -3  -5 -13   34.50   24.60
  -4  -5 -13   -5.30   22.40
  -4  -5 -13   -3.40   25.70
   5  -6 -13   11.50   25.90
   4  -6 -13   49.70   27.20
   3  -6 -13   15.70   24.40
   3  -6 -13   40.90   32.10
   2  -6 -13   19.70   26.60
   2  -6 -13   27.50   25.70
   2  -6 -13   13.60   23.20
   1  -6 -13   20.80   21.10
   1  -6 -13    5.80   22.30
   0  -6 -13   41.40   22.80
   0  -6 -13    6.80   20.20
   0   6  13  -61.59   25.30
   0   6  13   17.20   20.30
  -1  -6 -13   25.20   24.10
  -1  -6 -13   62.79   23.50
   1   6  13  116.09   27.50
  -2  -6 -13   38.00   24.80
  -2  -6 -13   26.70   21.10
   2   6  13   24.30   31.50
  -3  -6 -13   15.70   25.20
  -3  -6 -13   15.60   23.50
  -4  -6 -13   -9.40   23.50
  -4  -6 -13  -34.60   24.90
   4  -7 -13   70.29   34.00
   3  -7 -13   31.60   30.20
   2  -7 -13  -22.80   30.70
   2  -7 -13   25.70   28.00
   1  -7 -13   -8.90   22.70
   0   7  13  194.98   52.89
  -1  -7 -13  -18.70   22.50
   1   7  13   43.60   28.30
  -2  -7 -13   19.40   24.00
  -2  -7 -13    0.80   26.30
  -3  -7 -13   15.40   28.30
   4  -8 -13   17.60   34.60
   3  -8 -13   78.99   35.10
   2  -8 -13   33.10   33.00
   1  -8 -13   20.00   25.60
   0  -8 -13   -2.20   25.80
  -1  -8 -13   -8.40   25.40
  -2  -8 -13   -5.80   29.70
  -3  -8 -13   12.80   30.90
   3  -9 -13   44.20   36.50
   2  -9 -13   29.50   37.10
   0  -9 -13    3.90   28.00
  -1  -9 -13   53.89   33.50
  -2  -9 -13  -26.10   32.50
   2 -10 -13   20.50   42.10
   2  10 -14  281.37   96.69
   2  10 -14   78.89   35.90
   3   9 -14   -6.70   28.50
   3   9 -14  -75.49   63.69
   2   9 -14   91.69   68.79
   2   9 -14   -7.20   27.70
   2  -9  14   19.60   34.80
   3  -9  14  -10.40   32.70
   4   8 -14  -28.80   32.10
   4   8 -14  -24.90   39.20
   4   8 -14  -45.60   46.90
   3   8 -14  -25.20   33.70
   3   8 -14   47.30   29.00
   3   8 -14  -19.90   49.40
   2   8 -14   -6.90   54.49
   2   8 -14   29.40   26.40
   3  -8  14   11.40   34.30
   3  -8  14   26.30   30.70
   4  -8  14   29.30   33.90
   4   7 -14   19.70   29.20
   4   7 -14  -47.20   35.20
   4   7 -14   26.30   35.80
   3   7 -14   41.20   42.60
   3   7 -14  -13.90   29.60
   3   7 -14   -5.50   23.50
   2   7 -14  200.68   63.69
   2   7 -14  -19.90   23.40
   0  -7  14  -30.70   27.60
   1  -7  14  -26.70   25.50
   2  -7  14  -16.50   27.70
   3  -7  14    1.10   29.50
   3  -7  14   -6.60   32.00
   4  -7  14    8.00   31.50
   4  -7  14  -25.20   31.90
   5   6 -14  -12.50   34.70
   5   6 -14   16.10   29.90
   5   6 -14  -41.90   39.50
   4   6 -14   61.89   37.90
   4   6 -14    0.50   36.70
   4   6 -14   15.00   26.40
   3   6 -14    7.50   22.90
   3   6 -14  -47.40   32.30
   3   6 -14  -21.30   43.10
   2   6 -14    0.30   20.10
   2   6 -14  -17.50   40.10
   2   6 -14    6.10   25.00
   1   6 -14   -3.90   24.20
   0   6 -14   69.19   23.10
   0  -6  14   64.29   23.80
  -1   6 -14  190.08   28.80
   1  -6  14  156.48   30.30
  -2   6 -14   11.40   22.40
   2  -6  14   -8.70   25.10
   3  -6  14    3.40   31.70
   3  -6  14    8.20   29.40
   4  -6  14   15.20   31.00
   4  -6  14    1.00   30.80
   5   5 -14   19.70   33.70
   5   5 -14   35.80   40.20
   5   5 -14   18.70   28.50
   4   5 -14   15.50   33.50
   4   5 -14   29.40   26.70
   4   5 -14   64.19   33.90
   3   5 -14  -34.90   24.70
   3   5 -14   40.20   24.10
   3   5 -14   -2.00   35.60
   2   5 -14   15.90   35.10
   2   5 -14   64.29   22.00
   2   5 -14   23.30   24.50
   1   5 -14   18.50   23.80
   1   5 -14   41.80   18.30
   1   5 -14   24.40   19.30
  -1  -5  14   -7.70   23.40
   0   5 -14   29.00   18.20
   0   5 -14   26.10   24.60
   0  -5  14   28.20   21.30
   0  -5  14   19.50   22.10
  -1   5 -14  576.04   39.50
   1  -5  14  336.77   38.20
  -2   5 -14   18.40   20.50
   2  -5  14  -13.50   23.40
  -3   5 -14   46.20   26.10
   3  -5  14  103.99   32.10
   3  -5  14   13.60   27.50
   4  -5  14  -31.30   26.60
   4  -5  14   22.40   27.00
   5  -5  14   -0.20   32.10
   5  -5  14   19.90   34.30
   5   4 -14   14.20   36.00
   5   4 -14   11.90   29.50
   5   4 -14   50.59   39.30
   4   4 -14   62.89   26.40
   4   4 -14    1.00   33.50
   4   4 -14    8.30   33.80
   3   4 -14   52.79   24.50
   3   4 -14    3.20   35.00
   3   4 -14  -48.70   30.70
   2   4 -14   44.40   20.60
   2   4 -14   21.40   29.40
   2   4 -14   28.50   22.60
   1   4 -14   11.70   21.50
   1   4 -14   21.10   17.90
   1   4 -14  -11.40   15.10
  -1  -4  14    9.60   19.90
   0   4 -14   17.20   16.50
   0   4 -14    8.00   15.90
   0   4 -14  -11.30   20.10
   0  -4  14   17.80   17.40
  -1   4 -14    0.90   16.80
   1  -4  14   18.80   20.00
  -2   4 -14  577.54   41.30
   2  -4  14  492.05   46.30
  -3   4 -14   -8.10   19.50
  -3   4 -14   -9.10   21.60
   3  -4  14   21.80   24.90
   3  -4  14   30.20   25.00
  -4   4 -14  -15.80   22.50
  -4   4 -14    6.90   26.80
   4  -4  14    7.40   25.60
   4  -4  14  -24.80   27.10
  -5   4 -14   13.30   24.70
   5  -4  14  -26.10   29.70
   5  -4  14    9.50   28.10
   5   3 -14    0.80   25.10
   5   3 -14   -0.20   32.00
   5   3 -14   -9.00   33.40
   4   3 -14   -8.80   35.40
   4   3 -14  -10.60   21.60
   4   3 -14   -6.80   29.30
   3   3 -14   38.60   21.80
   3   3 -14   61.09   30.90
   3   3 -14   12.70   27.20
   2   3 -14   33.80   19.40
   2   3 -14    1.80   21.10
   2   3 -14   26.50   27.20
   1   3 -14  -15.20   13.90
   1   3 -14   -5.30   12.00
   1   3 -14   -9.00   17.20
   0   3 -14    9.20   14.50
   0   3 -14   -3.60   14.70
   0   3 -14  -12.80   19.10
   0  -3  14   -0.90   15.90
  -1   3 -14   24.20   15.80
  -1   3 -14   30.60   17.00
  -1   3 -14   80.79   18.00
   1  -3  14   29.60   18.90
  -2   3 -14   10.40   17.20
  -2   3 -14   13.90   19.20
   2  -3  14    7.80   19.60
  -3   3 -14   49.20   20.90
  -3   3 -14   62.29   24.80
   3  -3  14    1.20   23.20
   3  -3  14   39.20   22.40
  -4   3 -14   18.10   25.80
  -4   3 -14    8.50   20.90
   4  -3  14   -6.60   22.20
   4  -3  14   -0.10   26.70
  -5   3 -14    6.80   30.30
  -5   3 -14  -30.50   21.20
   5  -3  14  -25.70   29.10
   5  -3  14   -1.90   25.40
   6   2 -14   27.70   30.40
   6   2 -14   46.00   39.50
   5   2 -14   -0.50   30.80
   5   2 -14  -13.60   24.10
   4   2 -14    4.90   23.20
   4   2 -14   35.80   29.30
   4   2 -14   25.10   29.40
   3   2 -14   65.29   29.00
   3   2 -14   60.89   22.70
   3   2 -14   72.79   27.10
   2   2 -14  178.38   28.90
   2   2 -14  194.48   26.20
   2   2 -14  115.09   24.80
   1   2 -14   32.90   13.20
   1   2 -14   26.30   15.80
   1   2 -14   13.50   16.90
   0   2 -14  199.38   22.70
   0   2 -14  142.69   18.70
   0   2 -14  161.28   26.50
   0   2 -14  147.19   19.10
   0   2 -14  179.48   20.60
   0  -2  14  167.78   19.30
  -1   2 -14    8.10   13.60
  -1   2 -14   14.40   16.30
   1  -2  14    6.60   14.20
   1  -2  14   25.40   15.90
  -2   2 -14   -0.40   17.90
  -2   2 -14   20.40   16.20
   2  -2  14   10.70   20.30
  -3   2 -14    1.50   21.00
  -3   2 -14    7.20   17.60
   3  -2  14   35.10   25.10
   3  -2  14  -13.90   17.10
  -4   2 -14   20.80   21.10
  -4   2 -14  -10.50   23.00
   4  -2  14   -5.90   22.70
   4  -2  14  -11.30   26.90
  -5   2 -14   -2.00   21.20
  -5   2 -14    7.60   29.10
   5  -2  14   -3.10   24.30
   5  -2  14   -6.60   28.60
   6   1 -14   25.50   30.80
   6   1 -14   -9.40   36.10
   5   1 -14   -4.10   25.60
   5   1 -14   33.80   40.40
   5   1 -14    4.00   30.50
   4   1 -14   33.90   29.60
   4   1 -14   36.90   23.10
   4   1 -14    6.10   24.50
   3   1 -14   58.39   29.20
   3   1 -14   77.99   25.60
   3   1 -14   76.49   24.20
   2   1 -14   22.60   21.40
   2   1 -14   16.00   16.70
   2   1 -14   -1.30   16.00
   1   1 -14  270.47   25.40
   1   1 -14  228.68   28.40
   1   1 -14  267.47   22.20
   1   1 -14  223.68   20.90
   1   1 -14  355.06   36.70
  -1  -1  14  264.07   23.30
   0   1 -14   22.50   13.20
   0   1 -14  -12.40   16.20
   0   1 -14    1.60   11.20
   0   1 -14    6.90   12.00
   0   1 -14    5.50   13.20
   0  -1  14   -0.50   12.90
  -1   1 -14   35.90   19.70
  -1   1 -14   23.30    9.90
  -1   1 -14   35.30   15.70
  -1   1 -14   47.10   15.50
   1  -1  14   40.40   17.10
  -2   1 -14   66.39   19.60
  -2   1 -14   19.40   17.50
   2  -1  14   52.39   21.60
   2  -1  14   23.40   16.20
  -3   1 -14   -8.50   17.10
  -3   1 -14   -1.20   19.70
   3  -1  14   15.60   22.90
   3  -1  14    8.30   16.50
  -4   1 -14   18.60   24.20
  -4   1 -14   22.10   20.20
   4  -1  14   -6.60   26.80
   4  -1  14   19.40   22.50
  -5   1 -14    9.10   26.00
  -5   1 -14    3.50   21.40
   5  -1  14  -15.10   23.50
   5  -1  14  -20.80   28.30
   6   0 -14   18.40   36.00
   6   0 -14   11.20   28.30
   5   0 -14  -14.00   33.00
   5   0 -14   42.60   33.00
   5   0 -14   -9.30   26.80
   4   0 -14   12.80   22.70
   4   0 -14   25.20   25.20
   4   0 -14   -8.80   29.40
   3   0 -14   13.30   19.50
   3   0 -14   24.30   19.70
   3   0 -14   -9.10   22.80
   2   0 -14   42.30   17.60
   2   0 -14   30.10   22.10
   2   0 -14    7.80   17.20
   1   0 -14   48.90   13.80
   1   0 -14   38.40   14.20
   1   0 -14   47.40   21.70
   1   0 -14   43.40   14.00
   1   0 -14   95.39   18.80
   0   0 -14  391.96   29.40
   0   0 -14  432.96   35.10
   0   0 -14  485.45   28.80
   0   0 -14  461.55   29.90
   0   0 -14  469.15   31.30
   0   0  14  445.06   31.60
  -1   0 -14   47.70   13.80
  -1   0 -14   60.69   16.20
  -1   0 -14   69.09   17.10
  -1   0 -14   46.00   18.70
   1   0  14   64.09   17.60
  -2   0 -14  -29.30   15.70
  -2   0 -14   15.10   17.70
  -2   0 -14  -27.50   14.40
   2   0  14   -5.80   12.70
   2   0  14   -7.20   20.30
  -3   0 -14  207.98   26.60
  -3   0 -14  142.39   27.40
   3   0  14  156.18   24.60
   3   0  14  206.88   33.30
  -4   0 -14   42.80   20.50
  -4   0 -14   27.90   24.70
   4   0  14  -28.40   18.50
   4   0  14   17.70   28.70
  -5   0 -14   70.19   27.50
  -5   0 -14   13.60   22.00
   5   0  14   57.59   35.40
   5   0  14    4.30   25.20
   6  -1 -14   16.40   32.80
   6  -1 -14   29.60   29.20
   5  -1 -14   36.50   25.90
   5  -1 -14   50.59   38.50
   5  -1 -14   19.10   29.20
   4  -1 -14   19.50   25.70
   4  -1 -14   30.00   31.40
   4  -1 -14   64.19   26.80
   3  -1 -14   71.29   23.90
   3  -1 -14   61.59   23.00
   3  -1 -14   24.10   26.10
   2  -1 -14  130.29   23.00
   2  -1 -14   93.39   19.80
   2  -1 -14  123.99   16.80
   2  -1 -14  117.89   26.00
   1  -1 -14   37.10   20.20
   1  -1 -14   45.30   14.60
   1  -1 -14   42.70   14.20
   1  -1 -14   40.10   15.80
  -1   1  14   38.00   16.30
   0  -1 -14   68.09   16.30
   0  -1 -14  108.29   21.90
   0  -1 -14   67.09   13.30
   0  -1 -14   85.89   17.20
   0   1  14   79.19   17.50
  -1  -1 -14  238.28   25.40
  -1  -1 -14  282.07   25.90
  -2  -1 -14   20.10   14.10
  -2  -1 -14    8.20   16.30
  -2  -1 -14   13.90   16.40
   2   1  14    2.60   22.00
   2   1  14   23.30   14.10
  -3  -1 -14    0.80   18.00
  -3  -1 -14   24.60   21.20
   3   1  14   82.99   29.70
   3   1  14   29.00   17.30
  -4  -1 -14   92.79   28.00
  -4  -1 -14   46.30   22.50
   4   1  14   68.89   33.80
   4   1  14   58.39   24.40
   4   1  14   77.49   41.70
  -5  -1 -14   16.40   22.40
  -5  -1 -14   32.90   28.40
   5   1  14   12.60   37.50
   5   1  14   19.20   25.90
   6  -2 -14   -2.90   29.10
   6  -2 -14    7.10   32.10
   5  -2 -14   27.80   26.40
   5  -2 -14  121.89   41.20
   5  -2 -14   43.70   31.30
   4  -2 -14   10.80   22.40
   4  -2 -14   37.80   30.70
   4  -2 -14  -13.70   22.00
   3  -2 -14   23.80   20.50
   3  -2 -14   24.30   26.50
   3  -2 -14   11.00   19.80
   2  -2 -14   22.10   16.80
   2  -2 -14   41.80   16.50
   2  -2 -14   25.00   22.10
   2  -2 -14   37.20   18.20
   1  -2 -14   88.59   22.60
   1  -2 -14  129.59   20.90
   1  -2 -14  134.09   19.60
   1  -2 -14  112.99   18.70
  -1   2  14  119.49   19.60
   0  -2 -14   58.39   16.40
   0  -2 -14   23.80   15.40
   0  -2 -14   76.69   18.80
   0   2  14   44.10   16.10
  -1  -2 -14  137.39   21.20
  -1  -2 -14  125.99   21.50
   1   2  14  127.09   18.80
  -2  -2 -14   60.29   20.00
  -2  -2 -14   39.20   19.00
   2   2  14   63.99   24.00
  -3  -2 -14   47.60   20.00
  -3  -2 -14   38.30   20.80
   3   2  14   33.40   32.00
   3   2  14   48.60   20.80
  -4  -2 -14   36.80   21.90
  -4  -2 -14   15.20   25.60
   4   2  14   22.00   38.30
   4   2  14  -11.30   20.30
  -5  -2 -14   63.99   31.60
   5   2  14   -3.60   25.90
   5   2  14   38.10   49.80
   6  -3 -14    2.10   28.00
   5  -3 -14   21.90   33.70
   5  -3 -14  -13.00   24.00
   4  -3 -14   48.20   25.50
   4  -3 -14   32.80   16.80
   4  -3 -14   91.99   35.70
   3  -3 -14  119.49   26.80
   3  -3 -14   77.59   24.00
   3  -3 -14  121.89   33.00
   2  -3 -14   35.20   19.20
   2  -3 -14   24.30   17.30
   2  -3 -14   59.69   20.80
   2  -3 -14   73.59   24.90
   1  -3 -14    0.50   15.70
   1  -3 -14   21.30   16.20
   1  -3 -14   13.20   18.30
  -1   3  14   20.10   16.40
   0  -3 -14   52.79   17.70
   0  -3 -14    6.20   14.80
   0   3  14   67.89   19.00
  -1  -3 -14   31.70   16.20
  -1  -3 -14   24.40   16.80
  -2  -3 -14   83.99   23.00
  -2  -3 -14   54.79   19.90
   2   3  14   46.50   26.60
  -3  -3 -14   12.50   19.80
  -3  -3 -14   42.80   23.50
   3   3  14   30.10   32.90
  -4  -3 -14   19.70   21.80
   4   3  14  -15.30   21.50
   4   3  14  -26.30   41.60
  -5  -3 -14   63.29   31.40
   5   3  14   38.70   35.10
   5  -4 -14   -0.60   26.10
   5  -4 -14   25.50   22.10
   4  -4 -14   21.60   24.30
   4  -4 -14   -3.30   31.00
   4  -4 -14    8.00   17.30
   3  -4 -14   25.60   27.90
   3  -4 -14    9.20   17.60
   3  -4 -14    9.90   18.70
   2  -4 -14  483.95   49.99
   2  -4 -14  578.44   44.70
   2  -4 -14  504.05   39.50
   1  -4 -14   -1.70   19.40
   1  -4 -14   -1.50   20.40
   1  -4 -14    9.10   17.10
  -1   4  14    1.10   17.30
   0  -4 -14   69.59   21.30
   0  -4 -14   66.49   19.50
   0   4  14   37.20   19.50
  -1  -4 -14   31.30   19.00
  -1  -4 -14   25.00   18.10
   1   4  14   41.50   17.10
  -2  -4 -14  101.69   22.90
  -2  -4 -14   99.39   23.70
   2   4  14  109.19   29.50
  -3  -4 -14   30.50   22.40
  -3  -4 -14   29.10   21.70
   3   4  14   -8.20   33.90
  -4  -4 -14  -30.00   23.10
  -4  -4 -14   -6.80   22.00
  -5  -4 -14   50.79   29.70
   5  -5 -14   -9.10   21.00
   4  -5 -14   -3.10   21.40
   4  -5 -14   24.10   31.60
   3  -5 -14  104.89   26.20
   3  -5 -14  147.79   38.90
   2  -5 -14    8.40   22.90
   2  -5 -14   59.59   23.90
   2  -5 -14   62.79   27.50
   1  -5 -14   83.19   23.60
   1  -5 -14   47.80   24.10
   1  -5 -14   44.40   21.00
  -1   5  14   51.49   22.10
   0  -5 -14   34.40   18.80
   0  -5 -14   73.49   23.60
  -1  -5 -14    8.90   20.50
  -1  -5 -14   -1.00   17.60
   1   5  14   49.99   23.30
  -2  -5 -14    4.10   18.90
  -2  -5 -14  -16.60   20.00
   2   5  14   18.90   26.10
  -3  -5 -14  -19.40   20.50
  -3  -5 -14    6.30   24.40
  -4  -5 -14   61.39   30.80
  -4  -5 -14  -22.30   22.00
   5  -6 -14    1.00   24.60
   4  -6 -14   12.20   25.90
   3  -6 -14  -12.70   24.20
   2  -6 -14   51.09   26.10
   2  -6 -14   42.80   26.80
   2  -6 -14   63.99   29.90
   1  -6 -14  -23.60   21.80
   1  -6 -14    3.40   20.60
   0  -6 -14   13.10   19.90
   0  -6 -14   16.20   22.00
  -1  -6 -14   46.40   22.40
  -1  -6 -14   11.40   23.00
   1   6  14  111.19   27.50
  -2  -6 -14    1.50   23.90
  -2  -6 -14   25.10   21.40
   2   6  14   44.90   31.40
  -3  -6 -14   -1.40   26.90
  -3  -6 -14   26.70   23.80
  -4  -6 -14   -3.50   28.60
  -4  -6 -14   42.40   26.30
   4  -7 -14   28.20   37.90
   4  -7 -14    3.70   28.00
   3  -7 -14   30.00   28.10
   2  -7 -14    3.90   26.40
   2  -7 -14  -19.50   27.70
   1  -7 -14    1.90   24.70
   1  -7 -14    0.30   20.80
   0  -7 -14   61.69   25.80
   0   7  14  -96.49   35.50
  -1  -7 -14   44.10   27.50
  -1  -7 -14   -5.60   21.70
  -2  -7 -14   19.30   24.10
  -2  -7 -14   43.30   30.10
  -3  -7 -14  -21.00   23.60
  -3  -7 -14  -28.70   30.90
   4  -8 -14   30.80   34.80
   3  -8 -14   87.19   34.60
   2  -8 -14   51.89   34.80
   1  -8 -14   16.80   26.60
   0  -8 -14  -13.90   24.40
  -1  -8 -14   37.70   28.00
  -2  -8 -14  -36.80   27.90
  -3  -8 -14   15.10   33.80
   3  -9 -14  -29.10   36.40
   2  -9 -14   -9.20   34.40
   0  -9 -14  -21.80   25.80
  -1  -9 -14   32.10   33.20
  -2  -9 -14   -0.60   33.50
   3   9 -15   10.30   28.70
   3   9 -15 -125.59   63.79
   2   9 -15   56.79   66.99
   2   9 -15   41.20   32.30
   3  -9  15    2.50   33.90
   3   8 -15    2.80   47.20
   3   8 -15   -8.70   25.70
   2   8 -15   61.89   56.39
   2   8 -15   10.40   25.60
   1   8 -15  -45.60   27.90
   2  -8  15  -25.90   31.00
   3  -8  15  -28.10   33.20
   3  -8  15   29.60   33.60
   4   7 -15   -7.40   34.70
   4   7 -15   20.20   39.70
   4   7 -15  -15.20   27.20
   3   7 -15   47.60   32.50
   3   7 -15  -11.10   23.10
   3   7 -15  -15.80   41.30
   2   7 -15   62.89   55.19
   2   7 -15   30.10   24.70
   2   7 -15   53.29   33.40
   1   7 -15  138.19   43.10
   0   7 -15  -58.29   30.30
   1  -7  15   30.30   29.90
   2  -7  15   12.50   29.40
   3  -7  15   -0.50   32.50
   3  -7  15   18.20   31.80
   4  -7  15  -52.09   32.10
   4  -7  15   50.69   34.70
   5   6 -15    2.80   37.30
   4   6 -15  -10.20   38.80
   4   6 -15   23.50   27.50
   4   6 -15    0.30   36.60
   3   6 -15    8.20   40.00
   3   6 -15  -71.39   27.30
   3   6 -15   -8.90   23.90
   2   6 -15   37.10   28.90
   2   6 -15    7.40   22.00
   2   6 -15   74.49   48.80
   1   6 -15   19.20   30.60
   1   6 -15   37.40   23.90
   0   6 -15    6.90   27.60
   0   6 -15   -0.10   18.70
   0  -6  15   -4.10   24.70
  -1   6 -15   75.49   23.90
   1  -6  15   32.00   26.00
   2  -6  15  -13.40   26.80
   3  -6  15   -3.90   28.90
   3  -6  15  -17.30   29.30
   4  -6  15  -17.60   30.30
   4  -6  15  -52.59   26.90
   5   5 -15    3.00   36.40
   5   5 -15   61.39   39.90
   5   5 -15  -15.20   28.50
   4   5 -15    7.50   30.40
   4   5 -15   22.70   26.50
   4   5 -15   -7.50   33.10
   3   5 -15 -104.69   29.00
   3   5 -15  -13.50   22.20
   2   5 -15    6.20   34.60
   2   5 -15   31.80   21.30
   2   5 -15   15.40   24.40
   1   5 -15   48.60   27.30
   1   5 -15   30.10   18.40
   1   5 -15   17.50   18.80
   0   5 -15   40.00   18.40
   0   5 -15   30.10   26.20
   0  -5  15   -6.60   21.10
  -1   5 -15   15.80   19.40
   1  -5  15   10.20   21.80
  -2   5 -15   13.80   21.40
   2  -5  15    4.50   25.90
   3  -5  15   15.30   26.50
   3  -5  15   28.70   27.90
   4  -5  15   59.49   30.10
   4  -5  15  -27.10   29.20
   5  -5  15   -1.20   34.90
   5   4 -15   -2.90   29.10
   5   4 -15  -29.90   37.40
   5   4 -15   -8.40   36.30
   4   4 -15   55.99   37.10
   4   4 -15   39.90   26.40
   4   4 -15   62.39   36.50
   3   4 -15   22.30   29.80
   3   4 -15   19.90   31.30
   3   4 -15   23.50   23.90
   2   4 -15    0.60   23.30
   2   4 -15   45.30   33.50
   2   4 -15    2.10   18.50
   1   4 -15    4.00   22.50
   1   4 -15   15.20   16.30
   1   4 -15   29.00   18.00
   0   4 -15   -4.30   15.70
   0   4 -15    5.50   17.20
   0   4 -15   27.10   24.20
   0  -4  15   27.90   17.60
   0  -4  15    4.40   18.50
  -1   4 -15   39.90   18.10
   1  -4  15   26.80   19.10
  -2   4 -15  -12.00   17.60
   2  -4  15   -3.60   23.30
  -3   4 -15   38.20   25.60
  -3   4 -15   -6.30   20.10
   3  -4  15  -33.50   22.90
   3  -4  15   20.50   25.20
  -4   4 -15  -30.60   24.40
   4  -4  15    4.60   28.80
   4  -4  15  -19.20   24.70
   5  -4  15   43.70   32.20
   5  -4  15    1.10   31.60
   5   3 -15  -25.40   26.20
   5   3 -15  -19.80   31.10
   5   3 -15  -25.40   33.30
   4   3 -15  -18.60   31.60
   4   3 -15    2.10   23.00
   4   3 -15    4.20   29.00
   3   3 -15  147.99   30.20
   3   3 -15  187.28   35.70
   3   3 -15  136.79   33.70
   2   3 -15   28.00   21.80
   2   3 -15   -1.60   24.40
   2   3 -15   41.30   20.50
   1   3 -15   18.20   18.30
   1   3 -15  -14.40   11.80
   1   3 -15   -7.20   14.60
  -1  -3  15   26.20   18.60
   0   3 -15   10.80   15.70
   0   3 -15   36.90   17.30
   0   3 -15   49.30   17.00
   0   3 -15    7.50   14.60
   0   3 -15    2.80   19.70
  -1   3 -15   64.79   17.80
  -1   3 -15   22.80   17.80
  -1   3 -15   26.60   17.40
   1  -3  15   67.39   20.50
  -2   3 -15  -13.00   16.00
  -2   3 -15   10.40   19.00
   2  -3  15   32.00   21.10
  -3   3 -15   97.09   27.50
  -3   3 -15   58.79   19.70
   3  -3  15  132.89   27.50
   3  -3  15   76.89   27.90
  -4   3 -15   -9.30   21.50
  -4   3 -15  -27.80   25.10
   4  -3  15   11.80   28.60
   4  -3  15   10.80   23.60
  -5   3 -15   16.30   25.20
   5  -3  15    8.50   27.10
   5  -3  15    7.20   29.80
   6   2 -15    5.50   37.20
   6   2 -15  -22.90   29.50
   5   2 -15   25.00   27.10
   5   2 -15    2.80   31.90
   4   2 -15   50.99   30.50
   4   2 -15   49.00   26.50
   4   2 -15  -18.30   27.50
   3   2 -15   71.89   32.90
   3   2 -15   37.20   28.90
   3   2 -15   77.29   24.60
   2   2 -15   70.59   23.10
   2   2 -15   16.60   20.20
   2   2 -15   21.40   18.70
   1   2 -15   58.59   18.50
   1   2 -15   61.39   14.00
   1   2 -15   70.59   20.70
   0   2 -15   30.70   20.90
   0   2 -15   57.69   17.10
   0   2 -15   53.79   15.30
   0   2 -15   69.19   16.00
   0   2 -15   58.69   16.00
   0  -2  15   36.10   15.10
  -1   2 -15    9.10   20.10
  -1   2 -15  -11.90   15.40
  -1   2 -15   17.80   15.50
  -1   2 -15    6.50   14.60
   1  -2  15  -14.70   14.40
  -2   2 -15   95.19   23.60
  -2   2 -15   75.09   17.70
  -2   2 -15   74.59   19.90
   2  -2  15   96.79   24.00
  -3   2 -15   27.60   19.90
  -3   2 -15    9.50   22.10
   3  -2  15   33.50   21.00
   3  -2  15   21.00   25.00
  -4   2 -15   32.50   27.60
  -4   2 -15   42.60   22.80
   4  -2  15   53.49   30.90
   4  -2  15   49.40   25.20
  -5   2 -15  -12.00   20.90
   5  -2  15    9.70   32.60
   5  -2  15   -2.70   25.70
   6   1 -15   29.30   32.10
   6   1 -15   42.10   40.60
   5   1 -15  -10.00   39.10
   5   1 -15  -15.00   26.20
   5   1 -15   59.69   32.40
   4   1 -15   23.20   23.20
   4   1 -15  -24.60   28.80
   4   1 -15   22.00   24.20
   3   1 -15   23.40   28.50
   3   1 -15   18.70   22.80
   3   1 -15   32.80   23.30
   2   1 -15   94.79   21.70
   2   1 -15   91.89   20.80
   2   1 -15   58.39   24.80
   1   1 -15   52.09   20.90
   1   1 -15  109.39   16.00
   1   1 -15   66.99   20.40
   1   1 -15  127.29   20.50
   1   1 -15   79.89   15.40
  -1  -1  15   80.19   16.20
   0   1 -15   41.60   15.20
   0   1 -15   21.70   13.40
   0   1 -15   57.69   15.60
   0   1 -15   27.30   17.80
   0  -1  15   17.00   13.70
  -1   1 -15   36.40   10.60
  -1   1 -15    1.60   14.90
  -1   1 -15   -9.60   13.20
  -1   1 -15   21.40   15.70
  -1   1 -15   32.30   20.30
   1  -1  15   28.10   16.10
  -2   1 -15    9.70   18.10
  -2   1 -15   30.00   17.70
   2  -1  15   48.80   21.90
   2  -1  15   53.39   17.50
  -3   1 -15   44.50   18.80
  -3   1 -15   -8.20   19.40
   3  -1  15   35.70   25.00
   3  -1  15    1.90   16.80
  -4   1 -15   -1.00   19.90
  -4   1 -15   -4.80   24.20
   4  -1  15    7.70   28.90
   4  -1  15   16.20   20.50
  -5   1 -15  134.59   34.00
  -5   1 -15   43.60   24.00
   5  -1  15   85.49   30.40
   5  -1  15  101.39   37.30
   6   0 -15  -20.70   32.50
   6   0 -15  -11.60   28.80
   5   0 -15  106.09   41.50
   5   0 -15   -7.40   27.00
   5   0 -15    2.50   31.80
   4   0 -15    7.00   24.70
   4   0 -15   37.30   23.20
   4   0 -15   32.30   32.30
   3   0 -15   37.90   25.20
   3   0 -15   17.10   19.10
   3   0 -15   -7.80   19.00
   2   0 -15   58.19   25.30
   2   0 -15   70.29   19.60
   2   0 -15   71.09   20.40
   1   0 -15   83.79   13.00
   1   0 -15   23.00   15.80
   1   0 -15   38.40   14.40
   1   0 -15   32.30   21.20
   1   0 -15   23.50   14.40
  -1   0  15   -9.00   12.60
   0   0 -15   73.79   16.10
   0   0 -15   68.49   18.80
   0   0 -15   67.59   14.30
   0   0 -15   82.89   16.30
   0   0  15   32.80   16.30
  -1   0 -15  109.19   20.00
  -1   0 -15  109.89   20.50
  -1   0 -15  100.99   16.60
  -1   0 -15   86.99   20.90
   1   0  15  144.29   21.40
  -2   0 -15   41.60   18.10
  -2   0 -15   49.50   19.10
   2   0  15   66.39   16.30
   2   0  15   41.50   22.50
  -3   0 -15   63.29   20.60
  -3   0 -15   32.40   21.40
   3   0  15  106.29   29.20
   3   0  15   50.69   18.70
  -4   0 -15   10.80   20.50
  -4   0 -15  -15.70   23.40
   4   0  15   23.50   21.60
   4   0  15   28.10   29.70
  -5   0 -15  -26.80   20.30
  -5   0 -15    1.10   27.70
   5   0  15   -0.90   31.80
   5   0  15  -45.20   22.70
   6  -1 -15   23.10   33.30
   6  -1 -15  -17.00   28.70
   5  -1 -15   13.70   28.00
   5  -1 -15  -14.70   24.90
   5  -1 -15  -41.60   33.80
   4  -1 -15   -4.20   25.00
   4  -1 -15   55.19   26.80
   4  -1 -15   52.49   31.00
   3  -1 -15   73.89   24.30
   3  -1 -15   54.49   24.20
   3  -1 -15   30.10   26.90
   2  -1 -15   36.00   22.40
   2  -1 -15   49.90   17.20
   2  -1 -15   21.30   15.00
   2  -1 -15    2.10   17.90
   1  -1 -15    1.40   13.50
   1  -1 -15    3.70   19.70
   1  -1 -15   12.60   14.50
   1  -1 -15   18.80   14.30
  -1   1  15   31.60   16.00
   0  -1 -15   94.09   15.70
   0  -1 -15   72.29   16.80
   0  -1 -15  127.99   21.50
   0  -1 -15   90.59   18.90
   0   1  15  101.99   19.30
  -1  -1 -15  704.03   40.40
  -1  -1 -15  673.13   41.40
  -1  -1 -15  604.34   39.10
  -1  -1 -15  649.64   40.60
  -2  -1 -15   47.60   18.40
  -2  -1 -15   49.00   20.20
   2   1  15   53.79   14.90
  -3  -1 -15   26.40   21.30
  -3  -1 -15   -4.00   18.80
   3   1  15   31.60   27.50
   3   1  15   -4.90   16.40
  -4  -1 -15   70.89   27.90
  -4  -1 -15   50.69   24.00
   4   1  15   47.10   23.70
   4   1  15   29.70   33.10
  -5  -1 -15   61.19   30.30
  -5  -1 -15   42.60   24.10
   5   1  15   -4.20   24.00
   6  -2 -15  -15.80   31.50
   6  -2 -15   -5.20   28.70
   5  -2 -15   59.09   28.90
   5  -2 -15   50.19   32.40
   5  -2 -15   74.69   38.70
   4  -2 -15    1.50   31.40
   4  -2 -15   29.00   24.00
   4  -2 -15   40.20   25.90
   3  -2 -15   19.70   20.60
   3  -2 -15   23.00   27.60
   3  -2 -15   40.00   21.30
   2  -2 -15   29.00   19.10
   2  -2 -15   25.70   16.40
   2  -2 -15   14.30   22.30
   2  -2 -15    3.40   17.60
   1  -2 -15   12.70   14.50
   1  -2 -15    8.40   14.50
   1  -2 -15  -26.30   16.60
   1  -2 -15   15.10   16.50
   0  -2 -15   31.80   17.50
   0  -2 -15    8.20   15.00
   0  -2 -15   27.40   15.70
   0   2  15   25.30   16.00
  -1  -2 -15   78.29   19.10
  -1  -2 -15   93.39   21.20
  -2  -2 -15  253.27   30.90
  -2  -2 -15  283.27   29.80
   2   2  15  302.67   37.10
  -3  -2 -15  -33.70   19.40
  -3  -2 -15   -4.30   18.20
   3   2  15   -7.50   17.50
   3   2  15  -10.10   29.20
  -4  -2 -15   16.50   25.50
  -4  -2 -15   31.50   22.00
   4   2  15   15.50   22.10
   4   2  15   16.90   40.50
  -5  -2 -15  -20.60   23.10
  -5  -2 -15   11.30   29.90
   5   2  15  -17.10   25.50
   5  -3 -15    8.70   27.60
   4  -3 -15   47.70   25.40
   4  -3 -15   36.20   33.20
   3  -3 -15  761.52   55.19
   3  -3 -15  812.32   64.99
   2  -3 -15   16.90   19.80
   2  -3 -15    4.40   17.70
   2  -3 -15    7.10   18.10
   2  -3 -15    8.20   22.30
   1  -3 -15   69.79   21.00
   1  -3 -15   29.70   19.70
   1  -3 -15   15.80   17.80
  -1   3  15   57.29   18.30
   0  -3 -15   24.20   16.90
   0  -3 -15  -10.90   14.30
   0   3  15   37.80   18.80
  -1  -3 -15   43.10   17.60
  -1  -3 -15   50.49   18.40
  -2  -3 -15   10.10   19.20
  -2  -3 -15    3.50   17.50
   2   3  15   -6.30   22.60
  -3  -3 -15  206.48   29.50
   3   3  15  240.78   46.00
  -4  -3 -15   19.40   26.50
  -4  -3 -15  -34.10   20.70
   4   3  15  -16.00   22.00
   4   3  15   44.40   42.00
  -5  -3 -15   28.00   25.00
  -5  -3 -15   77.09   33.00
   5   3  15  -12.90   31.30
   5  -4 -15    8.20   19.70
   5  -4 -15  -28.50   25.10
   4  -4 -15   31.60   33.20
   4  -4 -15   40.10   25.80
   3  -4 -15   15.60   27.80
   2  -4 -15  679.33   44.40
   2  -4 -15  656.03   47.80
   2  -4 -15  537.05   52.59
   1  -4 -15   26.10   18.70
   1  -4 -15   34.10   20.70
   1  -4 -15   17.90   19.90
  -1   4  15   23.60   20.00
   0  -4 -15    7.30   18.30
   0  -4 -15   15.40   16.60
   0   4  15  -18.40   17.80
  -1  -4 -15   22.90   18.70
  -1  -4 -15   38.70   18.60
   1   4  15   18.80   19.80
  -2  -4 -15   87.59   22.80
  -2  -4 -15  102.99   24.50
   2   4  15   93.99   31.40
  -3  -4 -15   14.90   21.70
  -3  -4 -15   27.30   24.30
   3   4  15   72.49   38.70
  -4  -4 -15   32.00   25.50
  -4  -4 -15   25.50   27.50
   5  -5 -15  -12.90   21.80
   4  -5 -15    9.50   22.90
   3  -5 -15   85.29   33.70
   3  -5 -15   32.80   24.20
   2  -5 -15  -45.40   20.50
   2  -5 -15  -24.60   24.60
   2  -5 -15    6.00   24.50
   1  -5 -15  196.28   31.00
   1  -5 -15  200.98   29.00
   1  -5 -15  140.89   28.80
  -1   5  15  196.78   30.50
   0  -5 -15   50.49   23.00
   0  -5 -15   48.10   20.10
   0   5  15   45.70   22.70
  -1  -5 -15  -13.30   18.50
  -1  -5 -15   26.50   22.10
  -2  -5 -15  -17.30   18.90
  -2  -5 -15  -16.00   19.80
   2   5  15  -15.20   25.30
  -3  -5 -15   -3.10   25.40
  -3  -5 -15   15.10   23.20
   3   5  15  -18.80   34.60
  -4  -5 -15   19.30   25.50
  -4  -5 -15  -28.00   26.50
   5  -6 -15  -28.80   23.50
   4  -6 -15  -25.00   25.30
   3  -6 -15   72.59   33.60
   3  -6 -15   93.09   28.00
   2  -6 -15   72.39   26.80
   2  -6 -15  -34.00   29.90
   2  -6 -15   25.80   26.20
   1  -6 -15  -26.80   20.30
   1  -6 -15    3.10   20.40
   0  -6 -15   29.00   23.80
   0  -6 -15   28.30   20.70
  -1  -6 -15   71.39   26.30
  -1  -6 -15   12.90   20.70
   1   6  15    0.80   25.50
  -2  -6 -15   32.30   22.60
  -2  -6 -15   21.50   24.70
  -3  -6 -15   42.90   29.50
  -3  -6 -15  -20.90   22.50
  -4  -6 -15   -0.80   25.90
  -4  -6 -15   25.00   30.50
   4  -7 -15   37.40   29.40
   3  -7 -15    9.60   27.10
   2  -7 -15   39.80   29.30
   2  -7 -15   -7.80   26.10
   1  -7 -15   18.90   22.00
   1  -7 -15   -7.70   24.90
   0  -7 -15    8.80   23.00
  -1  -7 -15    5.80   23.10
  -1  -7 -15   18.00   25.50
  -2  -7 -15  -32.80   21.10
  -2  -7 -15    3.80   28.30
  -3  -7 -15   36.70   27.70
  -3  -7 -15  -13.40   28.50
   4  -8 -15  -31.10   31.20
   3  -8 -15   22.80   33.40
   2  -8 -15    3.90   33.00
   1  -8 -15   -3.60   25.20
   0  -8 -15    7.20   26.20
  -1  -8 -15  -43.00   24.90
  -2  -8 -15   -0.30   29.20
   3  -9 -15    3.40   34.60
   2  -9 -15    0.20   37.10
   0  -9 -15   21.00   29.40
  -1  -9 -15  -18.60   30.20
   2   9 -16   40.70   31.30
   2   9 -16   32.10   68.09
   3   8 -16   -7.70   48.20
   3   8 -16   14.70   26.70
   2   8 -16  -16.80   24.20
   2   8 -16   -2.10   57.09
   3  -8  16  -47.20   32.80
   3  -8  16  -11.80   36.90
   4   7 -16  -51.79   35.40
   4   7 -16  -28.50   33.90
   4   7 -16   27.30   30.90
   3   7 -16   61.59   46.50
   3   7 -16   31.90   27.20
   3   7 -16   57.69   35.60
   2   7 -16   -2.50   51.19
   2   7 -16  -17.90   23.30
   1   7 -16   38.60   26.20
   0   7 -16  -41.60   33.90
   3  -7  16   24.10   31.10
   3  -7  16   44.40   36.40
   4  -7  16   18.80   34.00
   4  -7  16    8.40   33.10
   4   6 -16   72.59   41.50
   4   6 -16   84.39   31.40
   4   6 -16   95.99   41.90
   3   6 -16  -33.20   34.90
   3   6 -16   31.50   26.70
   3   6 -16  -13.50   27.10
   2   6 -16   35.90   34.30
   1   6 -16   20.20   29.30
   1   6 -16  -15.30   21.30
   0  -6  16    2.50   22.70
  -1   6 -16   11.80   20.30
  -2   6 -16   37.50   23.70
   2  -6  16    5.20   28.80
   3  -6  16   63.09   31.60
   3  -6  16   70.39   33.50
   4  -6  16  -23.60   29.30
   5   5 -16  -41.00   35.90
   5   5 -16  -24.20   27.00
   5   5 -16  -33.80   33.50
   4   5 -16   14.70   32.70
   4   5 -16  -32.00   22.50
   4   5 -16   25.40   36.50
   3   5 -16  121.99   35.20
   3   5 -16  186.48   34.50
   3   5 -16  158.08   43.10
   2   5 -16   21.00   20.90
   2   5 -16   10.40   29.60
   2   5 -16  157.48   49.50
   1   5 -16   35.90   30.30
   1   5 -16    5.60   19.40
   1   5 -16    8.10   17.90
   0   5 -16   34.50   19.50
   0   5 -16   31.10   20.60
   0   5 -16   69.39   32.20
   0  -5  16   74.89   26.80
   0  -5  16   44.70   22.00
  -1   5 -16   42.90   21.20
   1  -5  16   46.00   24.10
   1  -5  16   33.30   20.90
  -2   5 -16  -29.40   20.20
   2  -5  16  -29.50   24.50
  -3   5 -16   14.40   24.00
   3  -5  16   28.30   29.10
   3  -5  16   48.90   30.30
   4  -5  16   15.90   31.30
   4  -5  16   10.90   27.90
   5  -5  16   -6.10   34.00
   5   4 -16   -8.20   26.70
   5   4 -16   15.80   36.30
   5   4 -16   18.70   35.70
   4   4 -16   29.80   24.30
   4   4 -16   95.09   36.10
   4   4 -16   -3.00   32.60
   3   4 -16   17.50   22.30
   3   4 -16    7.30   26.50
   3   4 -16  -39.80   27.00
   2   4 -16   -1.60   19.20
   2   4 -16  -47.10   24.40
   2   4 -16  -27.50   35.00
   1   4 -16   23.60   21.90
   1   4 -16    1.90   17.10
   1   4 -16   11.00   15.20
   0   4 -16   17.50   17.30
   0   4 -16   11.00   23.00
   0   4 -16    9.20   16.30
   0   4 -16   20.60   18.20
   0  -4  16   -9.80   19.20
   0  -4  16  -22.50   17.80
  -1   4 -16   29.50   19.80
  -1   4 -16   51.29   21.20
  -1   4 -16   31.80   19.40
   1  -4  16   33.00   21.00
   1  -4  16   28.40   17.70
  -2   4 -16   12.20   19.00
  -2   4 -16   18.60   21.00
   2  -4  16    2.40   23.40
  -3   4 -16  -20.70   18.50
   3  -4  16   21.40   25.00
   3  -4  16    4.00   25.20
   4  -4  16   -0.70   26.90
   4  -4  16   12.50   29.90
   5  -4  16    8.60   30.00
   5  -4  16   50.59   34.60
   5   3 -16  -10.90   35.70
   5   3 -16   43.30   29.00
   5   3 -16    1.50   32.10
   4   3 -16   13.80   30.60
   4   3 -16   19.30   34.70
   4   3 -16    7.40   23.80
   3   3 -16   81.69   26.70
   3   3 -16   48.00   33.20
   3   3 -16  -40.90   28.80
   2   3 -16  -16.90   17.40
   2   3 -16   -0.80   24.10
   2   3 -16   32.90   22.10
   1   3 -16   21.50   16.90
   1   3 -16   18.10   14.60
   1   3 -16   44.20   20.90
  -1  -3  16    7.70   18.20
   0   3 -16   84.59   19.50
   0   3 -16   68.59   18.20
   0   3 -16   48.60   16.60
   0   3 -16   76.89   24.60
   0   3 -16   50.49   16.20
  -1   3 -16   74.99   27.50
  -1   3 -16   66.99   20.50
  -1   3 -16   42.90   16.90
  -1   3 -16   49.60   18.30
   1  -3  16   25.10   18.70
  -2   3 -16   93.59   24.40
  -2   3 -16   28.80   17.80
   2  -3  16   32.80   21.00
  -3   3 -16   98.29   27.50
  -3   3 -16   37.80   19.70
   3  -3  16   79.79   29.00
   3  -3  16   -8.30   21.60
  -4   3 -16   -8.70   21.50
  -4   3 -16   28.10   29.40
   4  -3  16   -3.20   28.20
   4  -3  16  -19.60   22.80
  -5   3 -16  -22.40   22.50
  -5   3 -16   17.40   30.00
   5  -3  16    9.00   28.00
   5  -3  16   51.09   32.70
   5   2 -16  -23.90   22.90
   5   2 -16  -19.60   38.70
   5   2 -16  -27.40   27.70
   4   2 -16   17.60   24.50
   4   2 -16   26.90   29.60
   4   2 -16   23.70   31.00
   3   2 -16   46.80   23.00
   3   2 -16   51.49   26.40
   3   2 -16   48.90   31.00
   2   2 -16   -5.40   22.90
   2   2 -16   17.80   20.70
   2   2 -16   47.10   20.30
   1   2 -16   44.30   19.70
   1   2 -16   65.99   14.40
   1   2 -16   82.69   19.50
   1   2 -16   38.70   15.10
  -1  -2  16   71.49   17.90
   0   2 -16   15.10   14.50
   0   2 -16  -25.10   18.20
   0   2 -16   11.70   14.90
   0   2 -16   16.20   13.30
   0   2 -16   15.20   13.60
   0  -2  16   -5.50   13.30
  -1   2 -16   15.90   15.90
  -1   2 -16   -5.80   17.20
  -1   2 -16    3.00   21.20
  -1   2 -16   20.70   16.70
   1  -2  16   19.00   17.30
  -2   2 -16   73.39   21.40
  -2   2 -16   40.40   21.60
   2  -2  16   42.30   22.40
  -3   2 -16   25.30   20.30
  -3   2 -16  -27.10   20.90
   3  -2  16   29.90   20.40
   3  -2  16   25.30   26.40
  -4   2 -16    6.60   20.60
  -4   2 -16   12.40   25.10
   4  -2  16   -1.30   27.50
   4  -2  16   25.20   24.10
  -5   2 -16   19.50   24.10
  -5   2 -16   -0.30   28.70
   5  -2  16   -6.30   26.70
   5  -2  16  -13.70   31.60
   6   1 -16   14.20   33.00
   6   1 -16  -31.60   35.00
   5   1 -16  -54.39   36.80
   5   1 -16    7.90   27.70
   5   1 -16  -31.40   27.60
   4   1 -16    1.20   29.80
   4   1 -16   10.10   22.20
   4   1 -16  -34.60   22.30
   3   1 -16  -14.00   28.20
   3   1 -16    1.70   22.60
   3   1 -16   18.00   22.40
   2   1 -16   58.59   20.60
   2   1 -16   78.09   22.00
   2   1 -16   75.29   26.70
   2   1 -16   66.39   15.10
   1   1 -16   52.59   15.60
   1   1 -16   22.00   18.80
   1   1 -16   83.69   14.70
   1   1 -16   86.49   18.80
   1   1 -16   71.39   21.00
   0   1 -16   54.39   18.30
   0   1 -16   55.19   16.20
   0   1 -16   71.49   15.80
   0   1 -16   32.20   15.80
   0   1 -16   17.50   13.70
   0  -1  16   46.30   16.00
  -1   1 -16   53.69   18.90
  -1   1 -16   18.50   21.30
  -1   1 -16   64.89   11.80
  -1   1 -16   63.69   15.90
  -1   1 -16  101.09   19.40
  -2   1 -16   43.20   22.30
  -2   1 -16  -17.00   16.00
  -2   1 -16    5.30   18.10
   2  -1  16   14.90   16.60
   2  -1  16    3.40   19.50
  -3   1 -16   15.10   22.30
  -3   1 -16   55.39   20.90
   3  -1  16   56.19   20.00
   3  -1  16   35.80   26.00
  -4   1 -16   -0.70   21.50
  -4   1 -16   38.70   26.10
   4  -1  16   13.70   27.60
   4  -1  16   11.20   20.60
  -5   1 -16   -1.60   28.80
  -5   1 -16   69.09   25.10
   5  -1  16   44.00   28.60
   5  -1  16   66.19   36.80
   6   0 -16  -20.00   33.70
   6   0 -16  -46.30   25.70
   5   0 -16  -11.00   30.80
   5   0 -16    4.60   27.60
   5   0 -16   20.00   37.30
   4   0 -16    7.60   23.90
   4   0 -16   35.90   32.80
   4   0 -16   24.90   25.00
   3   0 -16   57.19   27.70
   3   0 -16   47.10   23.10
   3   0 -16   27.00   21.80
   2   0 -16   92.29   16.80
   2   0 -16  110.29   22.20
   2   0 -16  100.29   23.40
   2   0 -16  119.59   28.80
   1   0 -16   69.09   23.10
   1   0 -16   60.69   16.10
   1   0 -16   28.90   15.40
   1   0 -16   65.69   18.80
   0   0 -16  132.69   22.80
   0   0 -16   83.29   17.70
   0   0 -16  136.39   18.60
   0   0 -16  110.39   18.50
   0   0  16  134.79   21.00
  -1   0 -16  114.89   20.60
  -1   0 -16  101.09   19.40
  -1   0 -16   91.19   17.10
  -1   0 -16   84.19   21.10
   1   0  16  112.19   20.70
  -2   0 -16   46.90   19.20
  -2   0 -16   59.49   20.30
  -2   0 -16   45.40   15.10
   2   0  16    1.20   13.90
   2   0  16   65.69   24.80
  -3   0 -16   13.60   21.10
  -3   0 -16    0.90   17.60
   3   0  16   14.30   18.10
   3   0  16  -29.90   24.40
  -4   0 -16   11.30   21.40
  -4   0 -16   29.40   25.40
   4   0  16    9.20   22.30
   4   0  16   34.00   30.70
  -5   0 -16    5.90   23.70
  -5   0 -16    2.90   28.90
   5   0  16   44.80   27.50
   5   0  16   41.90   34.20
   6  -1 -16   10.50   29.50
   6  -1 -16  -24.60   33.30
   5  -1 -16   15.50   38.40
   5  -1 -16  -32.20   23.70
   5  -1 -16  -16.70   28.60
   4  -1 -16   28.60   26.30
   4  -1 -16   52.49   34.50
   4  -1 -16   71.59   28.30
   3  -1 -16   53.89   30.10
   3  -1 -16   78.89   24.70
   3  -1 -16   75.99   24.50
   2  -1 -16    7.10   13.60
   2  -1 -16    4.70   22.40
   2  -1 -16   15.50   15.20
   2  -1 -16   -2.00   17.80
   1  -1 -16   20.70   21.30
   1  -1 -16   14.50   14.10
   1  -1 -16    8.10   16.00
   1  -1 -16   38.50   15.50
  -1   1  16   17.50   17.50
   0  -1 -16   96.29   18.90
   0  -1 -16  132.09   23.30
   0  -1 -16   94.19   15.20
   0  -1 -16   66.89   18.10
   0   1  16  105.29   20.20
  -1  -1 -16  156.18   23.30
  -1  -1 -16  135.29   22.40
  -1  -1 -16  182.58   23.00
   1   1  16  135.09   15.80
  -2  -1 -16  103.89   23.20
  -2  -1 -16  118.19   23.10
  -2  -1 -16   84.59   20.20
   2   1  16  117.39   18.30
  -3  -1 -16   14.80   20.40
  -3  -1 -16   21.40   22.60
   3   1  16   11.60   18.40
   3   1  16   69.69   30.40
  -4  -1 -16    5.60   21.90
  -4  -1 -16   26.30   25.40
   4   1  16  -25.80   30.40
   4   1  16  -21.30   20.80
  -5  -1 -16   29.40   28.90
  -5  -1 -16  -17.10   23.20
   5   1  16   19.10   25.30
   6  -2 -16   24.30   34.10
   5  -2 -16   31.10   28.80
   5  -2 -16   10.80   30.00
   5  -2 -16   36.60   37.90
   4  -2 -16   21.10   23.90
   4  -2 -16    4.50   30.80
   4  -2 -16   42.90   25.80
   3  -2 -16  105.89   26.40
   3  -2 -16   38.40   21.60
   3  -2 -16   61.79   31.60
   2  -2 -16   51.29   25.30
   2  -2 -16    9.30   19.40
   2  -2 -16   67.59   19.50
   2  -2 -16   64.79   20.20
   1  -2 -16   10.00   14.90
   1  -2 -16   12.70   19.80
   1  -2 -16   14.90   15.80
   1  -2 -16   29.30   17.40
  -1   2  16   46.70   18.70
   0  -2 -16   91.39   18.90
   0  -2 -16   50.49   18.00
   0  -2 -16   71.39   19.60
  -1  -2 -16   31.90   17.60
  -1  -2 -16   57.89   19.40
  -2  -2 -16  683.63   44.80
  -2  -2 -16  676.83   46.90
  -3  -2 -16    1.20   21.90
  -3  -2 -16   32.50   20.50
   3   2  16    3.00   17.50
   3   2  16   46.60   33.20
  -4  -2 -16  -21.00   21.10
  -4  -2 -16    3.90   26.80
   4   2  16   66.39   41.30
   4   2  16   -8.00   20.90
  -5  -2 -16  -14.30   24.80
  -5  -2 -16    2.40   30.30
   5   2  16  -14.90   25.20
   5  -3 -16    5.30   28.00
   4  -3 -16  -13.20   23.20
   4  -3 -16    6.20   30.40
   3  -3 -16  211.08   40.50
   3  -3 -16  208.28   29.60
   3  -3 -16  218.48   34.60
   2  -3 -16   72.89   21.10
   2  -3 -16   87.49   23.30
   2  -3 -16   -2.70   19.70
   2  -3 -16   84.59   28.20
   1  -3 -16   51.09   22.50
   1  -3 -16   47.00   19.40
   1  -3 -16   45.90   20.00
  -1   3  16   44.40   19.00
   0  -3 -16   25.70   17.30
   0  -3 -16   17.70   17.40
   0   3  16    9.60   18.40
  -1  -3 -16   26.70   17.80
  -1  -3 -16    8.10   17.00
  -2  -3 -16   15.30   19.80
  -2  -3 -16  -18.10   18.50
   2   3  16   35.30   24.40
  -3  -3 -16  131.49   27.30
  -3  -3 -16   98.49   29.00
   3   3  16  196.38   41.60
  -4  -3 -16   -3.30   23.20
  -4  -3 -16   26.40   28.60
   4   3  16  -14.00   22.90
  -5  -3 -16   45.50   34.40
  -5  -3 -16  -15.70   25.10
   5  -4 -16   38.80   29.70
   4  -4 -16   30.70   32.80
   4  -4 -16  -29.10   22.90
   3  -4 -16   20.00   29.60
   2  -4 -16  387.96   44.70
   2  -4 -16  344.87   37.20
   2  -4 -16  389.56   36.40
   1  -4 -16   13.30   19.40
   1  -4 -16   25.70   21.50
   1  -4 -16  -35.70   16.00
  -1   4  16   23.80   20.40
   0  -4 -16   31.40   20.30
   0  -4 -16    2.40   17.40
   0   4  16  -14.50   19.30
  -1  -4 -16    8.60   17.40
  -1  -4 -16   24.00   20.10
  -2  -4 -16   29.90   20.80
  -2  -4 -16   41.20   23.00
   2   4  16   57.79   28.50
  -3  -4 -16   46.70   26.40
  -3  -4 -16   65.49   23.00
   3   4  16   45.30   35.60
  -4  -4 -16   14.50   28.00
  -4  -4 -16   14.00   24.80
   4  -5 -16    5.50   21.30
   3  -5 -16   13.20   20.10
   3  -5 -16   16.00   28.90
   2  -5 -16  -21.70   18.10
   2  -5 -16   20.90   24.80
   2  -5 -16   13.10   25.20
   1  -5 -16  329.17   37.90
   1  -5 -16  307.47   37.20
   1  -5 -16  288.17   32.30
  -1   5  16  289.27   35.40
   0  -5 -16    2.70   18.80
   0  -5 -16    6.20   20.40
   0   5  16   12.90   22.40
  -1  -5 -16   -1.90   18.40
  -1  -5 -16   17.70   22.40
  -2  -5 -16   22.70   21.40
  -2  -5 -16   33.10   24.30
  -3  -5 -16   52.59   28.40
  -3  -5 -16    8.00   21.40
  -4  -5 -16    2.40   29.00
  -4  -5 -16  -22.70   23.60
   4  -6 -16    1.70   26.10
   3  -6 -16  100.69   36.50
   3  -6 -16   90.19   27.40
   2  -6 -16   -7.30   24.20
   2  -6 -16  -21.90   23.40
   2  -6 -16  -17.80   24.60
   1  -6 -16   18.30   21.20
   1  -6 -16   37.90   24.30
   1  -6 -16  -19.30   20.80
   0  -6 -16   19.80   21.40
   0  -6 -16   16.00   22.90
  -1  -6 -16   -6.30   23.00
  -1  -6 -16   -8.50   18.80
  -2  -6 -16   -2.90   24.20
  -2  -6 -16    6.10   21.80
  -3  -6 -16    9.90   24.20
  -3  -6 -16   30.70   29.20
  -4  -6 -16   29.20   30.30
   4  -7 -16    4.70   27.50
   3  -7 -16  -51.39   25.00
   2  -7 -16   19.80   26.90
   2  -7 -16  -12.70   27.10
   2  -7 -16   61.89   29.90
   1  -7 -16   -8.90   26.80
   1  -7 -16   -5.40   20.20
   0  -7 -16   17.50   25.10
  -1  -7 -16   59.09   25.90
  -1  -7 -16   48.60   27.80
  -2  -7 -16  -16.20   23.10
  -2  -7 -16   28.60   28.20
  -3  -7 -16   18.20   30.30
  -3  -7 -16   -3.30   25.60
   3  -8 -16   23.90   32.90
   2  -8 -16  -12.10   32.90
   1  -8 -16  -27.60   24.50
   0  -8 -16    9.50   26.60
  -1  -8 -16  -44.10   24.30
  -2  -8 -16   44.80   33.00
   2  -9 -16   -4.00   33.70
   1  -9 -16   -6.10   28.00
   0  -9 -16   18.50   28.40
  -1  -9 -16    3.40   31.70
   2   9 -17   39.30   68.09
   2   9 -17    5.90   28.70
   1   9 -17   48.00   32.50
   3   8 -17  -18.50   47.10
   3   8 -17  -21.90   27.10
   2   8 -17   41.80   28.30
   2   8 -17   51.79   63.09
   1   8 -17   44.90   30.50
   2  -8  17   31.70   33.40
   3  -8  17   65.19   37.70
   4   7 -17   16.00   29.60
   4   7 -17  -35.50   39.20
   4   7 -17  -44.40   40.10
   3   7 -17  -32.40   25.40
   3   7 -17   -3.60   49.10
   3   7 -17  -36.90   33.00
   2   7 -17  -45.90   45.60
   2   7 -17    8.40   25.20
   1   7 -17   36.10   27.70
   1   7 -17   40.90   34.20
   0   7 -17    3.70   33.30
  -1   7 -17   95.59   28.20
   3  -7  17   30.40   33.70
   4  -7  17  -15.90   34.10
   4   6 -17   68.79   39.30
   4   6 -17   46.30   41.00
   4   6 -17   55.19   28.60
   3   6 -17   -9.10   27.30
   3   6 -17   17.50   37.30
   3   6 -17    7.80   25.50
   2   6 -17   -0.60   27.20
   2   6 -17   51.19   46.50
   2   6 -17    5.20   22.70
   1   6 -17    6.40   28.00
   1   6 -17    8.90   20.80
   1   6 -17   10.50   18.80
   0   6 -17  -22.40   27.30
   0  -6  17   46.60   25.80
   3  -6  17   41.00   31.30
   4  -6  17  -51.89   29.80
   4  -6  17   15.30   33.60
   5   5 -17   11.50   41.30
   5   5 -17  -35.90   35.70
   5   5 -17  -14.50   27.90
   4   5 -17    6.70   25.40
   4   5 -17  -28.40   33.00
   4   5 -17   -0.30   31.90
   3   5 -17  102.79   30.40
   3   5 -17   67.29   33.20
   3   5 -17  109.89   43.60
   2   5 -17   29.50   35.40
   2   5 -17   10.60   20.10
   2   5 -17    8.80   25.70
   1   5 -17   20.60   20.20
   1   5 -17    7.20   25.00
   1   5 -17   -6.60   17.80
   0   5 -17   70.89   22.50
   0   5 -17  115.69   32.90
   0  -5  17   58.49   22.50
   0  -5  17   53.99   24.80
  -1   5 -17   43.20   21.60
   1  -5  17   30.00   23.60
  -2   5 -17    1.50   20.50
   2  -5  17    4.30   26.90
   3  -5  17   79.59   31.90
   3  -5  17   51.39   29.90
   4  -5  17  -48.60   27.20
   4  -5  17   29.50   32.30
   5   4 -17   14.10   37.90
   5   4 -17   44.80   29.30
   5   4 -17   13.20   36.20
   4   4 -17   29.40   34.80
   4   4 -17  -18.80   30.40
   4   4 -17  -10.70   21.80
   3   4 -17   11.60   21.20
   3   4 -17  -69.29   27.80
   2   4 -17  115.49   29.10
   2   4 -17  125.89   18.70
   2   4 -17  163.68   29.60
   2   4 -17  162.08   38.40
   1   4 -17   11.50   22.10
   1   4 -17   -1.90   15.20
   1   4 -17   -8.60   14.40
   1   4 -17  -12.70   17.40
  -1  -4  17   24.20   21.20
   0   4 -17   20.60   17.90
   0   4 -17   26.60   18.90
   0   4 -17   -2.30   18.00
   0   4 -17   -9.80   16.50
   0   4 -17   -5.60   23.70
   0  -4  17   -6.60   18.50
  -1   4 -17   43.00   20.80
  -1   4 -17   29.40   19.20
  -1   4 -17   18.10   20.20
   1  -4  17   24.50   21.50
  -2   4 -17   25.00   23.10
  -2   4 -17   47.40   21.30
   2  -4  17   33.90   23.70
  -3   4 -17   10.90   24.00
  -3   4 -17    7.20   20.60
   3  -4  17   18.70   27.10
   3  -4  17   21.70   25.80
  -4   4 -17   31.50   29.60
   4  -4  17    2.50   27.80
   4  -4  17   15.70   30.80
  -5   4 -17  -25.20   32.30
   5  -4  17   25.00   31.80
   5   3 -17    4.30   28.70
   5   3 -17  -25.80   37.60
   5   3 -17  -14.20   31.40
   4   3 -17    2.90   24.30
   4   3 -17    8.70   30.40
   4   3 -17   29.70   37.20
   3   3 -17  -11.70   28.10
   3   3 -17   15.00   22.50
   3   3 -17   11.80   26.20
   2   3 -17   37.50   21.80
   2   3 -17   61.09   32.00
   2   3 -17    4.50   22.20
   1   3 -17   10.60   19.40
   1   3 -17   38.70   18.40
   1   3 -17   32.80   15.80
  -1  -3  17   47.80   19.50
   0   3 -17   45.90   17.40
   0   3 -17   52.29   18.20
   0   3 -17   21.20   24.90
   0   3 -17   55.79   17.70
   0   3 -17   33.10   18.00
   0  -3  17   79.09   19.20
  -1   3 -17   29.70   18.90
  -1   3 -17   19.80   17.10
  -1   3 -17   51.59   26.20
  -1   3 -17   84.19   21.30
   1  -3  17   29.60   18.00
   1  -3  17   28.20   16.30
  -2   3 -17   36.90   21.50
  -2   3 -17   16.60   17.30
   2  -3  17   37.10   22.00
  -3   3 -17   57.99   22.30
  -3   3 -17   22.70   23.90
   3  -3  17   33.70   23.50
   3  -3  17   17.90   26.60
  -4   3 -17   -7.00   22.30
  -4   3 -17  -19.00   26.30
   4  -3  17  -26.90   22.90
   4  -3  17   18.00   30.60
  -5   3 -17  -16.90   30.10
  -5   3 -17   25.60   26.10
   5  -3  17   42.50   31.20
   5  -3  17   -4.10   31.00
   5   2 -17    2.20   38.10
   5   2 -17    5.00   25.90
   5   2 -17    4.20   31.10
   4   2 -17   11.40   24.30
   4   2 -17   -5.90   28.10
   4   2 -17   21.20   29.90
   3   2 -17    4.20   25.20
   3   2 -17  -33.80   26.30
   3   2 -17  -36.30   19.90
   2   2 -17   11.80   19.80
   2   2 -17   41.70   19.80
   2   2 -17  -21.10   22.30
   1   2 -17   50.79   21.30
   1   2 -17  107.89   21.70
   1   2 -17   58.09   15.00
   1   2 -17   43.40   15.90
  -1  -2  17   24.10   16.20
   0   2 -17   21.60   20.50
   0   2 -17   19.70   14.50
   0   2 -17    8.20   13.40
   0   2 -17  -21.50   13.80
   0   2 -17    2.00   14.60
   0  -2  17   13.80   14.70
  -1   2 -17  126.09   28.90
  -1   2 -17  111.29   17.10
  -1   2 -17   81.99   19.60
  -1   2 -17  113.79   22.60
  -1   2 -17  138.89   22.00
   1  -2  17  105.89   21.30
  -2   2 -17   80.89   21.30
  -2   2 -17   61.69   20.40
  -2   2 -17   63.19   22.40
   2  -2  17   57.09   22.80
  -3   2 -17   22.40   23.10
  -3   2 -17  -14.30   19.50
   3  -2  17   27.30   25.50
   3  -2  17   -5.70   20.40
  -4   2 -17  -23.40   24.20
  -4   2 -17   14.40   21.70
   4  -2  17    3.90   27.00
   4  -2  17   -2.00   22.80
  -5   2 -17    6.30   23.80
  -5   2 -17   22.90   30.60
   5  -2  17    8.80   27.50
   5  -2  17   -0.10   30.70
   5   1 -17  -15.70   35.90
   5   1 -17    9.20   30.50
   5   1 -17  -27.30   27.60
   4   1 -17  -62.99   27.60
   4   1 -17  -31.60   23.50
   4   1 -17   -8.30   23.00
   3   1 -17  -10.40   27.00
   3   1 -17    4.80   21.30
   3   1 -17   16.70   23.70
   2   1 -17   -2.00   22.80
   2   1 -17   22.50   12.70
   2   1 -17   32.40   19.80
   2   1 -17   26.50   17.70
   1   1 -17  -15.60   13.20
   1   1 -17   11.90   13.40
   1   1 -17   37.20   19.80
   1   1 -17  -16.00   16.80
   1   1 -17    6.10   15.60
  -1  -1  17    5.80   14.10
   0   1 -17   66.39   16.00
   0   1 -17  100.39   17.50
   0   1 -17   79.69   20.90
   0   1 -17   38.60   16.40
   0   1 -17   68.79   17.90
   0  -1  17   49.70   17.50
  -1   1 -17   39.20   17.60
  -1   1 -17   40.90   23.80
  -1   1 -17   13.90   14.60
  -1   1 -17   38.80   12.10
  -1   1 -17   19.50   16.70
   1  -1  17   11.80   16.50
   1  -1  17   34.90   18.80
  -2   1 -17   26.60   19.10
  -2   1 -17   -0.10   15.40
  -2   1 -17   57.09   25.30
  -2   1 -17   31.80   20.40
   2  -1  17   57.69   19.10
   2  -1  17    2.20   21.30
  -3   1 -17  -12.20   20.30
  -3   1 -17   70.39   22.00
   3  -1  17   16.40   25.20
   3  -1  17   28.10   19.30
  -4   1 -17   19.30   21.90
  -4   1 -17  -13.10   24.20
   4  -1  17  -18.40   25.40
   4  -1  17    2.90   21.30
  -5   1 -17   28.70   24.50
  -5   1 -17   59.89   33.20
   5  -1  17  -19.90   30.50
   5  -1  17   26.90   26.30
   5   0 -17   71.69   43.50
   5   0 -17   37.50   30.00
   5   0 -17   13.20   32.60
   4   0 -17    4.10   23.10
   4   0 -17   -4.20   24.90
   4   0 -17   10.80   32.10
   3   0 -17   29.20   27.00
   3   0 -17   15.70   20.10
   3   0 -17   50.39   22.90
   2   0 -17  108.89   21.90
   2   0 -17   67.49   15.70
   2   0 -17   93.69   23.10
   2   0 -17   73.19   27.30
   1   0 -17   58.19   16.80
   1   0 -17   57.29   16.20
   1   0 -17   50.49   18.40
   1   0 -17  103.19   24.90
   0   0 -17   90.09   19.00
   0   0 -17  111.39   23.30
   0   0 -17   64.29   18.10
   0   0 -17  119.59   18.10
   0   0  17   97.49   20.30
  -1   0 -17  259.67   27.90
  -1   0 -17  248.18   28.90
  -1   0 -17  302.17   26.40
  -1   0 -17  264.97   28.80
   1   0  17  245.58   27.20
  -2   0 -17   54.09   21.20
  -2   0 -17   90.79   22.40
   2   0  17   99.79   27.30
   2   0  17  111.59   19.30
  -3   0 -17   58.09   22.40
  -3   0 -17   47.00   24.00
   3   0  17  -25.50   26.40
   3   0  17   31.30   20.40
  -4   0 -17   22.20   22.50
  -4   0 -17   53.29   27.70
   4   0  17    3.40   29.30
   4   0  17   10.30   22.30
  -5   0 -17  -18.70   24.70
  -5   0 -17    4.10   27.60
   5   0  17   -7.20   32.00
   5   0  17  -19.80   24.40
   5  -1 -17   -8.50   27.80
   5  -1 -17  -14.50   25.80
   4  -1 -17   15.70   24.50
   4  -1 -17    2.50   32.20
   4  -1 -17   28.60   27.20
   3  -1 -17   54.99   23.40
   3  -1 -17   60.69   30.40
   3  -1 -17   -3.00   20.90
   2  -1 -17   44.60   16.20
   2  -1 -17   59.39   21.90
   2  -1 -17   65.69   26.20
   1  -1 -17   51.59   24.20
   1  -1 -17   27.30   16.20
   1  -1 -17   40.60   17.40
   1  -1 -17   41.50   15.10
   0  -1 -17   44.00   17.10
   0  -1 -17   63.19   21.50
   0  -1 -17   47.00   17.10
   0  -1 -17   22.60   12.40
   0   1  17   29.70   18.60
  -1  -1 -17   10.90   15.50
  -1  -1 -17   42.20   18.30
  -1  -1 -17   36.80   18.00
  -2  -1 -17   49.90   20.60
  -2  -1 -17   40.40   19.80
   2   1  17   44.60   15.30
  -3  -1 -17   22.60   23.30
  -3  -1 -17   44.80   24.10
   3   1  17   44.60   20.10
  -4  -1 -17   31.70   27.60
  -4  -1 -17   -9.20   22.80
   4   1  17   20.00   22.10
  -5  -1 -17   32.10   25.30
  -5  -1 -17   -0.80   29.40
   5   1  17   34.50   28.40
   5  -2 -17   28.20   38.70
   5  -2 -17   24.90   31.50
   5  -2 -17   -6.10   27.10
   4  -2 -17   -3.40   23.80
   4  -2 -17   25.40   25.00
   4  -2 -17   -7.50   30.30
   3  -2 -17   92.79   24.20
   3  -2 -17   55.79   25.90
   3  -2 -17   97.89   32.30
   2  -2 -17   19.50   20.10
   2  -2 -17   12.80   24.10
   2  -2 -17   -1.80   18.50
   2  -2 -17    1.90   17.80
   1  -2 -17   22.40   21.10
   1  -2 -17   43.70   18.60
   1  -2 -17   11.90   16.20
  -1   2  17   28.10   19.10
   0  -2 -17   41.60   18.50
   0  -2 -17   21.10   19.00
   0  -2 -17    6.30   16.90
   0   2  17   21.40   18.30
  -1  -2 -17   42.00   20.30
  -1  -2 -17   30.80   18.00
  -2  -2 -17  261.07   32.70
  -2  -2 -17  264.47   30.40
  -3  -2 -17   62.39   25.80
  -3  -2 -17   35.40   23.40
   3   2  17   33.30   19.50
  -4  -2 -17   15.90   24.30
  -4  -2 -17  -19.80   25.80
   4   2  17    3.70   22.20
  -5  -2 -17  -28.20   24.40
  -5  -2 -17  -39.70   31.70
   5   2  17  -33.50   25.10
   5  -3 -17   22.00   37.00
   5  -3 -17   -1.60   28.40
   4  -3 -17   -5.10   24.50
   4  -3 -17   -4.80   33.30
   3  -3 -17  266.37   38.00
   3  -3 -17  314.37   47.00
   3  -3 -17  296.17   33.90
   2  -3 -17   69.99   23.20
   2  -3 -17   62.89   24.40
   2  -3 -17   54.79   27.30
   2  -3 -17   81.19   21.10
   1  -3 -17   98.89   21.70
   1  -3 -17   91.49   22.10
   1  -3 -17   93.59   24.80
  -1   3  17   90.09   21.90
   0  -3 -17   16.40   17.20
   0  -3 -17    9.10   17.10
   0  -3 -17    1.10   16.30
   0   3  17   13.60   18.60
  -1  -3 -17   17.40   18.90
  -1  -3 -17   18.10   18.30
  -2  -3 -17   97.79   25.00
  -2  -3 -17   90.99   24.70
   2   3  17  104.89   28.60
  -3  -3 -17  146.69   29.30
  -3  -3 -17  119.99   31.50
   3   3  17  199.88   43.90
  -4  -3 -17    5.00   27.40
  -4  -3 -17  -24.20   22.90
   5  -4 -17   30.30   30.50
   5  -4 -17    5.00   37.50
   4  -4 -17   17.90   27.00
   4  -4 -17   34.70   32.80
   3  -4 -17   53.89   32.90
   3  -4 -17   68.29   26.00
   2  -4 -17   89.19   24.40
   2  -4 -17  127.69   30.80
   2  -4 -17   68.69   26.40
   1  -4 -17  247.48   32.70
   1  -4 -17  212.78   28.80
   1  -4 -17  231.28   33.10
  -1   4  17  219.38   30.20
   0  -4 -17   16.20   17.90
   0  -4 -17   27.70   20.00
   0   4  17   16.50   21.10
  -1  -4 -17    0.60   18.80
  -1  -4 -17   24.90   20.80
  -2  -4 -17  -23.30   18.10
  -2  -4 -17   -0.90   20.70
   2   4  17   14.60   26.40
  -3  -4 -17   47.20   26.40
  -3  -4 -17   35.50   25.20
  -4  -4 -17   55.49   26.70
  -4  -4 -17   40.00   31.70
   5  -5 -17   62.99   42.00
   4  -5 -17    6.30   33.80
   3  -5 -17  -22.50   25.70
   2  -5 -17   36.00   21.70
   2  -5 -17    7.00   26.50
   2  -5 -17   25.60   25.70
   1  -5 -17    8.50   20.80
   1  -5 -17   15.80   19.60
   1  -5 -17   -3.00   24.00
  -1   5  17   -0.60   22.60
   0  -5 -17    2.70   22.20
   0  -5 -17    6.20   18.70
   0   5  17  -37.80   20.20
  -1  -5 -17    2.90   19.50
  -1  -5 -17  -12.50   19.50
  -2  -5 -17    4.00   22.80
  -2  -5 -17    9.80   21.40
  -3  -5 -17   31.00   23.40
  -3  -5 -17   13.70   25.40
  -4  -5 -17  -10.20   23.90
  -4  -5 -17   36.60   31.90
   4  -6 -17  -16.60   23.30
   3  -6 -17   45.30   23.30
   3  -6 -17   56.49   33.90
   2  -6 -17  -12.00   23.70
   2  -6 -17    8.00   25.60
   2  -6 -17  -18.80   26.90
   1  -6 -17  111.89   29.80
   1  -6 -17   81.09   26.90
   1  -6 -17   73.69   25.50
   0  -6 -17   30.80   21.30
   0  -6 -17    2.50   22.70
  -1  -6 -17  -12.40   23.10
  -1  -6 -17  -25.10   19.60
  -2  -6 -17  -25.90   23.50
  -2  -6 -17   28.10   22.60
  -3  -6 -17  -24.20   26.80
  -3  -6 -17   21.00   25.20
   4  -7 -17  -12.20   28.70
   3  -7 -17  -15.40   27.10
   3  -7 -17   11.00   31.90
   2  -7 -17   37.20   30.00
   2  -7 -17   -9.90   26.80
   2  -7 -17   -2.40   27.50
   1  -7 -17  -26.10   25.40
   1  -7 -17    5.10   21.70
   0  -7 -17    5.50   24.10
   0  -7 -17   32.00   26.20
  -1  -7 -17   -0.90   22.10
  -1  -7 -17    0.80   26.70
  -2  -7 -17   -2.30   25.10
  -2  -7 -17   -4.00   28.20
  -3  -7 -17    0.60   25.20
  -3  -7 -17  -46.40   30.20
   3  -8 -17   -0.40   31.50
   2  -8 -17  -14.00   26.50
   2  -8 -17   17.50   32.20
   1  -8 -17   -5.60   27.00
   0  -8 -17    0.90   26.10
  -1  -8 -17  -22.30   27.20
  -2  -8 -17    8.10   30.70
   2  -9 -17  -32.40   37.20
   1  -9 -17  -31.90   27.10
   0  -9 -17   -6.70   28.80
  -1  -9 -17    2.20   30.90
   2   9 -18  189.48   80.79
   2   9 -18  -34.20   27.40
   1   9 -18  -50.59   29.10
   3   8 -18   20.00   51.59
   3   8 -18   11.30   30.90
   2   8 -18   83.19   64.29
   2   8 -18   -2.60   27.50
   1   8 -18  -32.10   28.50
   3  -8  18   22.70   35.80
   4   7 -18  -61.69   41.00
   4   7 -18   -5.30   27.20
   4   7 -18   -6.90   40.70
   3   7 -18   14.50   29.20
   3   7 -18   19.80   45.60
   3   7 -18  -61.69   31.20
   2   7 -18  -40.90   47.10
   2   7 -18   43.40   30.10
   2   7 -18   29.10   25.90
   1   7 -18   18.00   26.60
   3  -7  18  -17.20   32.10
   4   6 -18   16.60   33.60
   4   6 -18   33.50   28.50
   4   6 -18   28.50   39.90
   3   6 -18   35.80   31.80
   3   6 -18   26.80   37.70
   3   6 -18   10.20   27.10
   2   6 -18  -17.70   21.40
   2   6 -18   -0.40   29.40
   2   6 -18  111.09   53.69
   1   6 -18    0.90   22.90
   1   6 -18   61.69   35.80
   0   6 -18   11.70   30.20
   3  -6  18    6.30   32.30
   4  -6  18    5.40   32.60
   4  -6  18   29.80   35.50
   5   5 -18   -2.70   37.40
   5   5 -18  -23.40   39.30
   4   5 -18  -15.50   33.70
   4   5 -18  -10.10   24.50
   4   5 -18   -4.60   37.50
   3   5 -18  160.38   33.40
   3   5 -18   94.89   39.40
   3   5 -18   38.60   31.00
   2   5 -18    9.50   15.00
   2   5 -18   41.40   23.70
   2   5 -18   -3.60   25.50
   1   5 -18    2.70   20.00
   1   5 -18   36.40   32.60
   1   5 -18   16.20   18.50
   0   5 -18   53.39   33.10
   0   5 -18  103.29   23.50
  -1   5 -18  -10.60   18.80
   1  -5  18   20.40   25.00
  -2   5 -18   31.50   23.20
   3  -5  18  135.79   36.10
   3  -5  18   47.40   29.90
   4  -5  18   -7.90   30.90
   5   4 -18  -20.70   27.10
   5   4 -18  -24.60   36.30
   5   4 -18  -31.90   34.30
   4   4 -18   23.10   26.10
   4   4 -18  -27.90   29.60
   4   4 -18   63.79   38.30
   3   4 -18  -28.00   27.80
   3   4 -18  -34.50   30.90
   3   4 -18   11.70   23.90
   2   4 -18  265.87   50.29
   2   4 -18  111.19   33.20
   2   4 -18  161.28   30.30
   1   4 -18    4.90   15.10
   1   4 -18    4.00   15.80
   1   4 -18   18.60   19.50
   1   4 -18  -23.30   26.40
  -1  -4  18   -0.10   20.60
   0   4 -18   52.29   30.10
   0   4 -18   60.69   20.60
   0   4 -18   66.39   21.00
   0   4 -18   34.60   18.40
   0   4 -18   56.29   20.80
   0  -4  18   76.29   22.60
  -1   4 -18   20.20   20.20
  -1   4 -18   10.80   28.40
  -1   4 -18   24.40   18.60
   1  -4  18  -21.20   22.30
  -2   4 -18   62.99   22.50
  -2   4 -18   93.79   27.30
   2  -4  18   25.10   22.40
  -3   4 -18    0.60   20.80
  -3   4 -18  -23.10   23.10
   3  -4  18   -7.00   26.30
   3  -4  18   39.80   28.60
  -4   4 -18  -24.40   26.60
   4  -4  18   18.30   31.00
   4  -4  18  -21.90   25.40
   5   3 -18   14.70   34.60
   5   3 -18    5.90   39.20
   5   3 -18  -13.10   27.10
   4   3 -18   36.40   27.20
   4   3 -18   18.50   30.20
   4   3 -18    1.60   31.00
   3   3 -18    4.50   27.80
   3   3 -18    0.40   21.20
   3   3 -18  -16.90   23.20
   2   3 -18    7.40   26.60
   2   3 -18   47.30   21.40
   2   3 -18    2.50   23.90
   1   3 -18   97.29   22.60
   1   3 -18   56.99   21.30
   1   3 -18   57.99   16.10
   1   3 -18   46.40   17.40
   0   3 -18   17.20   15.50
   0   3 -18   23.90   16.50
   0   3 -18   13.80   15.80
   0   3 -18   15.90   17.70
   0   3 -18   22.10   24.10
  -1   3 -18   -9.70   25.00
  -1   3 -18  -24.80   18.00
  -1   3 -18   20.90   19.50
  -1   3 -18   31.90   17.50
   1  -3  18    1.00   16.40
  -2   3 -18   34.00   19.30
  -2   3 -18    2.30   21.70
   2  -3  18   -7.20   21.50
  -3   3 -18    8.90   20.70
  -3   3 -18    2.30   24.70
   3  -3  18   -8.90   26.20
   3  -3  18   45.70   26.20
  -4   3 -18  -15.00   26.00
  -4   3 -18    5.00   23.90
   4  -3  18   -4.00   29.40
   4  -3  18  -17.80   23.80
  -5   3 -18   36.30   26.60
   5  -3  18    5.30   30.20
   5   2 -18   78.19   42.50
   5   2 -18   27.50   28.90
   5   2 -18   17.10   33.00
   4   2 -18    1.70   28.10
   4   2 -18  -29.50   31.00
   4   2 -18  -14.70   23.60
   3   2 -18    5.00   29.70
   3   2 -18   -9.50   20.60
   3   2 -18   25.20   24.70
   2   2 -18   24.60   26.10
   2   2 -18   68.29   15.10
   2   2 -18    5.40   22.90
   2   2 -18   47.30   22.10
   1   2 -18   36.40   18.90
   1   2 -18   16.00   21.00
   1   2 -18   21.30   14.20
   1   2 -18    4.40   13.50
  -1  -2  18   35.30   16.30
   0   2 -18   14.60   16.90
   0   2 -18   34.60   15.50
   0   2 -18   38.30   23.60
   0   2 -18    1.20   16.00
   0  -2  18   18.00   15.70
  -1   2 -18  166.48   25.70
  -1   2 -18  132.09   23.00
  -1   2 -18  188.58   32.10
  -1   2 -18  142.19   19.30
  -1   2 -18  155.18   22.40
   1  -2  18  122.59   21.90
  -2   2 -18   15.80   19.80
  -2   2 -18    3.90   19.80
  -2   2 -18   55.99   29.00
   2  -2  18   38.30   22.60
  -3   2 -18    7.40   21.20
  -3   2 -18   12.40   22.70
   3  -2  18   20.20   21.10
   3  -2  18   10.90   25.90
  -4   2 -18  -38.90   24.20
  -4   2 -18    2.70   22.30
   4  -2  18  -40.30   26.10
   4  -2  18    2.20   23.70
  -5   2 -18    5.00   24.50
  -5   2 -18  -28.30   28.30
   5  -2  18   23.70   30.90
   5  -2  18  -14.10   26.30
   5   1 -18   -2.30   39.90
   5   1 -18   -2.50   29.50
   5   1 -18   45.10   30.20
   4   1 -18   -4.30   31.00
   4   1 -18   11.70   25.30
   4   1 -18   39.50   25.90
   3   1 -18   12.20   21.40
   3   1 -18   13.40   23.70
   3   1 -18   -2.80   29.10
   2   1 -18   40.40   13.40
   2   1 -18   11.90   18.80
   2   1 -18   14.90   24.30
   2   1 -18   37.40   17.60
   1   1 -18    8.80   14.80
   1   1 -18    0.20   13.10
   1   1 -18   -9.70   20.50
   1   1 -18   31.10   17.40
   1   1 -18    2.90   18.90
  -1  -1  18    1.90   14.40
   0   1 -18   76.39   22.20
   0   1 -18   38.60   15.60
   0   1 -18   64.49   16.30
   0   1 -18   31.00   16.60
   0   1 -18   25.40   16.80
   0  -1  18   58.29   18.50
  -1   1 -18   58.09   18.20
  -1   1 -18   45.20   19.50
  -1   1 -18   54.39   23.20
  -1   1 -18   43.80   12.60
  -1   1 -18   33.90   14.40
   1  -1  18   43.40   18.20
  -2   1 -18   75.09   24.00
  -2   1 -18   75.49   19.50
  -2   1 -18  167.98   24.90
  -2   1 -18  160.48   29.10
   2  -1  18  121.99   26.00
   2  -1  18   82.59   20.70
  -3   1 -18   -6.40   21.50
  -3   1 -18   15.30   20.40
   3  -1  18    7.20   25.60
   3  -1  18    0.30   18.80
  -4   1 -18    7.20   22.70
  -4   1 -18    8.70   26.50
   4  -1  18   12.90   22.60
   4  -1  18  -27.80   28.20
  -5   1 -18   12.30   25.80
  -5   1 -18   -9.50   30.20
   5  -1  18  -25.00   25.60
   5  -1  18    0.80   32.00
   5   0 -18   11.60   37.80
   5   0 -18   -1.10   31.40
   5   0 -18   -4.10   27.40
   4   0 -18   10.00   25.40
   4   0 -18    9.70   31.90
   4   0 -18   32.50   25.30
   3   0 -18   34.40   27.10
   3   0 -18  -13.00   21.70
   3   0 -18   14.10   21.00
   2   0 -18    7.40   13.60
   2   0 -18   51.89   21.50
   2   0 -18   25.00   25.10
   2   0 -18   30.60   17.40
   1   0 -18   51.89   18.50
   1   0 -18    9.80   14.80
   1   0 -18   10.30   22.80
   1   0 -18    0.10   14.40
   0   0 -18   46.90   15.30
   0   0 -18   47.00   17.40
   0   0 -18   55.49   16.70
   0   0 -18   71.79   22.00
   0   0  18   52.79   19.70
  -1   0 -18  150.48   24.90
  -1   0 -18  163.28   25.10
  -1   0 -18  136.89   24.40
  -1   0 -18  136.19   20.90
   1   0  18  136.19   23.50
  -2   0 -18   41.20   20.30
  -2   0 -18   38.00   18.00
  -2   0 -18   18.90   19.90
   2   0  18   45.90   17.10
   2   0  18  105.79   26.70
  -3   0 -18   52.59   24.20
  -3   0 -18   33.90   22.10
   3   0  18   61.39   29.20
   3   0  18   50.89   21.20
  -4   0 -18   31.70   27.70
  -4   0 -18   20.30   23.90
   4   0  18   41.70   24.80
   4   0  18   16.40   31.60
  -5   0 -18   18.70   26.10
  -5   0 -18  -26.10   30.20
   5   0  18  -12.80   32.80
   5   0  18   -4.20   24.90
   5  -1 -18   17.40   40.20
   5  -1 -18   18.80   30.30
   5  -1 -18  -15.00   26.30
   4  -1 -18  -24.40   24.00
   4  -1 -18  -28.80   31.20
   4  -1 -18   35.10   26.90
   3  -1 -18  285.07   36.90
   3  -1 -18  289.37   45.70
   3  -1 -18  291.17   38.10
   2  -1 -18  130.89   21.70
   2  -1 -18  204.98   33.20
   2  -1 -18  164.58   28.90
   1  -1 -18   12.10   15.70
   1  -1 -18    4.50   15.70
   1  -1 -18   42.10   18.70
   1  -1 -18   -5.90   22.70
   0  -1 -18   19.70   16.40
   0  -1 -18  -19.80   20.00
   0  -1 -18  -11.00   10.30
   0  -1 -18   10.40   15.80
   0   1  18  -10.50   17.70
  -1  -1 -18    1.30   17.50
  -1  -1 -18    9.70   18.20
  -1  -1 -18   13.50   16.20
  -1  -1 -18   40.80   18.00
  -2  -1 -18   28.30   21.70
  -2  -1 -18   22.00   20.10
   2   1  18   41.10   15.30
  -3  -1 -18   58.09   25.70
  -3  -1 -18   59.59   24.80
   3   1  18   37.70   19.70
  -4  -1 -18   35.00   26.40
  -4  -1 -18   -1.60   22.70
   4   1  18  -20.60   21.00
  -5  -1 -18   -4.30   30.30
  -5  -1 -18   44.40   27.40
   5   1  18  -28.80   25.10
   5  -2 -18    4.20   38.80
   5  -2 -18   17.20   28.20
   5  -2 -18    2.70   28.50
   4  -2 -18   -3.30   31.50
   4  -2 -18  -14.70   23.70
   4  -2 -18   -3.40   25.10
   3  -2 -18  -21.00   18.50
   3  -2 -18    5.10   22.10
   3  -2 -18   24.20   29.50
   3  -2 -18   26.40   19.10
   2  -2 -18  150.58   26.60
   2  -2 -18  144.29   27.50
   2  -2 -18  161.38   25.50
   2  -2 -18  216.18   36.70
   1  -2 -18   66.29   18.90
   1  -2 -18   51.49   18.60
   1  -2 -18   92.59   26.20
   1  -2 -18   22.40   17.70
   0  -2 -18   11.40   17.00
   0  -2 -18   13.50   17.10
   0  -2 -18   17.20   19.70
   0   2  18   -2.40   17.90
  -1  -2 -18   23.30   19.10
  -1  -2 -18   32.70   20.10
   1   2  18  -10.10   18.70
  -2  -2 -18  173.78   30.30
  -2  -2 -18  171.58   27.60
  -3  -2 -18   18.30   24.30
  -3  -2 -18   17.40   22.60
   3   2  18   25.20   20.30
  -4  -2 -18    3.60   24.40
  -4  -2 -18   29.40   29.20
   4   2  18   -8.70   21.80
   5  -3 -18   29.90   29.60
   5  -3 -18   42.10   36.50
   4  -3 -18   18.20   26.00
   4  -3 -18  -10.70   30.90
   3  -3 -18  150.78   26.60
   3  -3 -18  130.89   36.00
   3  -3 -18  132.89   26.50
   3  -3 -18  109.39   30.40
   2  -3 -18    6.10   21.10
   2  -3 -18   26.40   20.60
   2  -3 -18   26.60   22.80
   2  -3 -18   14.70   25.00
   1  -3 -18  102.19   21.50
   1  -3 -18  116.09   23.90
   1  -3 -18   52.79   23.70
  -1   3  18  105.59   23.40
   0  -3 -18    5.20   17.10
   0  -3 -18    8.30   18.70
   0  -3 -18   15.70   18.60
  -1  -3 -18   18.10   20.00
  -1  -3 -18    2.90   18.80
  -2  -3 -18  112.09   27.00
  -2  -3 -18  104.59   27.30
  -3  -3 -18   32.00   23.80
  -3  -3 -18   -6.30   24.10
  -4  -3 -18   28.90   26.00
  -4  -3 -18   58.09   33.70
   5  -4 -18    6.40   38.90
   5  -4 -18  -12.20   27.50
   4  -4 -18  -14.30   24.70
   4  -4 -18   42.80   34.20
   3  -4 -18   66.89   31.30
   2  -4 -18   -6.90   23.00
   2  -4 -18    4.40   24.00
   2  -4 -18   56.99   23.10
   1  -4 -18   85.29   25.60
   1  -4 -18    1.90   19.90
   1  -4 -18   33.70   21.80
  -1   4  18    9.30   21.90
   0  -4 -18   18.50   18.80
   0  -4 -18   -5.60   19.00
  -1  -4 -18   51.69   22.20
  -1  -4 -18   27.20   20.50
  -2  -4 -18    5.10   22.10
  -2  -4 -18   10.00   20.00
  -3  -4 -18    6.00   22.80
  -3  -4 -18   36.20   27.00
  -4  -4 -18   26.50   30.20
  -4  -4 -18   -8.10   25.50
   5  -5 -18   -2.70   38.70
   4  -5 -18   27.50   35.10
   3  -5 -18   -3.70   28.80
   2  -5 -18   19.20   25.90
   2  -5 -18    8.70   25.90
   2  -5 -18   55.09   26.40
   1  -5 -18  -15.50   23.80
   1  -5 -18  -29.30   19.30
   1  -5 -18    8.90   19.90
  -1   5  18  -13.00   24.00
   0  -5 -18  -18.00   17.80
   0  -5 -18   18.70   21.90
  -1  -5 -18   17.40   21.60
  -1  -5 -18   35.60   21.90
  -2  -5 -18    4.40   21.80
  -2  -5 -18   39.30   24.90
  -3  -5 -18  -10.80   28.80
  -3  -5 -18   17.30   23.40
  -4  -5 -18  -24.90   32.00
  -4  -5 -18    2.40   26.70
   4  -6 -18  -29.40   32.50
   3  -6 -18   15.70   31.00
   2  -6 -18   16.80   27.30
   2  -6 -18   22.90   27.80
   1  -6 -18   52.19   23.80
   1  -6 -18   44.10   25.00
   1  -6 -18   81.69   30.10
  -1   6  18   32.10   27.10
   0  -6 -18   -4.40   19.60
   0  -6 -18   12.30   24.90
  -1  -6 -18   14.10   23.80
  -1  -6 -18  -12.90   22.10
  -2  -6 -18   24.40   24.50
  -2  -6 -18  -15.60   25.50
  -3  -6 -18    0.90   24.40
  -3  -6 -18    8.30   29.10
   3  -7 -18    3.20   25.90
   2  -7 -18   13.70   27.40
   2  -7 -18  -25.70   26.00
   2  -7 -18   26.40   31.00
   1  -7 -18   32.60   23.30
   1  -7 -18  -12.40   26.80
   0  -7 -18  -12.70   23.40
   0  -7 -18    7.00   24.80
  -1  -7 -18   47.10   29.80
  -1  -7 -18   17.30   26.30
  -2  -7 -18  -17.50   23.90
  -2  -7 -18   36.60   30.60
   3  -8 -18  -13.70   30.30
   2  -8 -18   15.30   28.40
   2  -8 -18  -14.50   28.70
   1  -8 -18   13.60   30.90
   0  -8 -18   33.20   28.60
  -1  -8 -18   -5.40   29.60
  -2  -8 -18   51.09   34.40
   1  -9 -18   23.50   30.40
   0  -9 -18  -41.70   28.90
   2   9 -19  159.28   86.19
   1   9 -19  -34.90   28.80
   3   8 -19  -60.89   57.89
   3   8 -19  -14.40   30.40
   2   8 -19  -17.50   57.79
   2   8 -19  -28.80   25.00
   1   8 -19    4.20   28.40
   4   7 -19  -40.90   39.10
   3   7 -19   28.30   30.20
   3   7 -19    3.60   43.40
   2   7 -19  -17.90   47.90
   2   7 -19    2.40   25.00
   1   7 -19   72.69   28.90
   3  -7  19   47.00   36.90
   4   6 -19   17.50   36.30
   4   6 -19   23.80   30.40
   4   6 -19    0.80   38.10
   3   6 -19   15.60   29.50
   3   6 -19    3.10   26.40
   3   6 -19   21.90   38.00
   2   6 -19   20.90   24.40
   2   6 -19   27.80   31.00
   2   6 -19   96.39   48.80
   1   6 -19    0.10   23.70
   0   6 -19   28.60   33.60
  -1   6 -19   27.70   22.20
   3  -6  19   29.30   33.90
   4  -6  19  -10.10   33.30
   4   5 -19   -8.20   27.60
   4   5 -19   10.00   34.50
   4   5 -19  -60.29   35.80
   3   5 -19    1.40   26.00
   3   5 -19   48.40   28.90
   3   5 -19   48.50   33.60
   2   5 -19  -29.80   21.20
   2   5 -19    2.90   15.60
   2   5 -19   55.89   48.60
   2   5 -19  -67.29   29.00
   1   5 -19  -15.60   20.40
   1   5 -19   16.10   26.30
   1   5 -19   17.80   18.40
   0   5 -19   40.00   20.00
   0   5 -19   42.30   24.00
   0   5 -19   51.59   32.60
  -1   5 -19   30.10   32.10
   1  -5  19   -3.10   24.20
   3  -5  19   52.19   32.80
   3  -5  19    6.40   28.00
   4  -5  19   37.30   32.50
   5   4 -19  -39.80   37.00
   5   4 -19   -6.40   36.00
   5   4 -19   15.00   30.50
   4   4 -19  -18.60   24.90
   4   4 -19  -26.60   33.80
   4   4 -19   -0.70   32.30
   3   4 -19  -43.60   30.20
   3   4 -19  -85.89   28.80
   3   4 -19    8.10   23.40
   2   4 -19   -6.60   24.10
   2   4 -19   31.30   31.20
   2   4 -19    5.60   20.70
   1   4 -19   21.50   19.20
   1   4 -19   -3.50   17.90
   1   4 -19  -11.30   21.40
   1   4 -19  -17.60   14.80
   0   4 -19  110.49   30.70
   0   4 -19   86.69   22.90
   0   4 -19   81.79   20.70
   0   4 -19  116.89   24.40
   0  -4  19   92.29   23.70
  -1   4 -19    0.00   18.10
  -1   4 -19   -7.40   20.10
  -1   4 -19  -52.29   30.60
   1  -4  19   12.60   21.90
  -2   4 -19   18.60   22.80
  -2   4 -19   18.50   18.90
   2  -4  19   29.10   23.70
  -3   4 -19   32.70   22.40
   3  -4  19  -19.40   26.30
   3  -4  19   20.70   29.50
   4  -4  19   -7.40   26.70
   5   3 -19   16.70   29.40
   5   3 -19   66.99   44.60
   5   3 -19   23.70   34.10
   4   3 -19   25.60   29.60
   4   3 -19   -3.10   35.30
   4   3 -19    8.70   26.90
   3   3 -19   31.30   23.70
   3   3 -19  -38.50   28.90
   2   3 -19   57.09   31.60
   2   3 -19   11.60   13.70
   2   3 -19   11.90   21.10
   2   3 -19  -18.30   21.80
   1   3 -19   25.10   16.00
   1   3 -19    6.60   15.40
   1   3 -19  -29.20   21.80
   1   3 -19    1.40   18.90
   0   3 -19    9.70   17.20
   0   3 -19   30.70   24.60
   0   3 -19   -1.20   15.90
   0   3 -19  -12.70   17.60
   0  -3  19   -0.70   16.90
  -1   3 -19    0.20   16.80
  -1   3 -19   33.80   18.30
  -1   3 -19    8.30   19.70
  -1   3 -19   39.10   19.60
  -1   3 -19    3.70   26.80
   1  -3  19  -21.20   17.40
  -2   3 -19   19.20   20.60
  -2   3 -19    9.30   20.60
   2  -3  19   29.00   23.10
  -3   3 -19  -14.70   24.50
  -3   3 -19   29.80   22.90
   3  -3  19   46.70   25.60
   3  -3  19   43.80   28.10
  -4   3 -19   28.70   24.60
  -4   3 -19   38.00   27.80
   4  -3  19   27.20   26.30
   5   2 -19   16.10   39.90
   5   2 -19   -9.50   31.00
   5   2 -19   15.00   28.00
   4   2 -19   -3.70   23.60
   4   2 -19   25.40   33.80
   4   2 -19    9.90   28.00
   3   2 -19   54.49   26.30
   3   2 -19   74.79   32.60
   3   2 -19   53.29   24.60
   2   2 -19   47.30   21.50
   2   2 -19   17.80   26.60
   2   2 -19    1.50   13.80
   2   2 -19   30.80   22.00
   1   2 -19   24.80   16.00
   1   2 -19   11.30   20.40
   1   2 -19    6.10   13.60
   1   2 -19  -13.70   15.20
   0   2 -19   34.90   22.60
   0   2 -19   47.70   17.70
   0   2 -19   59.09   15.70
   0   2 -19   54.19   18.40
   0   2 -19   51.79   19.20
   0  -2  19   40.20   17.40
  -1   2 -19   44.70   19.00
  -1   2 -19   16.00   25.20
  -1   2 -19   13.00   18.70
  -1   2 -19   31.30   14.10
  -1   2 -19   48.40   18.90
  -2   2 -19   -1.30   19.00
  -2   2 -19  -30.90   28.50
  -2   2 -19   12.80   18.10
   2  -2  19   33.80   21.70
  -3   2 -19   19.20   20.90
  -3   2 -19    4.20   22.60
   3  -2  19  -10.50   21.90
   3  -2  19  -18.00   24.00
  -4   2 -19   41.00   25.30
  -4   2 -19    0.80   26.10
   4  -2  19   39.20   26.20
   4  -2  19    9.70   30.60
   5  -2  19    6.50   30.10
   5   1 -19   20.40   41.70
   5   1 -19   65.49   32.40
   5   1 -19   53.29   35.30
   4   1 -19   74.89   36.40
   4   1 -19   62.09   28.40
   4   1 -19   21.20   26.10
   3   1 -19   18.00   29.50
   3   1 -19   19.30   23.40
   3   1 -19   -2.90   22.00
   2   1 -19   19.60   13.60
   2   1 -19   34.70   20.30
   2   1 -19  -10.50   19.70
   2   1 -19   -9.30   23.20
   1   1 -19   20.10   16.60
   1   1 -19   28.40   21.40
   1   1 -19    7.80   17.00
   1   1 -19   29.30   14.60
   1   1 -19   15.80   15.20
  -1  -1  19   22.40   16.10
   0   1 -19   18.90   17.40
   0   1 -19   14.80   14.40
   0   1 -19   36.20   21.60
   0   1 -19   -4.20   15.10
   0   1 -19   -0.40   15.50
   0  -1  19   -0.60   17.20
  -1   1 -19  471.75   39.00
  -1   1 -19  406.96   32.90
  -1   1 -19  468.25   42.50
  -1   1 -19  508.45   37.10
  -1   1 -19  486.25   29.20
   1  -1  19  445.76   35.10
  -2   1 -19   53.19   20.80
  -2   1 -19   19.70   20.80
  -2   1 -19   -3.00   25.40
   2  -1  19   19.50   19.60
   2  -1  19    9.20   21.70
  -3   1 -19   13.90   23.00
  -3   1 -19   -0.30   20.40
   3  -1  19  -36.30   25.90
   3  -1  19  -14.50   19.90
  -4   1 -19   18.30   21.80
  -4   1 -19   19.70   27.50
   4  -1  19   10.30   30.40
   4  -1  19   45.20   24.70
  -5   1 -19   13.30   26.40
   5  -1  19  -31.00   24.80
   5   0 -19   11.10   37.50
   5   0 -19  -17.40   31.30
   5   0 -19  -58.79   26.20
   4   0 -19   10.90   25.30
   4   0 -19  -28.40   30.30
   4   0 -19   17.30   25.70
   3   0 -19   -4.60   25.30
   3   0 -19   57.19   25.50
   3   0 -19   -4.00   19.60
   2   0 -19   16.20   15.80
   2   0 -19    4.90   19.20
   2   0 -19  -10.30   25.40
   2   0 -19    0.90   14.10
   1   0 -19   46.50   24.90
   1   0 -19   18.50   16.70
   1   0 -19   47.50   16.50
   1   0 -19   10.30   16.50
   0   0 -19    4.30   15.10
   0   0 -19   18.80   20.80
   0   0 -19   18.00   13.30
   0   0 -19    2.90   14.70
   0   0  19   -7.40   18.20
  -1   0 -19  116.69   21.80
  -1   0 -19   95.29   22.50
  -1   0 -19  131.79   24.40
  -1   0 -19  157.98   25.90
  -2   0 -19  219.38   29.70
  -2   0 -19  230.68   30.00
   2   0  19  190.68   24.00
   2   0  19  266.47   33.90
  -3   0 -19   26.20   21.70
  -3   0 -19   14.80   23.10
   3   0  19   49.30   21.70
   3   0  19   28.00   29.50
  -4   0 -19    2.00   23.40
  -4   0 -19    6.80   27.60
   4   0  19   23.90   32.80
   4   0  19   12.20   22.90
  -5   0 -19   -0.40   32.10
   5   0  19  -16.90   26.30
   5  -1 -19   -5.80   39.40
   5  -1 -19  -19.10   27.30
   5  -1 -19   50.19   30.20
   4  -1 -19   -2.40   32.60
   4  -1 -19    2.00   26.90
   4  -1 -19    9.90   24.30
   3  -1 -19  288.47   39.10
   3  -1 -19  294.77   37.40
   3  -1 -19  326.27   46.10
   2  -1 -19   95.59   25.10
   2  -1 -19   71.29   28.20
   2  -1 -19   78.69   20.30
   2  -1 -19   28.90   17.00
   1  -1 -19   51.09   19.50
   1  -1 -19   31.30   17.10
   1  -1 -19   47.70   25.30
   1  -1 -19   17.20   16.90
  -1   1  19   36.60   20.40
   0  -1 -19  -11.40   17.30
   0  -1 -19  -21.10   15.20
   0  -1 -19   28.10   20.50
   0  -1 -19    6.00   11.30
   0   1  19   15.80   18.90
  -1  -1 -19   -0.20   17.00
  -1  -1 -19  -28.00   18.90
  -1  -1 -19  -19.10   17.90
  -2  -1 -19  109.39   24.30
  -2  -1 -19  105.89   26.70
   2   1  19   76.69   18.00
  -3  -1 -19    9.60   23.10
  -3  -1 -19   -2.40   22.50
   3   1  19    1.20   18.70
  -4  -1 -19   48.10   29.70
  -4  -1 -19  -22.60   22.80
   4   1  19  -22.20   21.80
   5  -2 -19   48.90   29.70
   5  -2 -19    0.40   40.90
   5  -2 -19   33.50   31.10
   4  -2 -19   17.10   32.90
   4  -2 -19   14.40   24.60
   4  -2 -19   12.40   26.60
   3  -2 -19   -7.20   19.00
   3  -2 -19  -11.20   28.40
   3  -2 -19   17.90   19.30
   3  -2 -19   21.90   24.20
   2  -2 -19  667.63   58.99
   2  -2 -19  749.42   51.39
   1  -2 -19  -16.40   17.70
   1  -2 -19   -9.50   16.70
   1  -2 -19   23.40   17.50
   1  -2 -19   48.10   23.40
   0  -2 -19    3.00   17.30
   0  -2 -19   21.80   20.00
   0  -2 -19  -13.30   16.80
   0   2  19   -4.50   18.70
  -1  -2 -19   28.20   20.00
  -1  -2 -19    4.30   19.10
  -2  -2 -19   58.59   24.40
  -2  -2 -19   61.59   24.10
  -3  -2 -19   90.79   27.00
  -3  -2 -19  146.09   32.00
  -4  -2 -19   30.80   30.50
  -4  -2 -19   30.00   27.30
   5  -3 -19   15.30   37.10
   5  -3 -19   -3.80   29.80
   4  -3 -19   -2.00   26.30
   4  -3 -19    6.10   33.30
   3  -3 -19   28.30   23.50
   3  -3 -19   10.20   24.40
   3  -3 -19    2.90   29.20
   3  -3 -19   60.29   24.60
   2  -3 -19   25.40   21.40
   2  -3 -19    0.70   20.70
   2  -3 -19  -52.79   23.50
   2  -3 -19    3.10   25.60
   1  -3 -19  185.28   31.00
   1  -3 -19  155.18   26.20
   1  -3 -19  127.09   24.60
  -1   3  19  144.69   26.60
   0  -3 -19   45.20   20.30
   0  -3 -19   19.30   18.00
   0  -3 -19   25.30   20.00
   0   3  19   47.70   21.50
  -1  -3 -19    3.90   19.90
  -1  -3 -19   19.00   20.60
  -2  -3 -19   69.09   25.40
  -2  -3 -19   74.39   26.20
  -3  -3 -19  -25.10   23.80
  -3  -3 -19  -28.30   22.80
  -4  -3 -19    5.30   25.70
  -4  -3 -19   39.20   31.90
   5  -4 -19   18.40   29.90
   5  -4 -19   13.20   38.00
   4  -4 -19   46.70   34.80
   4  -4 -19   13.00   27.80
   3  -4 -19   44.90   31.90
   3  -4 -19   13.20   24.70
   2  -4 -19   28.50   26.80
   2  -4 -19  -20.80   24.00
   2  -4 -19   -9.00   21.80
   1  -4 -19   35.10   22.80
   1  -4 -19   17.20   22.60
   1  -4 -19   14.60   22.70
  -1   4  19   59.49   24.40
   0  -4 -19   43.10   22.10
   0  -4 -19   -5.30   18.30
   0   4  19   37.10   24.70
  -1  -4 -19    0.40   20.10
  -1  -4 -19   29.70   21.00
  -2  -4 -19   15.10   23.30
  -2  -4 -19   10.10   22.50
  -3  -4 -19   19.20   24.10
  -3  -4 -19   31.50   28.70
  -4  -4 -19   -6.00   31.20
  -4  -4 -19   -3.50   26.00
   5  -5 -19   72.49   44.50
   4  -5 -19   46.00   37.00
   3  -5 -19    3.40   29.20
   3  -5 -19  -10.60   27.10
   2  -5 -19    7.90   24.20
   2  -5 -19  -20.90   25.90
   2  -5 -19   69.09   28.40
   1  -5 -19  -16.60   21.20
   1  -5 -19    6.80   25.70
   1  -5 -19    5.70   21.90
  -1   5  19    5.20   24.30
   0  -5 -19    5.60   20.60
   0  -5 -19   16.20   21.50
   0   5  19    2.40   23.50
  -1  -5 -19   24.40   23.60
  -1  -5 -19    7.30   21.70
  -2  -5 -19   65.89   25.50
  -2  -5 -19   45.20   26.40
  -3  -5 -19   25.60   29.40
  -3  -5 -19  -26.80   25.20
   3  -6 -19   -9.50   30.50
   2  -6 -19   24.10   26.70
   2  -6 -19   15.40   28.60
   2  -6 -19   30.20   23.40
   1  -6 -19   30.20   27.70
   1  -6 -19   17.80   23.40
   1  -6 -19   22.30   22.50
   0  -6 -19   14.70   24.70
   0  -6 -19    8.10   20.60
   0   6  19    6.40   24.30
  -1  -6 -19   14.60   24.40
  -1  -6 -19   15.30   24.10
  -2  -6 -19   -0.50   25.90
  -2  -6 -19   39.40   26.40
  -3  -6 -19   21.80   31.00
  -3  -6 -19    0.50   25.40
   3  -7 -19   76.49   37.30
   2  -7 -19   -5.20   25.60
   2  -7 -19   -1.50   31.30
   2  -7 -19   15.50   28.50
   1  -7 -19   20.70   28.10
   1  -7 -19    3.10   22.60
   0  -7 -19   25.50   27.50
   0  -7 -19    9.80   24.30
  -1  -7 -19   38.40   29.70
  -1  -7 -19   47.00   27.00
  -2  -7 -19   30.90   26.40
  -2  -7 -19    2.80   29.40
   3  -8 -19   39.10   37.60
   2  -8 -19   37.80   30.80
   2  -8 -19   17.90   31.40
   2  -8 -19    2.00   32.70
   1  -8 -19   60.29   33.10
   0  -8 -19   -8.70   25.20
  -1  -8 -19  -12.10   28.70
   1   9 -20   16.70   32.60
   2   8 -20  -12.20   28.20
   2   8 -20  -88.99   53.69
   1   8 -20  -28.80   27.60
   3   7 -20   21.50   44.70
   3   7 -20   48.10   31.50
   2   7 -20   30.60   53.29
   2   7 -20    6.10   29.20
   2   7 -20   17.40   25.90
   1   7 -20    7.40   30.80
   1   7 -20    4.10   24.70
   3  -7  20  -16.80   33.50
   4   6 -20   35.30   30.40
   4   6 -20  -10.80   41.40
   4   6 -20  -14.40   37.30
   3   6 -20   19.00   43.00
   3   6 -20   -7.60   26.30
   3   6 -20   -7.40   31.70
   2   6 -20   67.39   45.90
   2   6 -20   90.59   28.50
   1   6 -20   43.80   31.20
   1   6 -20   20.00   24.40
   0   6 -20    3.30   25.40
   0   6 -20   23.90   33.60
  -1   6 -20    7.80   34.50
   3  -6  20   23.80   35.00
   4   5 -20  -44.60   24.80
   4   5 -20    6.40   33.30
   4   5 -20  -16.80   39.40
   3   5 -20   16.40   31.60
   3   5 -20  -10.90   24.90
   3   5 -20   38.40   31.90
   2   5 -20  105.99   49.80
   2   5 -20   35.60   30.20
   2   5 -20  -36.70   21.60
   2   5 -20    3.80   17.80
   1   5 -20    6.70   18.30
   1   5 -20    7.80   22.50
   1   5 -20   56.79   29.70
   0   5 -20  -26.20   28.30
   0   5 -20   37.00   22.60
  -1   5 -20    5.50   19.60
  -1   5 -20  -25.90   34.00
  -3   5 -20  -15.20   20.70
   3  -5  20  -31.30   29.00
   4  -5  20  -31.80   28.80
   5   4 -20   29.60   32.80
   5   4 -20  -30.70   39.90
   5   4 -20   43.50   37.10
   4   4 -20   -5.30   25.20
   4   4 -20  -37.50   35.40
   4   4 -20   -4.50   31.30
   3   4 -20   11.90   28.60
   3   4 -20    2.10   24.60
   3   4 -20  -70.29   31.10
   2   4 -20  -23.20   23.40
   2   4 -20    0.50   14.80
   2   4 -20   21.30   24.60
   2   4 -20   23.10   40.90
   1   4 -20   10.00   29.20
   1   4 -20   -8.20   17.00
   1   4 -20   20.80   19.70
   0   4 -20   96.49   23.10
   0   4 -20   24.40   32.00
   0   4 -20   70.19   23.30
   0   4 -20   96.29   21.30
   0  -4  20   78.49   23.50
  -1   4 -20  -28.80   16.80
  -1   4 -20   -4.20   31.40
  -1   4 -20   18.80   20.90
  -2   4 -20  -12.00   19.00
   2  -4  20   -4.30   23.20
  -3   4 -20    7.50   27.00
   3  -4  20   -2.90   28.00
   4  -4  20    3.20   29.20
   5   3 -20   21.50   34.20
   5   3 -20    4.80   27.90
   5   3 -20    4.50   41.80
   4   3 -20   57.49   31.50
   4   3 -20   21.90   26.90
   4   3 -20    8.40   34.40
   3   3 -20    5.70   21.70
   3   3 -20  -17.10   26.70
   3   3 -20   20.80   30.10
   2   3 -20   23.50   21.40
   2   3 -20   12.90   14.90
   2   3 -20    6.30   27.50
   2   3 -20  -74.19   22.30
   1   3 -20   -0.40   23.00
   1   3 -20   15.20   15.60
   1   3 -20    5.50   16.10
   1   3 -20    4.10   20.50
  -1  -3  20   -0.20   19.60
   0   3 -20   25.50   19.30
   0   3 -20   33.70   17.30
   0   3 -20   50.59   27.40
   0   3 -20    0.60   17.20
   0  -3  20   15.30   17.40
  -1   3 -20  -28.10   27.00
  -1   3 -20   -5.80   17.70
  -1   3 -20   13.90   16.00
  -1   3 -20  -28.20   19.00
  -2   3 -20   15.50   20.50
  -2   3 -20   22.30   22.40
   2  -3  20  -12.40   22.20
  -3   3 -20   15.70   22.70
  -3   3 -20    9.30   25.00
   3  -3  20   -8.90   22.80
   3  -3  20   11.70   27.60
  -4   3 -20  -35.80   24.50
  -4   3 -20    8.60   24.70
   4  -3  20    2.00   26.10
   5   2 -20   19.20   38.20
   5   2 -20    2.10   30.40
   5   2 -20   39.20   30.60
   4   2 -20    8.40   26.00
   4   2 -20    0.60   32.00
   4   2 -20   24.70   28.10
   3   2 -20   49.99   25.00
   3   2 -20   26.50   33.40
   3   2 -20  -14.30   26.20
   2   2 -20    0.20   24.90
   2   2 -20    2.30   27.00
   2   2 -20    7.90   14.50
   2   2 -20    0.20   19.80
   1   2 -20    2.70   15.20
   1   2 -20   -2.70   14.30
   1   2 -20  127.79   31.90
   1   2 -20  -20.20   23.50
   1   2 -20   -1.90   17.30
  -1  -2  20    0.30   16.20
   0   2 -20   38.70   17.20
   0   2 -20   27.10   16.80
   0   2 -20   47.80   18.10
   0   2 -20   33.10   18.40
   0   2 -20   33.10   24.30
  -1   2 -20    5.80   16.80
  -1   2 -20    0.30   17.60
  -1   2 -20    8.10   13.20
  -1   2 -20  -28.60   24.60
  -1   2 -20   23.30   19.90
   1  -2  20   11.50   17.80
  -2   2 -20   10.00   28.50
  -2   2 -20   -5.10   19.90
  -2   2 -20   19.80   19.40
   2  -2  20   10.70   21.50
  -3   2 -20   20.30   21.20
  -3   2 -20   -2.10   21.60
   3  -2  20  -23.20   20.00
   3  -2  20   -9.90   25.20
  -4   2 -20   50.49   30.10
  -4   2 -20   27.50   24.40
   4  -2  20  -14.70   30.20
   4  -2  20   44.90   27.30
   5   1 -20  -18.90   29.40
   5   1 -20   21.00   29.60
   5   1 -20   20.30   40.10
   4   1 -20   71.79   35.50
   4   1 -20   24.70   27.20
   4   1 -20   63.69   29.80
   3   1 -20  -30.70   27.40
   3   1 -20  -16.20   23.20
   3   1 -20  -16.30   22.10
   2   1 -20  -10.90   22.80
   2   1 -20   26.60   18.40
   2   1 -20   49.60   22.80
   2   1 -20    2.40   14.00
   1   1 -20   23.70   17.80
   1   1 -20   60.79   22.60
   1   1 -20   11.00   15.80
   1   1 -20   33.60   14.80
   1   1 -20  -29.70   19.70
  -1  -1  20    2.30   16.40
   0   1 -20   50.29   22.90
   0   1 -20  -12.90   15.40
   0   1 -20   15.50   16.60
   0   1 -20   48.20   18.10
   0   1 -20   18.90   14.80
   0  -1  20   47.30   20.10
  -1   1 -20   36.30   25.00
  -1   1 -20   -5.30   17.80
  -1   1 -20    8.60   16.90
  -1   1 -20   22.90   18.80
  -1   1 -20   11.30   12.60
  -2   1 -20    2.10   20.70
  -2   1 -20  -31.60   24.60
  -2   1 -20    5.20   18.70
   2  -1  20  -16.40   18.10
   2  -1  20  -11.90   22.00
  -3   1 -20    1.60   21.40
  -3   1 -20   -4.40   22.50
   3  -1  20  -43.60   24.40
   3  -1  20   25.80   21.10
  -4   1 -20   19.00   26.30
  -4   1 -20   13.30   23.70
   4  -1  20   16.80   24.70
   4  -1  20  -47.80   27.30
   5   0 -20   12.00   29.60
   5   0 -20  -33.20   36.80
   5   0 -20  -37.80   30.30
   4   0 -20   11.50   33.00
   4   0 -20   23.20   28.30
   4   0 -20   -8.80   24.70
   3   0 -20    7.10   28.40
   3   0 -20   -4.00   22.10
   3   0 -20   -3.70   19.80
   2   0 -20    5.20   16.20
   2   0 -20   -7.60   26.10
   2   0 -20   37.90   16.60
   2   0 -20   28.30   22.00
   1   0 -20   56.39   25.90
   1   0 -20    9.30   16.80
   1   0 -20   26.30   17.50
   1   0 -20   -0.10   15.30
  -1   0  20   23.00   19.60
   0   0 -20   32.70   21.70
   0   0 -20   53.89   14.90
   0   0 -20   34.20   18.00
   0   0 -20   38.70   17.30
   0   0  20   38.30   20.60
  -1   0 -20   16.90   18.70
  -1   0 -20   17.70   18.70
  -1   0 -20   57.89   23.50
  -1   0 -20   25.80   20.00
  -2   0 -20  199.78   31.70
  -2   0 -20  231.68   31.20
  -2   0 -20  196.78   32.40
   2   0  20  275.27   34.70
   2   0  20  238.78   26.50
  -3   0 -20   -0.60   23.40
  -3   0 -20   25.10   23.70
   3   0  20  -20.30   27.80
   3   0  20   48.30   21.30
  -4   0 -20   -8.20   27.40
  -4   0 -20  -25.80   22.40
   4   0  20  -12.00   22.90
   4   0  20   -5.10   32.30
   5  -1 -20    9.90   27.20
   5  -1 -20   -7.60   30.10
   5  -1 -20    8.40   40.10
   4  -1 -20   42.60   27.80
   4  -1 -20    4.70   28.20
   4  -1 -20  -25.30   32.70
   3  -1 -20   31.90   22.30
   3  -1 -20   44.20   27.10
   3  -1 -20    9.10   30.80
   2  -1 -20   13.80   16.50
   2  -1 -20    0.70   17.80
   2  -1 -20   -0.20   24.70
   2  -1 -20   41.10   23.10
   1  -1 -20   -7.80   17.00
   1  -1 -20   -1.80   16.70
   1  -1 -20  -17.00   24.90
   1  -1 -20   20.20   19.00
  -1   1  20   42.70   22.40
   0  -1 -20   -0.60   16.60
   0  -1 -20   10.00   18.30
   0  -1 -20   50.09   23.70
   0  -1 -20   12.30   12.20
   0   1  20   25.80   20.20
  -1  -1 -20    8.30   19.60
  -1  -1 -20   98.59   23.00
  -1  -1 -20   39.50   20.60
  -2  -1 -20   36.70   22.80
  -2  -1 -20   62.19   22.70
   2   1  20   63.59   17.30
  -3  -1 -20  227.68   36.60
  -3  -1 -20  235.58   34.70
   3   1  20  272.07   30.80
  -4  -1 -20    4.60   25.20
  -4  -1 -20  -14.40   25.60
   4   1  20   -1.50   22.60
   5  -2 -20    8.60   39.70
   5  -2 -20  -36.70   26.70
   5  -2 -20   37.30   32.20
   4  -2 -20   -0.70   33.30
   4  -2 -20   17.60   27.60
   4  -2 -20   63.39   27.30
   3  -2 -20  -12.70   28.50
   3  -2 -20   23.00   23.90
   3  -2 -20    2.50   20.50
   2  -2 -20  166.28   35.40
   2  -2 -20  115.49   22.20
   2  -2 -20  178.88   28.10
   2  -2 -20  231.98   33.00
   1  -2 -20   13.90   22.50
   1  -2 -20   20.80   18.70
   1  -2 -20   14.10   18.50
   1  -2 -20   25.10   18.00
   0  -2 -20    6.00   17.60
   0  -2 -20   24.50   19.50
   0  -2 -20    8.40   21.30
   0   2  20   17.60   19.30
  -1  -2 -20   12.30   20.60
  -1  -2 -20    2.40   20.00
  -2  -2 -20  -10.10   21.00
  -2  -2 -20   48.30   24.30
  -3  -2 -20   86.49   29.90
  -3  -2 -20   54.49   26.40
  -4  -2 -20   10.40   26.20
  -4  -2 -20   42.10   32.90
   5  -3 -20  -66.19   25.10
   5  -3 -20    3.70   37.90
   4  -3 -20   15.30   35.10
   4  -3 -20   16.50   27.00
   3  -3 -20   -3.30   29.70
   3  -3 -20   -4.80   24.20
   3  -3 -20   -9.60   24.10
   3  -3 -20   -9.10   22.10
   2  -3 -20   49.40   23.50
   2  -3 -20   54.09   26.60
   2  -3 -20   29.70   21.40
   2  -3 -20   50.99   29.80
   1  -3 -20  346.17   39.60
   1  -3 -20  257.87   32.70
   1  -3 -20  274.37   31.40
  -1   3  20  253.07   32.50
   0  -3 -20   26.60   19.80
   0  -3 -20    1.00   18.90
   0  -3 -20   13.10   20.30
   0   3  20   54.09   22.00
  -1  -3 -20   47.90   22.40
  -1  -3 -20   34.60   20.80
  -2  -3 -20   35.00   24.60
  -2  -3 -20    3.10   22.60
  -3  -3 -20    9.80   27.00
  -3  -3 -20  -21.10   24.20
  -4  -3 -20   68.69   28.10
  -4  -3 -20   44.10   34.50
   5  -4 -20  -54.29   27.60
   4  -4 -20   44.30   29.50
   4  -4 -20   39.90   36.10
   3  -4 -20   17.20   25.90
   3  -4 -20    8.70   30.10
   2  -4 -20  -38.80   25.70
   2  -4 -20   21.30   22.60
   2  -4 -20   -1.70   25.70
   1  -4 -20   68.49   25.40
   1  -4 -20   51.89   22.70
   1  -4 -20   42.40   22.90
  -1   4  20   27.20   24.00
   0  -4 -20   42.40   21.50
   0  -4 -20   27.00   19.60
   0   4  20   21.50   24.30
  -1  -4 -20    6.60   19.90
  -1  -4 -20  -25.20   18.70
  -2  -4 -20   12.70   23.50
  -2  -4 -20   36.60   23.90
  -3  -4 -20    5.90   27.20
  -3  -4 -20    4.40   24.80
  -4  -4 -20   30.00   32.80
  -4  -4 -20  -24.70   25.10
   4  -5 -20   36.60   36.50
   3  -5 -20   41.40   30.90
   3  -5 -20   -1.90   30.50
   2  -5 -20    9.40   26.50
   2  -5 -20  -31.50   26.30
   2  -5 -20   -6.40   24.10
   1  -5 -20  -12.70   24.50
   1  -5 -20   -8.20   21.70
   1  -5 -20   45.00   23.30
   0  -5 -20  -15.30   22.40
   0  -5 -20   29.00   21.50
   0   5  20    9.70   25.00
  -1  -5 -20    5.90   22.10
  -1  -5 -20   16.50   22.50
  -2  -5 -20    4.20   23.00
  -2  -5 -20   20.50   26.60
  -3  -5 -20  -15.00   22.40
  -3  -5 -20   -7.90   28.30
   4  -6 -20  -26.30   30.80
   3  -6 -20   -3.10   30.80
   2  -6 -20  -23.50   30.00
   2  -6 -20  -26.10   25.50
   1  -6 -20   29.70   23.60
   1  -6 -20    8.50   23.80
   1  -6 -20   43.20   28.10
   0  -6 -20   14.10   26.30
   0  -6 -20   -7.40   20.40
  -1  -6 -20   -4.20   22.20
  -1  -6 -20   -8.30   23.40
  -2  -6 -20  -24.10   22.90
  -2  -6 -20   13.70   27.60
  -3  -6 -20   -8.90   27.20
  -3  -6 -20   37.90   32.60
   3  -7 -20   52.19   36.20
   2  -7 -20    9.60   25.70
   2  -7 -20   44.50   32.10
   2  -7 -20    5.30   31.10
   1  -7 -20  -10.50   26.20
   1  -7 -20    9.10   24.40
   0  -7 -20  -29.40   26.70
   0  -7 -20   15.10   22.80
  -1  -7 -20   55.99   30.80
  -1  -7 -20   -9.10   24.30
  -2  -7 -20  -24.30   31.00
  -2  -7 -20   33.10   27.20
   2  -8 -20   28.60   30.50
   2  -8 -20   31.10   33.40
   2  -8 -20  -20.90   32.30
   1  -8 -20  -13.20   29.60
   0  -8 -20    7.40   25.00
  -1  -8 -20  -23.70   28.30
   2   8 -21  -26.80   58.29
   2   8 -21  -18.20   26.40
   1   8 -21  -10.10   28.80
   3   7 -21   95.19   48.70
   3   7 -21   85.99   33.80
   2   7 -21   35.70   29.30
   2   7 -21    8.70   54.19
   1   7 -21   49.50   28.60
   0   7 -21   26.80   30.50
   3  -7  21    0.10   34.20
   4   6 -21  -13.10   30.30
   4   6 -21    5.80   45.30
   4   6 -21  -81.09   34.50
   3   6 -21   36.40   29.40
   3   6 -21   -4.30   37.80
   3   6 -21  -18.60   30.00
   2   6 -21   97.29   31.40
   2   6 -21   77.59   46.30
   2   6 -21   87.79   33.60
   1   6 -21   25.50   30.20
   1   6 -21   26.80   25.20
   0   6 -21   79.99   29.80
   3  -6  21    3.40   32.00
   4   5 -21   27.40   33.80
   4   5 -21   39.40   28.90
   4   5 -21   19.50   38.40
   3   5 -21    5.60   34.90
   3   5 -21   53.39   30.60
   3   5 -21   24.90   31.60
   2   5 -21   20.70   40.00
   2   5 -21  -15.00   23.30
   2   5 -21    6.00   29.10
   2   5 -21  -18.20   17.30
   1   5 -21    7.80   28.00
   1   5 -21    5.50   17.80
   1   5 -21   35.20   24.20
   0   5 -21   -6.30   21.50
   0   5 -21   26.10   21.00
   0   5 -21   67.49   35.20
  -1   5 -21   -7.80   33.80
  -1   5 -21    2.20   19.20
  -2   5 -21    5.40   20.10
   3  -5  21    2.80   31.70
   4  -5  21    0.10   32.00
   5   4 -21  -20.50   37.60
   4   4 -21  -43.50   24.70
   4   4 -21  -26.80   30.00
   4   4 -21  -16.30   37.50
   3   4 -21   11.60   25.70
   3   4 -21  -19.30   29.70
   3   4 -21   35.60   28.00
   2   4 -21  -10.20   34.40
   2   4 -21   15.50   15.70
   2   4 -21    5.10   24.20
   2   4 -21   -9.30   27.60
   1   4 -21   42.80   22.10
   1   4 -21  -11.20   16.70
   1   4 -21   18.20   19.00
   1   4 -21    8.10   24.00
   0   4 -21   23.70   19.70
   0   4 -21   -0.40   21.40
   0   4 -21   82.29   31.20
   0   4 -21   36.70   21.40
   0  -4  21   11.20   20.50
  -1   4 -21   20.40   18.90
  -1   4 -21   -0.90   22.30
  -1   4 -21  -12.10   18.20
  -3   4 -21   -1.20   23.90
   3  -4  21   39.10   30.70
   4  -4  21   24.20   30.20
   5   3 -21  -45.10   37.00
   5   3 -21   -7.80   27.60
   5   3 -21   22.00   33.90
   4   3 -21   21.70   29.70
   4   3 -21   32.10   29.10
   4   3 -21   45.60   37.90
   3   3 -21   25.40   24.40
   3   3 -21   -8.80   26.70
   3   3 -21  -13.50   29.70
   2   3 -21    3.80   15.00
   2   3 -21   -0.60   22.20
   2   3 -21   28.60   23.80
   2   3 -21   -0.40   28.40
   1   3 -21    7.50   19.40
   1   3 -21   24.50   15.80
   1   3 -21   11.00   28.30
   1   3 -21  -14.40   16.20
  -1  -3  21  -11.80   18.90
   0   3 -21   27.10   28.10
   0   3 -21   15.00   19.50
   0   3 -21   34.70   18.30
   0   3 -21   16.70   18.30
  -1   3 -21   19.50   20.40
  -1   3 -21  -14.40   17.40
  -1   3 -21  -31.70   27.30
  -1   3 -21   -8.40   14.10
  -2   3 -21   91.09   24.80
  -2   3 -21   71.09   24.90
  -3   3 -21  -22.20   22.50
   3  -3  21   10.30   25.60
  -4   3 -21  -26.70   24.80
  -4   3 -21   -6.10   24.10
   4  -3  21  -20.10   26.90
   5   2 -21    2.70   30.50
   5   2 -21   11.20   32.10
   5   2 -21   13.90   40.40
   4   2 -21    8.40   32.50
   4   2 -21   57.89   30.60
   4   2 -21   26.70   28.00
   3   2 -21   54.09   29.10
   3   2 -21   66.59   27.00
   3   2 -21   72.99   34.90
   2   2 -21   44.50   22.50
   2   2 -21   36.40   21.20
   2   2 -21   -8.70   14.30
   2   2 -21  -21.10   26.50
   1   2 -21   25.10   17.10
   1   2 -21   42.80   24.20
   1   2 -21   -7.90   23.20
   1   2 -21   53.59   16.80
   1   2 -21   32.90   21.00
  -1  -2  21    4.80   17.00
   0   2 -21   40.60   19.30
   0   2 -21   18.20   23.80
   0   2 -21   42.00   18.40
   0   2 -21    4.60   17.60
   0   2 -21   58.49   19.30
   0  -2  21   41.70   19.90
  -1   2 -21   20.00   18.70
  -1   2 -21    1.00   16.70
  -1   2 -21   10.50   14.60
  -1   2 -21   -2.20   27.60
  -1   2 -21    6.90   18.60
  -2   2 -21   38.80   22.10
  -2   2 -21   34.30   33.10
  -2   2 -21   31.50   23.70
   2  -2  21   11.20   21.80
  -3   2 -21    5.50   24.40
  -3   2 -21   22.40   22.00
   3  -2  21   26.40   24.20
   3  -2  21  -10.70   26.50
  -4   2 -21   11.30   24.60
  -4   2 -21    0.10   26.40
   4  -2  21  -14.80   25.40
   4  -2  21  -10.00   29.60
   5   1 -21   20.30   40.80
   5   1 -21   28.40   33.10
   5   1 -21   39.20   30.50
   4   1 -21    7.70   31.80
   4   1 -21   21.00   26.00
   4   1 -21   34.40   29.20
   3   1 -21   59.99   33.40
   3   1 -21   21.20   24.30
   3   1 -21   18.80   23.80
   2   1 -21  -32.10   18.50
   2   1 -21   -2.60   13.30
   2   1 -21  -32.30   28.20
   2   1 -21   19.00   22.90
   1   1 -21   15.50   15.50
   1   1 -21   15.00   15.30
   1   1 -21    3.50   23.80
   1   1 -21   20.80   18.70
   1   1 -21   -3.50   16.70
  -1  -1  21   -5.80   16.90
   0   1 -21   20.00   15.60
   0   1 -21   40.60   26.00
   0   1 -21   10.30   17.40
   0   1 -21   27.10   17.40
   0  -1  21   53.79   21.50
  -1   1 -21   72.19   22.90
  -1   1 -21   46.90   19.30
  -1   1 -21   42.70   20.80
  -1   1 -21   33.10   25.70
  -2   1 -21  -12.40   25.60
  -2   1 -21   17.50   21.50
  -2   1 -21   44.80   21.80
   2  -1  21    9.30   22.50
   2  -1  21   19.30   20.20
  -3   1 -21   12.90   23.70
  -3   1 -21  -14.20   27.30
  -3   1 -21   -2.30   21.30
   3  -1  21   -9.50   20.00
   3  -1  21   20.20   29.60
  -4   1 -21   29.70   26.00
  -4   1 -21   13.90   27.90
   4  -1  21   22.60   24.90
   4  -1  21   12.30   31.60
   5   0 -21   47.20   33.10
   5   0 -21  -20.90   31.30
   5   0 -21   18.80   43.10
   4   0 -21   25.20   28.10
   4   0 -21   23.30   26.70
   4   0 -21   29.90   33.20
   3   0 -21   20.30   25.00
   3   0 -21   23.10   31.10
   3   0 -21   23.10   21.10
   2   0 -21   77.19   19.80
   2   0 -21  141.79   29.30
   2   0 -21  150.78   36.20
   2   0 -21  111.19   20.80
   1   0 -21   15.20   17.10
   1   0 -21   13.60   17.20
   1   0 -21    2.40   25.20
   1   0 -21   28.60   18.50
  -1   0  21    3.40   19.20
   0   0 -21   77.89   20.40
   0   0 -21   36.50   16.70
   0   0 -21   50.59   19.50
   0   0 -21   35.50   25.10
   0   0  21   70.49   22.80
  -1   0 -21   46.40   23.40
  -1   0 -21    9.80   18.40
  -1   0 -21    3.10   19.20
  -1   0 -21    8.00   19.10
  -2   0 -21   10.00   20.80
  -2   0 -21   42.20   22.60
   2   0  21   19.70   17.20
   2   0  21   45.50   27.30
  -3   0 -21    9.80   23.20
  -3   0 -21   38.10   25.40
   3   0  21   -6.20   29.90
   3   0  21    8.50   21.20
  -4   0 -21  -10.30   23.60
  -4   0 -21    5.80   27.40
   4   0  21   19.70   24.90
   4   0  21    1.40   34.10
   5  -1 -21   -6.00   40.00
   5  -1 -21   -4.90   30.80
   5  -1 -21   48.60   32.80
   4  -1 -21   21.40   33.60
   4  -1 -21   27.90   25.50
   4  -1 -21   27.30   29.70
   3  -1 -21   51.09   27.70
   3  -1 -21   -2.00   20.10
   3  -1 -21   23.30   20.20
   3  -1 -21  -29.40   28.60
   2  -1 -21   75.09   21.70
   2  -1 -21   49.80   24.40
   2  -1 -21   21.00   17.90
   2  -1 -21   61.29   29.50
   1  -1 -21   38.00   18.20
   1  -1 -21   48.60   21.70
   1  -1 -21   42.20   18.30
  -1   1  21   75.09   23.60
   0  -1 -21   13.20   13.50
   0  -1 -21   25.90   20.10
   0  -1 -21   17.50   18.60
   0  -1 -21   85.79   25.80
   0   1  21   74.89   23.70
  -1  -1 -21   73.59   27.40
  -1  -1 -21   86.79   23.40
  -1  -1 -21   48.20   21.50
  -2  -1 -21   12.90   20.40
  -2  -1 -21   56.69   23.70
   2   1  21    7.70   15.20
  -3  -1 -21   64.49   26.50
  -3  -1 -21   81.29   27.20
   3   1  21   86.79   23.30
  -4  -1 -21   -6.80   25.90
  -4  -1 -21   43.00   28.10
   5  -2 -21    8.80   40.00
   5  -2 -21  -19.50   29.20
   4  -2 -21   25.40   27.00
   4  -2 -21  -63.89   31.90
   3  -2 -21   18.90   30.60
   3  -2 -21   35.70   21.70
   3  -2 -21  -17.30   23.00
   2  -2 -21   29.80   18.50
   2  -2 -21   31.50   19.70
   2  -2 -21   24.10   27.40
   2  -2 -21   16.50   22.50
   1  -2 -21   24.70   19.30
   1  -2 -21   73.79   21.40
   1  -2 -21   78.79   21.90
   1  -2 -21   61.19   26.80
  -1   2  21   17.10   24.60
   0  -2 -21   30.70   21.30
   0  -2 -21   68.59   24.90
   0  -2 -21   27.50   20.30
   0   2  21   33.10   20.50
  -1  -2 -21    4.30   20.70
  -1  -2 -21  -14.20   19.90
   1   2  21    3.60   23.10
  -2  -2 -21   40.00   25.20
  -2  -2 -21   50.99   25.00
  -3  -2 -21   64.49   29.90
  -3  -2 -21   -6.20   25.00
  -4  -2 -21    0.50   30.10
  -4  -2 -21   28.30   30.10
   5  -3 -21    2.00   40.30
   5  -3 -21  -36.20   29.60
   4  -3 -21   43.10   38.30
   4  -3 -21   38.00   29.60
   3  -3 -21    1.00   30.30
   3  -3 -21   15.40   23.90
   3  -3 -21   -8.70   24.80
   3  -3 -21   19.10   27.30
   2  -3 -21   62.49   27.70
   2  -3 -21   27.00   23.70
   2  -3 -21   58.99   25.60
   2  -3 -21   37.80   28.30
   1  -3 -21   52.89   22.70
   1  -3 -21   19.20   23.80
   1  -3 -21    0.00   18.60
  -1   3  21   21.20   22.40
   0  -3 -21   78.99   23.30
   0  -3 -21   -9.00   19.90
   0  -3 -21   60.39   22.30
   0   3  21    9.50   23.70
  -1  -3 -21  -18.60   20.80
  -1  -3 -21   53.59   21.90
  -2  -3 -21   12.70   22.80
  -2  -3 -21    6.30   23.30
  -3  -3 -21    4.40   26.50
  -3  -3 -21   -0.60   27.90
  -4  -3 -21   61.49   33.40
  -4  -3 -21   -0.70   27.30
   5  -4 -21   15.20   41.30
   4  -4 -21    7.50   30.70
   4  -4 -21   -0.60   34.70
   3  -4 -21    9.20   31.00
   3  -4 -21  -17.10   26.60
   2  -4 -21   45.10   30.60
   2  -4 -21  -10.60   25.60
   2  -4 -21   10.20   24.20
   1  -4 -21   12.70   22.40
   1  -4 -21   42.90   23.70
   1  -4 -21   12.90   24.00
  -1   4  21   53.59   26.00
   0  -4 -21   16.70   20.70
   0  -4 -21   48.00   24.50
   0   4  21   36.30   26.70
  -1  -4 -21   15.60   21.60
  -1  -4 -21   32.00   22.60
  -2  -4 -21    1.00   22.90
  -2  -4 -21   -9.90   24.60
  -3  -4 -21  -17.80   24.00
  -3  -4 -21    9.90   28.60
   4  -5 -21   12.30   34.80
   3  -5 -21  -12.70   26.90
   3  -5 -21   -3.90   29.70
   2  -5 -21    5.80   29.50
   2  -5 -21   15.20   26.40
   2  -5 -21  -15.30   27.00
   1  -5 -21  -53.69   20.80
   1  -5 -21  -17.60   26.80
   1  -5 -21    7.00   22.70
  -1   5  21   36.00   29.10
   0  -5 -21   29.20   23.70
   0  -5 -21   -9.50   21.00
   0   5  21   10.30   25.30
  -1  -5 -21   29.90   22.70
  -1  -5 -21   30.20   25.10
  -2  -5 -21   44.10   25.70
  -2  -5 -21   25.90   27.20
  -3  -5 -21  -13.30   26.30
  -3  -5 -21   -5.80   29.00
   4  -6 -21   53.69   38.70
   3  -6 -21   52.09   36.40
   2  -6 -21  -21.50   27.20
   2  -6 -21  -62.99   29.80
   1  -6 -21   -1.30   24.90
   1  -6 -21  -20.90   26.00
   1  -6 -21  -17.00   21.70
   0  -6 -21   40.50   27.40
   0  -6 -21    0.80   22.10
   0   6  21   -2.60   27.40
  -1  -6 -21  -15.90   24.60
  -1  -6 -21   -1.10   23.10
  -2  -6 -21  -23.10   24.20
  -2  -6 -21    3.60   26.60
   3  -7 -21   -8.10   33.90
   2  -7 -21  -18.80   31.90
   2  -7 -21  -18.70   27.40
   1  -7 -21   -8.00   27.30
   1  -7 -21   -1.30   24.60
   0  -7 -21   -1.00   24.80
   0  -7 -21    3.40   29.20
  -1  -7 -21  -20.60   24.10
  -1  -7 -21   20.00   28.10
  -2  -7 -21    9.20   31.80
  -2  -7 -21   11.70   26.40
   2  -8 -21  110.59   35.40
   2  -8 -21   27.00   34.50
   1  -8 -21   39.20   31.40
   0  -8 -21    3.70   26.90
   2   8 -22   34.60   74.69
   2   8 -22   -1.60   29.90
   1   8 -22   17.70   29.60
   0   8 -22  -25.50   33.90
   3   7 -22  -74.79   49.60
   3   7 -22    8.10   31.70
   2   7 -22   -5.00   27.40
   2   7 -22  -23.70   47.40
   1   7 -22   14.60   28.80
   0   7 -22  -25.40   27.30
   4   6 -22   -6.80   42.00
   3   6 -22  -23.10   26.80
   3   6 -22    0.90   29.70
   3   6 -22   14.70   36.40
   2   6 -22   40.90   31.90
   2   6 -22    7.20   44.30
   2   6 -22   62.69   30.60
   1   6 -22   20.20   26.30
   1   6 -22    0.00   29.60
   0   6 -22   38.10   27.70
   3  -6  22    5.80   34.50
   4   5 -22  -11.60   31.70
   4   5 -22  -12.70   26.00
   4   5 -22   15.30   39.20
   3   5 -22   -0.90   34.80
   3   5 -22  -39.50   31.90
   3   5 -22  -23.70   24.10
   2   5 -22   64.79   21.20
   2   5 -22    2.10   37.00
   2   5 -22   10.20   27.00
   2   5 -22   20.40   27.80
   1   5 -22   34.10   29.50
   1   5 -22   17.60   21.10
   1   5 -22   50.29   26.20
   0   5 -22   -4.30   33.00
   0   5 -22   19.30   22.50
  -1   5 -22  -15.20   22.40
  -2   5 -22  -23.90   18.70
   3  -5  22   18.10   34.60
   4   4 -22   56.59   34.00
   4   4 -22   55.49   31.00
   4   4 -22   26.10   38.10
   3   4 -22   24.50   27.00
   3   4 -22   31.60   31.10
   3   4 -22   31.80   27.90
   2   4 -22  -21.90   21.60
   2   4 -22   -3.80   27.60
   2   4 -22   25.40   37.60
   2   4 -22   44.90   18.20
   1   4 -22   35.40   19.70
   1   4 -22   21.50   30.10
   1   4 -22   87.39   25.80
   1   4 -22    5.90   18.50
   0   4 -22   18.10   20.70
   0   4 -22   30.90   20.90
   0   4 -22   18.50   31.70
   0   4 -22   22.00   22.30
   0  -4  22   -0.90   20.20
  -1   4 -22   -5.80   18.40
  -1   4 -22   -4.40   18.70
  -1   4 -22   14.90   22.80
  -2   4 -22    1.60   22.00
  -2   4 -22    0.50   24.90
  -3   4 -22   37.00   25.10
   3  -4  22   -4.60   29.40
   4  -4  22   23.00   31.60
   5   3 -22  -22.80   41.90
   4   3 -22  -13.80   29.60
   4   3 -22   24.10   29.30
   4   3 -22  -58.99   32.50
   3   3 -22   31.20   26.40
   3   3 -22  -29.60   29.40
   3   3 -22   13.00   24.40
   2   3 -22   -3.80   27.00
   2   3 -22  -53.99   28.40
   2   3 -22   21.60   24.20
   2   3 -22    3.60   14.90
   1   3 -22   -7.60   25.00
   1   3 -22   14.60   17.00
   1   3 -22   -5.60   20.50
   1   3 -22    2.00   17.20
   0   3 -22   47.70   20.30
   0   3 -22   20.40   17.30
   0   3 -22   27.00   19.70
   0   3 -22   37.70   20.50
   0   3 -22   16.70   27.10
   0  -3  22   25.50   19.50
  -1   3 -22  -11.60   29.70
  -1   3 -22   19.20   16.60
  -1   3 -22   14.90   20.80
  -1   3 -22   43.60   21.10
  -2   3 -22    5.40   21.60
  -2   3 -22   59.79   26.30
  -3   3 -22   35.50   25.20
   3  -3  22   -8.20   25.20
  -4   3 -22  -16.30   23.10
   4  -3  22    8.80   28.00
   5   2 -22  -15.20   30.20
   5   2 -22  -30.40   36.80
   5   2 -22    8.40   33.10
   4   2 -22    2.40   33.40
   4   2 -22   18.80   28.40
   4   2 -22  -17.60   25.10
   3   2 -22   -4.10   24.70
   3   2 -22   61.69   28.70
   3   2 -22   21.50   32.60
   2   2 -22   -7.00   14.40
   2   2 -22    7.50   23.70
   2   2 -22   46.90   29.60
   2   2 -22   13.30   22.40
   1   2 -22   66.49   18.90
   1   2 -22   92.19   32.70
   1   2 -22  122.59   25.30
   1   2 -22   34.70   25.60
   1   2 -22   82.49   19.40
  -1  -2  22   83.09   21.60
   0   2 -22   75.99   29.70
   0   2 -22   59.49   18.80
   0   2 -22   50.59   19.40
   0   2 -22   40.00   19.10
   0  -2  22   54.19   20.90
  -1   2 -22  -12.40   15.80
  -1   2 -22   14.80   19.80
  -1   2 -22  -32.50   24.40
  -1   2 -22  -11.80   13.70
  -1   2 -22    0.50   18.20
  -2   2 -22   69.89   24.80
  -2   2 -22   38.70   21.90
  -2   2 -22  -14.90   30.70
   2  -2  22    1.50   21.30
  -3   2 -22   11.40   22.80
  -3   2 -22   36.40   26.20
   3  -2  22   17.70   24.10
  -4   2 -22   31.30   26.90
  -4   2 -22   37.00   29.70
   4  -2  22   37.90   28.80
   5   1 -22  -18.20   31.80
   5   1 -22    1.20   31.30
   5   1 -22   -9.40   40.60
   4   1 -22    5.20   25.80
   4   1 -22    4.00   27.60
   4   1 -22   31.80   31.80
   3   1 -22  109.19   38.10
   3   1 -22  101.59   28.10
   3   1 -22  112.29   30.10
   2   1 -22   35.30   28.00
   2   1 -22  -20.30   21.90
   2   1 -22  -23.30   13.70
   2   1 -22   34.20   19.80
   1   1 -22   -2.10   17.90
   1   1 -22    7.10   17.30
   1   1 -22  -31.40   14.80
   1   1 -22   11.10   23.90
  -1  -1  22   -4.30   18.40
   0   1 -22   33.10   18.80
   0   1 -22   18.00   20.40
   0   1 -22   29.40   16.70
   0   1 -22   32.70   19.20
   0   1 -22   80.59   26.30
   0  -1  22   42.50   20.90
  -1   1 -22    2.00   18.60
  -1   1 -22   31.30   20.50
  -1   1 -22   40.30   25.10
  -1   1 -22  -25.90   17.40
   1  -1  22   22.60   22.10
  -2   1 -22   12.60   21.80
  -2   1 -22   21.40   21.50
  -2   1 -22   43.20   29.10
   2  -1  22   24.70   25.80
   2  -1  22   -8.20   19.30
  -3   1 -22   35.60   25.50
  -3   1 -22   85.09   27.00
   3  -1  22   18.80   30.70
   3  -1  22   71.29   23.40
  -4   1 -22   20.00   29.50
  -4   1 -22   10.00   25.90
   4  -1  22  -21.40   31.20
   4  -1  22  -48.70   21.90
   5   0 -22   -6.30   33.40
   5   0 -22   -7.00   31.70
   5   0 -22   14.80   40.00
   4   0 -22   19.40   34.50
   4   0 -22  -15.50   25.90
   4   0 -22   44.10   30.50
   3   0 -22    9.40   20.60
   3   0 -22   37.50   27.60
   3   0 -22   11.30   29.40
   2   0 -22  114.29   33.60
   2   0 -22   53.29   19.50
   2   0 -22   97.29   27.00
   1   0 -22   22.10   18.00
   1   0 -22   37.60   28.50
   1   0 -22   26.90   19.90
   1   0 -22   16.30   18.40
  -1   0  22   21.80   22.40
   0   0 -22   25.20   19.10
   0   0 -22   35.30   16.30
   0   0 -22   45.80   25.90
   0   0 -22   15.80   19.10
   0   0  22    9.70   20.90
  -1   0 -22   99.29   25.80
  -1   0 -22   17.30   22.20
  -1   0 -22   18.90   20.50
  -1   0 -22   19.10   20.40
  -2   0 -22   29.90   23.30
  -2   0 -22   10.60   21.60
  -2   0 -22   15.00   23.60
   2   0  22   18.10   17.50
  -3   0 -22  -10.40   23.90
  -3   0 -22   28.90   22.60
   3   0  22  -44.40   18.30
   3   0  22   -8.50   32.60
  -4   0 -22  -15.60   25.20
  -4   0 -22    9.10   27.00
   4   0  22  -17.10   23.90
   4   0  22  -10.10   35.40
   5  -1 -22  -60.89   36.80
   5  -1 -22    8.80   29.90
   4  -1 -22   25.40   29.20
   4  -1 -22   30.00   35.50
   3  -1 -22   30.70   21.40
   3  -1 -22   33.10   32.80
   3  -1 -22   14.90   26.10
   2  -1 -22   85.69   31.00
   2  -1 -22   67.29   20.70
   2  -1 -22   92.59   23.10
   2  -1 -22   94.89   28.30
   1  -1 -22   85.89   21.30
   1  -1 -22  147.79   26.70
   1  -1 -22   94.49   32.40
   1  -1 -22   38.90   20.10
  -1   1  22   70.59   24.10
   0  -1 -22   84.09   22.20
   0  -1 -22   46.80   28.00
   0  -1 -22   52.49   16.10
   0  -1 -22   70.29   23.30
  -1  -1 -22   76.09   23.90
  -1  -1 -22   88.69   25.30
  -1  -1 -22   90.19   24.80
  -2  -1 -22   25.60   23.90
  -2  -1 -22    8.90   22.60
  -3  -1 -22  -19.20   25.00
  -3  -1 -22    4.40   24.60
  -4  -1 -22    2.70   26.40
  -4  -1 -22   22.90   28.70
   5  -2 -22   31.30   40.00
   5  -2 -22   73.59   35.60
   4  -2 -22   40.30   29.50
   4  -2 -22   18.00   36.00
   3  -2 -22    1.30   31.30
   3  -2 -22   26.60   22.60
   3  -2 -22   35.10   27.20
   2  -2 -22   12.50   23.50
   2  -2 -22   12.20   28.50
   2  -2 -22   12.10   19.70
   2  -2 -22   16.10   21.40
   1  -2 -22   24.50   21.10
   1  -2 -22   76.29   26.90
   1  -2 -22   79.19   21.20
   1  -2 -22   19.10   21.70
  -1   2  22   38.60   24.00
   0  -2 -22  -14.40   19.30
   0  -2 -22    7.00   18.50
   0  -2 -22   32.10   24.70
   0   2  22   42.40   23.20
  -1  -2 -22   29.70   21.90
  -1  -2 -22   19.30   21.80
  -2  -2 -22   14.50   24.60
  -2  -2 -22   18.20   25.40
  -3  -2 -22  -45.70   26.30
  -3  -2 -22  -17.30   27.20
  -4  -2 -22   60.59   35.60
  -4  -2 -22   -5.30   28.40
   5  -3 -22   78.59   45.80
   4  -3 -22   11.30   30.60
   4  -3 -22   48.90   37.50
   3  -3 -22    6.50   27.30
   3  -3 -22  -11.90   25.20
   3  -3 -22   12.60   31.30
   3  -3 -22    6.30   25.20
   2  -3 -22   12.10   23.20
   2  -3 -22   36.60   31.20
   2  -3 -22    5.90   23.60
   2  -3 -22   34.30   27.30
   1  -3 -22   31.50   21.90
   1  -3 -22  -28.60   22.50
   1  -3 -22   -1.70   19.40
  -1   3  22   14.30   23.00
   0  -3 -22   -6.70   20.10
   0  -3 -22   18.00   19.50
   0  -3 -22  -12.80   18.90
   0   3  22   25.40   23.50
  -1  -3 -22   57.29   25.20
  -1  -3 -22   55.89   24.10
  -2  -3 -22  -12.60   24.50
  -2  -3 -22   41.70   25.50
  -3  -3 -22  -11.80   26.60
  -3  -3 -22  -39.60   23.90
   4  -4 -22   69.09   41.10
   4  -4 -22   49.99   31.20
   3  -4 -22  -39.10   29.50
   3  -4 -22   -2.30   26.60
   3  -4 -22    1.40   27.40
   2  -4 -22    8.90   27.50
   2  -4 -22   17.00   29.90
   2  -4 -22    0.40   25.30
   1  -4 -22  -10.70   22.10
   1  -4 -22   12.20   22.80
   1  -4 -22   55.59   25.60
  -1   4  22  -25.10   23.50
   0  -4 -22   -7.10   19.70
   0  -4 -22  -15.60   20.80
   0   4  22  -15.90   24.00
  -1  -4 -22   22.80   23.10
  -1  -4 -22   27.20   23.70
  -2  -4 -22   13.00   26.00
  -2  -4 -22   23.00   25.40
  -3  -4 -22   -5.50   28.00
  -3  -4 -22   34.70   27.50
   4  -5 -22  -17.70   33.60
   3  -5 -22  -23.60   29.30
   3  -5 -22    8.80   30.40
   2  -5 -22   27.40   29.00
   2  -5 -22   40.60   30.00
   2  -5 -22  -11.20   25.40
   1  -5 -22   21.70   27.50
   1  -5 -22   -5.40   23.90
   1  -5 -22   -4.30   23.10
   0  -5 -22   -2.00   23.70
   0  -5 -22  -28.00   21.70
   0   5  22  -51.99   25.50
  -1  -5 -22   23.10   24.40
  -1  -5 -22   29.40   24.50
  -2  -5 -22   30.20   26.60
  -2  -5 -22   -5.50   26.60
  -3  -5 -22   20.50   27.50
  -3  -5 -22   16.10   31.20
   3  -6 -22   42.70   35.40
   2  -6 -22   21.70   30.40
   2  -6 -22  -19.60   33.00
   1  -6 -22  -11.40   22.60
   1  -6 -22  -12.80   28.40
   1  -6 -22   28.30   25.20
   0  -6 -22   14.80   26.50
   0  -6 -22   15.00   22.60
   0   6  22  -21.20   26.30
  -1  -6 -22    0.40   26.10
  -1  -6 -22   16.30   25.20
  -2  -6 -22   64.09   28.90
  -2  -6 -22   74.09   31.80
   3  -7 -22  -37.50   31.70
   2  -7 -22   15.50   34.20
   2  -7 -22   38.00   32.50
   1  -7 -22  -10.10   25.80
   1  -7 -22  -15.80   24.00
   0  -7 -22   -0.90   24.40
   0  -7 -22  -13.80   27.10
  -1  -7 -22   22.20   25.90
  -1  -7 -22   36.20   31.60
   1  -8 -22  -70.59   29.20
   1   8 -23  -35.70   27.10
   0   8 -23   -9.90   32.50
   2   7 -23  -25.90   47.70
   2   7 -23   18.70   31.10
   1   7 -23  -47.10   30.30
   1   7 -23   13.60   29.00
   0   7 -23   27.30   29.90
   3   6 -23   42.20   38.70
   3   6 -23    1.90   28.90
   3   6 -23   11.10   31.20
   2   6 -23   -3.10   28.60
   2   6 -23   66.59   49.40
   1   6 -23   41.50   31.70
   1   6 -23    9.30   26.10
   0   6 -23   -1.90   25.60
  -1   6 -23  -32.60   25.90
   3  -6  23   12.00   35.90
   4   5 -23   41.10   38.20
   4   5 -23   -2.70   41.00
   4   5 -23  -10.80   28.70
   3   5 -23    4.70   35.80
   3   5 -23  -18.40   31.60
   3   5 -23    0.60   27.10
   2   5 -23   11.50   18.60
   2   5 -23   13.50   28.30
   2   5 -23   -5.60   36.60
   2   5 -23  -40.00   23.30
   1   5 -23   11.00   28.10
   1   5 -23  -36.50   22.10
   0   5 -23   55.39   35.90
   0   5 -23   12.60   22.40
  -1   5 -23   22.60   23.70
  -1   5 -23   28.60   36.30
   3  -5  23   10.40   32.60
   4   4 -23   45.10   34.00
   4   4 -23   14.30   28.00
   4   4 -23   36.90   40.40
   3   4 -23    9.90   28.00
   3   4 -23   -3.50   33.50
   3   4 -23   77.59   32.60
   2   4 -23   -8.10   25.70
   2   4 -23  -10.20   30.10
   2   4 -23   55.89   27.70
   2   4 -23   -7.70   17.30
   1   4 -23   27.40   26.50
   1   4 -23   58.49   21.00
   1   4 -23   67.69   30.30
   1   4 -23   23.50   20.20
   0   4 -23    1.30   19.10
   0   4 -23   27.50   20.70
   0   4 -23   14.20   32.10
   0   4 -23  -21.40   21.10
   0  -4  23   10.50   20.70
  -1   4 -23   25.40   22.70
  -1   4 -23  -31.90   32.90
  -1   4 -23   24.50   19.60
  -2   4 -23   -6.00   23.80
  -3   4 -23   42.50   27.40
   3  -4  23   34.20   30.90
   4   3 -23  -11.40   28.30
   4   3 -23   27.90   36.70
   4   3 -23    9.10   30.50
   3   3 -23   16.50   26.30
   3   3 -23   28.10   26.20
   3   3 -23    4.80   30.50
   2   3 -23   17.60   29.90
   2   3 -23   13.80   26.50
   2   3 -23    2.60   16.70
   2   3 -23   12.30   25.20
   1   3 -23  -26.10   15.60
   1   3 -23   30.40   28.70
   1   3 -23    2.80   17.90
   1   3 -23  -11.30   19.70
  -1  -3  23   25.70   20.40
   0   3 -23   -5.80   19.00
   0   3 -23    9.50   18.90
   0   3 -23   20.10   28.30
   0   3 -23   11.40   20.00
   0  -3  23  -16.50   18.80
  -1   3 -23  164.08   39.80
  -1   3 -23   95.99   26.10
  -1   3 -23  107.99   24.80
  -1   3 -23   64.29   19.30
  -2   3 -23  -21.30   33.20
  -2   3 -23   -1.30   20.60
  -2   3 -23  -15.50   21.10
   3  -3  23   -0.10   26.10
  -4   3 -23  -17.50   23.80
   4  -3  23    5.30   28.10
   5   2 -23   27.70   42.30
   4   2 -23  -23.70   33.60
   4   2 -23   34.60   29.30
   4   2 -23   28.00   28.40
   3   2 -23   33.20   32.50
   3   2 -23   38.70   28.00
   3   2 -23   51.19   27.40
   2   2 -23   22.50   20.90
   2   2 -23  -26.00   22.70
   2   2 -23    4.10   16.60
   2   2 -23   20.80   30.90
   1   2 -23   85.39   29.10
   1   2 -23   76.29   20.60
   1   2 -23   58.69   18.90
   1   2 -23   31.00   27.90
   1   2 -23   76.79   24.10
  -1  -2  23   88.59   22.50
   0   2 -23    4.40   19.00
   0   2 -23   10.00   17.30
   0   2 -23   24.20   19.20
   0   2 -23   35.00   20.30
   0   2 -23   23.80   25.70
   0  -2  23   50.19   23.20
  -1   2 -23   -0.50   19.40
  -1   2 -23   16.40   19.80
  -1   2 -23  -35.20   31.50
  -1   2 -23   11.40   15.00
  -1   2 -23   -9.30   19.40
  -2   2 -23  194.38   31.40
  -2   2 -23  259.47   36.00
  -3   2 -23  -16.30   24.10
  -3   2 -23   10.90   23.60
   3  -2  23   15.70   25.40
  -4   2 -23   20.10   26.50
   4  -2  23   15.30   28.00
   5   1 -23  -50.09   38.40
   5   1 -23   18.30   34.20
   5   1 -23   31.50   33.30
   4   1 -23    7.50   26.80
   4   1 -23  -16.40   26.10
   4   1 -23  -18.60   33.40
   3   1 -23   81.69   29.50
   3   1 -23   39.70   32.40
   3   1 -23   28.00   23.60
   2   1 -23   -7.20   14.80
   2   1 -23   15.30   28.80
   2   1 -23    8.20   20.10
   2   1 -23   14.00   22.50
   1   1 -23   33.00   26.60
   1   1 -23   27.00   17.60
   1   1 -23   32.00   17.90
   1   1 -23   16.20   20.70
  -1  -1  23    4.30   19.50
   0   1 -23   16.30   20.50
   0   1 -23   41.30   16.90
   0   1 -23   11.70   24.10
   0   1 -23   24.60   19.00
   0   1 -23   -0.90   18.40
   0  -1  23   -0.50   20.80
  -1   1 -23    1.10   19.80
  -1   1 -23   31.00   26.10
  -1   1 -23    3.00   19.40
  -1   1 -23   10.10   20.00
  -2   1 -23   39.90   24.80
  -2   1 -23  -23.30   29.10
  -2   1 -23  -23.00   20.40
   2  -1  23   11.80   20.10
   2  -1  23  -25.00   24.90
  -3   1 -23  113.69   27.90
  -3   1 -23   38.50   27.10
   3  -1  23   22.10   31.30
   3  -1  23   -7.60   22.40
  -4   1 -23    2.50   25.60
  -4   1 -23  -11.10   28.00
   4  -1  23    7.30   25.80
   4  -1  23   16.80   32.10
   5   0 -23   -5.20   41.90
   5   0 -23   33.90   33.90
   4   0 -23  -30.30   32.10
   4   0 -23   11.60   28.50
   3   0 -23  -25.20   24.30
   3   0 -23   10.00   30.40
   2   0 -23  235.48   35.50
   2   0 -23  188.48   26.00
   2   0 -23  292.27   43.10
   1   0 -23    0.50   18.60
   1   0 -23   51.49   28.50
   1   0 -23   16.20   18.70
   1   0 -23   28.50   17.60
  -1   0  23   -9.90   21.00
   0   0 -23   -8.10   14.60
   0   0 -23  -35.00   17.20
   0   0 -23   38.00   25.50
   0   0 -23   -9.60   19.50
   0   0  23    2.70   22.50
  -1   0 -23    4.50   19.70
  -1   0 -23   73.09   28.10
  -1   0 -23    0.10   20.40
  -1   0 -23   31.80   23.60
  -2   0 -23   55.89   27.80
  -2   0 -23   12.40   22.20
  -2   0 -23   43.70   22.90
   2   0  23   28.40   17.70
  -3   0 -23   19.80   25.20
  -3   0 -23   49.50   28.10
   3   0  23   25.10   22.20
  -4   0 -23  -24.70   26.80
  -4   0 -23   -9.80   28.20
   4   0  23  -12.50   22.90
   5  -1 -23   30.50   30.80
   5  -1 -23  -10.20   41.90
   4  -1 -23   22.30   38.50
   4  -1 -23   69.69   31.60
   3  -1 -23   64.79   28.90
   3  -1 -23   -7.80   31.50
   3  -1 -23  -14.50   20.10
   2  -1 -23   10.70   24.30
   2  -1 -23  -12.80   27.70
   2  -1 -23   36.70   22.00
   2  -1 -23   12.80   19.40
   1  -1 -23  192.98   29.10
   1  -1 -23  301.87   34.60
   1  -1 -23  266.47   29.60
   1  -1 -23  285.67   40.60
  -1   1  23  198.38   31.20
   0  -1 -23   83.99   25.00
   0  -1 -23   93.29   23.80
   0  -1 -23   85.59   17.30
   0  -1 -23  142.19   31.00
   0   1  23  111.09   27.20
  -1  -1 -23   38.10   22.60
  -1  -1 -23   61.19   26.30
  -1  -1 -23   14.00   22.20
  -2  -1 -23   36.80   23.50
  -2  -1 -23   60.79   26.10
  -3  -1 -23   58.89   27.30
  -3  -1 -23   45.20   28.00
  -4  -1 -23   17.80   30.00
  -4  -1 -23   26.60   28.50
   5  -2 -23   20.60   39.50
   4  -2 -23  -16.30   28.80
   4  -2 -23   14.70   36.90
   3  -2 -23   52.89   28.60
   3  -2 -23   30.50   34.10
   3  -2 -23  -12.70   22.40
   2  -2 -23    6.60   22.50
   2  -2 -23   25.70   28.70
   2  -2 -23    6.70   20.30
   2  -2 -23   34.20   20.50
   1  -2 -23   24.30   26.60
   1  -2 -23  -16.60   18.40
   1  -2 -23   17.10   21.30
   1  -2 -23    8.80   20.10
  -1   2  23   -9.80   23.60
   0  -2 -23   45.20   22.80
   0  -2 -23   16.80   27.20
   0  -2 -23   50.99   20.90
   0   2  23   31.40   22.50
  -1  -2 -23   -2.30   23.00
  -1  -2 -23   27.30   23.40
  -2  -2 -23   34.30   25.80
  -2  -2 -23   -0.80   24.00
  -3  -2 -23   38.40   29.20
  -3  -2 -23    8.60   30.90
   4  -3 -23  -13.50   35.10
   4  -3 -23    7.50   30.80
   3  -3 -23  -60.29   29.20
   3  -3 -23  -18.70   25.90
   3  -3 -23    4.20   23.90
   3  -3 -23  -47.20   24.90
   2  -3 -23   43.40   28.50
   2  -3 -23   60.79   24.80
   2  -3 -23    8.70   23.10
   2  -3 -23   17.60   28.90
   1  -3 -23  -20.90   18.80
   1  -3 -23   -2.20   24.90
   1  -3 -23   32.10   22.10
  -1   3  23   18.10   24.40
   0  -3 -23    5.60   20.40
   0  -3 -23  -45.20   19.10
   0  -3 -23  -10.70   22.40
   0   3  23   33.50   25.60
  -1  -3 -23   41.90   24.60
  -1  -3 -23    2.60   23.50
  -2  -3 -23   14.20   24.40
  -2  -3 -23   20.50   25.30
  -3  -3 -23   68.09   30.30
  -3  -3 -23   42.20   30.50
   4  -4 -23  117.99   45.10
   4  -4 -23   48.70   32.50
   3  -4 -23   10.60   27.30
   3  -4 -23   31.40   34.60
   3  -4 -23   37.40   29.40
   2  -4 -23   24.10   30.60
   2  -4 -23    3.30   25.10
   2  -4 -23  -21.40   28.00
   1  -4 -23   -8.70   23.30
   1  -4 -23  -13.50   24.70
   1  -4 -23  -17.00   21.50
   0  -4 -23   12.90   22.60
   0  -4 -23  -22.70   21.10
   0   4  23   10.10   26.80
  -1  -4 -23   45.40   25.50
  -1  -4 -23   31.70   24.50
  -2  -4 -23   37.70   27.70
  -2  -4 -23   -0.40   25.50
  -3  -4 -23   39.20   28.50
  -3  -4 -23    6.50   30.10
   4  -5 -23    1.70   35.40
   3  -5 -23  -57.19   27.50
   3  -5 -23   42.30   34.70
   2  -5 -23  -19.20   28.90
   2  -5 -23   49.30   27.40
   2  -5 -23   33.50   30.90
   1  -5 -23    3.70   24.20
   1  -5 -23  -44.70   25.40
   1  -5 -23   -5.80   23.90
   0  -5 -23  -12.80   23.70
   0  -5 -23    0.70   22.70
   0   5  23   -0.40   27.50
  -1  -5 -23   17.20   25.10
  -1  -5 -23   35.40   25.80
  -2  -5 -23  -20.70   26.10
  -2  -5 -23   12.70   27.70
   3  -6 -23   27.80   33.80
   3  -6 -23  -45.40   31.70
   2  -6 -23    4.80   28.70
   2  -6 -23  -46.90   30.30
   1  -6 -23   51.09   27.90
   1  -6 -23   -3.90   29.10
   1  -6 -23  -21.20   25.50
   0  -6 -23   17.30   28.80
   0  -6 -23  -15.00   22.80
   0   6  23    3.40   30.50
  -1  -6 -23   35.40   27.90
  -1  -6 -23   45.80   27.40
  -2  -6 -23    1.00   28.50
  -2  -6 -23   28.30   28.00
   2  -7 -23  -30.70   32.50
   2  -7 -23   13.20   30.50
   1  -7 -23   11.40   29.30
   1  -7 -23    6.90   26.10
   0  -7 -23  -40.00   26.10
   0  -7 -23  -12.70   24.30
   0   7  23   -8.90   30.60
  -1  -7 -23  -22.10   25.50
  -1  -7 -23   -3.10   30.40
   0   8 -24   10.80   35.90
   2   7 -24  -29.80   29.20
   2   7 -24    4.20   56.19
   1   7 -24  -32.10   26.90
   0   7 -24   46.80   30.00
   3   6 -24  -26.10   33.20
   3   6 -24  -35.00   26.90
   3   6 -24  -34.40   41.20
   2   6 -24   17.00   31.80
   2   6 -24   19.10   29.70
   2   6 -24   25.60   45.10
   1   6 -24   63.89   28.40
   0   6 -24   27.70   27.20
  -1   6 -24  -14.60   28.40
   4   5 -24  -47.00   38.00
   3   5 -24   40.30   31.50
   3   5 -24   26.40   38.40
   3   5 -24   54.69   32.90
   2   5 -24   11.70   20.60
   2   5 -24   14.50   27.70
   2   5 -24    5.50   29.40
   2   5 -24  -18.70   36.60
   1   5 -24   32.60   26.90
   1   5 -24  -16.60   20.60
   0   5 -24    5.30   24.30
   0   5 -24   10.60   33.60
  -1   5 -24  -13.20   19.80
  -1   5 -24   -2.40   22.20
   3  -5  24   15.10   32.90
   4   4 -24   25.60   30.00
   4   4 -24  -32.20   34.10
   4   4 -24  -29.80   31.20
   3   4 -24  -24.80   29.50
   3   4 -24  -36.00   31.20
   3   4 -24   -7.50   25.60
   2   4 -24   12.70   17.10
   2   4 -24  -12.80   24.70
   2   4 -24   15.10   30.30
   2   4 -24   12.70   26.40
   1   4 -24   44.60   22.10
   1   4 -24   29.90   29.80
   1   4 -24   35.30   24.90
   1   4 -24   48.40   21.90
   0   4 -24   -6.90   31.50
   0   4 -24   22.60   21.30
   0   4 -24    4.80   21.20
  -1   4 -24  -14.80   19.00
  -2   4 -24    9.30   20.90
   3  -4  24  -28.40   27.30
   4   3 -24  -33.30   29.60
   4   3 -24   19.40   31.60
   4   3 -24   10.50   35.40
   3   3 -24   15.80   27.60
   3   3 -24   44.30   28.50
   3   3 -24    3.00   33.10
   2   3 -24   13.50   24.60
   2   3 -24   11.00   17.90
   2   3 -24   21.30   29.30
   2   3 -24  -45.90   22.40
   1   3 -24    9.50   18.40
   1   3 -24   54.89   23.70
   1   3 -24  -12.20   24.90
   1   3 -24   36.70   21.20
   1   3 -24  -45.60   30.80
   0   3 -24  -20.60   18.40
   0   3 -24    7.90   20.50
   0   3 -24   20.90   28.20
   0   3 -24  -14.40   18.80
   0  -3  24    5.40   20.10
  -1   3 -24   17.90   20.40
  -1   3 -24   29.50   22.50
  -1   3 -24    5.30   18.00
  -2   3 -24    2.90   22.50
   3  -3  24   60.29   28.80
   4   2 -24  -29.90   27.20
   4   2 -24   11.80   28.50
   4   2 -24   -1.60   32.90
   3   2 -24   24.30   26.00
   3   2 -24   49.00   32.50
   3   2 -24    4.90   26.70
   2   2 -24   -1.30   16.30
   2   2 -24    2.50   24.10
   2   2 -24   24.20   22.70
   2   2 -24   37.00   31.10
   1   2 -24   28.70   18.00
   1   2 -24    9.20   28.90
   1   2 -24  -38.50   25.40
   1   2 -24   -7.70   18.20
   1   2 -24   35.50   21.10
  -1  -2  24   18.20   20.00
   0   2 -24    0.80   19.40
   0   2 -24   -2.20   29.00
   0   2 -24  -11.90   17.20
   0   2 -24   -2.20   18.50
   0   2 -24   33.60   21.40
   0  -2  24   -3.40   22.30
  -1   2 -24  -22.20   27.00
  -1   2 -24   -9.20   20.80
  -1   2 -24    5.10   20.30
  -2   2 -24   42.50   24.60
  -2   2 -24   -6.60   22.40
   2  -2  24   27.20   23.60
  -3   2 -24   -8.90   25.80
  -3   2 -24   27.80   23.80
   3  -2  24  -12.40   22.50
   5   1 -24    7.80   43.80
   4   1 -24   23.20   31.10
   4   1 -24    1.00   26.90
   4   1 -24    7.10   34.40
   3   1 -24   -8.10   31.90
   3   1 -24   62.89   26.00
   3   1 -24   75.09   29.30
   2   1 -24   24.00   23.80
   2   1 -24   19.80   16.60
   2   1 -24   17.80   29.80
   1   1 -24   63.69   22.70
   1   1 -24   26.60   18.70
   1   1 -24   33.90   31.10
   1   1 -24   20.30   17.60
   0   1 -24   13.30   17.80
   0   1 -24   35.50   18.30
   0   1 -24   23.60   27.40
   0   1 -24   14.80   20.30
   0  -1  24   -8.50   22.30
  -1   1 -24    0.20   18.90
  -1   1 -24    2.30   21.50
  -1   1 -24   11.40   21.00
  -1   1 -24  -29.40   24.30
  -2   1 -24   49.80   24.10
  -2   1 -24    7.10   22.40
  -2   1 -24   -1.30   28.00
   2  -1  24   33.20   20.90
  -3   1 -24   16.70   26.10
  -3   1 -24   52.99   27.30
   3  -1  24   64.49   25.60
   3  -1  24   10.10   31.50
  -4   1 -24   28.60   30.10
   4  -1  24   39.90   27.10
   5   0 -24  -24.00   39.60
   4   0 -24  -24.20   35.30
   4   0 -24   -0.30   30.10
   3   0 -24   -5.40   24.90
   3   0 -24   -0.80   16.80
   3   0 -24  -34.80   26.80
   2   0 -24  166.88   33.70
   2   0 -24  130.79   23.70
   2   0 -24  201.58   39.30
   2   0 -24  128.99   24.40
   1   0 -24    9.90   21.00
   1   0 -24   -0.80   29.60
   1   0 -24   36.00   18.90
   1   0 -24    5.60   19.50
  -1   0  24   10.00   23.40
   0   0 -24   36.70   29.70
   0   0 -24   -0.50   18.90
   0   0 -24   39.50   17.40
   0   0 -24   18.20   20.40
   0   0  24   -0.10   22.70
  -1   0 -24   71.39   26.60
  -1   0 -24  -36.60   19.70
  -1   0 -24  -38.50   21.30
  -1   0 -24  -16.00   18.60
  -2   0 -24   20.00   22.30
  -2   0 -24   -8.90   20.40
  -2   0 -24   36.40   25.60
   2   0  24    4.30   17.60
  -3   0 -24   12.00   26.40
  -3   0 -24  -10.70   25.10
   3   0  24   10.10   23.50
   4  -1 -24  -27.30   38.00
   4  -1 -24  -29.90   28.10
   3  -1 -24    5.60   22.10
   3  -1 -24    7.10   28.50
   3  -1 -24   26.30   33.10
   2  -1 -24   32.50   26.20
   2  -1 -24   40.40   22.50
   2  -1 -24    8.60   28.30
   2  -1 -24  -24.40   19.10
   1  -1 -24  288.27   33.60
   1  -1 -24  236.88   39.90
   1  -1 -24  164.98   27.80
   1  -1 -24  224.18   30.20
  -1   1  24  167.58   30.30
   0  -1 -24   90.69   23.90
   0  -1 -24   84.29   25.20
   0  -1 -24   77.09   28.80
   0   1  24   83.79   27.20
  -1  -1 -24   10.60   22.50
  -1  -1 -24    8.80   25.40
  -1  -1 -24   26.90   20.90
  -2  -1 -24    9.10   24.00
  -2  -1 -24  -32.70   21.20
  -3  -1 -24   55.99   28.60
  -3  -1 -24   35.40   28.30
   4  -2 -24   20.50   39.40
   4  -2 -24   45.50   32.10
   3  -2 -24   45.90   28.70
   3  -2 -24   -4.70   32.80
   3  -2 -24    1.60   24.70
   2  -2 -24   -5.90   23.70
   2  -2 -24   31.90   22.50
   2  -2 -24  -18.30   28.70
   2  -2 -24  -25.80   19.50
   1  -2 -24  -15.10   19.40
   1  -2 -24   14.70   26.30
   1  -2 -24   14.10   21.40
   1  -2 -24   30.10   21.60
  -1   2  24   16.30   25.60
   0  -2 -24   18.40   23.20
   0  -2 -24   30.20   21.00
   0  -2 -24   75.29   29.30
   0   2  24   42.00   24.20
  -1  -2 -24   29.80   24.10
  -1  -2 -24   55.29   26.50
  -2  -2 -24  -21.70   24.90
  -2  -2 -24   -6.50   25.30
  -3  -2 -24  -11.10   27.40
  -3  -2 -24   55.69   32.60
   4  -3 -24   10.50   30.40
   4  -3 -24  -11.10   36.50
   3  -3 -24   36.60   29.00
   3  -3 -24  -33.20   24.40
   3  -3 -24   21.70   33.70
   3  -3 -24  -25.80   24.40
   2  -3 -24  -19.70   23.60
   2  -3 -24    9.10   31.30
   2  -3 -24    5.60   25.50
   2  -3 -24    0.30   24.50
   1  -3 -24  -28.10   19.40
   1  -3 -24    1.40   25.30
   1  -3 -24   21.30   23.10
   0  -3 -24  -21.40   20.10
   0  -3 -24   -8.30   20.00
   0  -3 -24   -4.90   23.40
   0   3  24  -19.30   24.30
  -1  -3 -24   85.19   28.20
  -1  -3 -24   21.50   23.30
  -2  -3 -24   17.50   26.10
  -2  -3 -24    3.50   25.80
  -3  -3 -24   21.70   30.30
  -3  -3 -24  -19.90   28.20
   4  -4 -24   38.60   39.60
   3  -4 -24  -24.50   32.70
   3  -4 -24   -1.40   30.40
   3  -4 -24    4.20   26.70
   2  -4 -24   -7.70   25.90
   2  -4 -24   23.80   31.70
   2  -4 -24  -19.80   27.20
   1  -4 -24    4.10   24.40
   1  -4 -24    5.70   24.40
   1  -4 -24   15.00   26.50
   0  -4 -24  -30.30   21.10
   0  -4 -24   -8.50   23.00
   0  -4 -24  -17.50   20.70
   0   4  24   66.39   30.40
  -1  -4 -24   37.40   26.90
  -1  -4 -24    7.70   23.70
  -2  -4 -24   -9.00   25.70
  -2  -4 -24   23.00   27.10
  -3  -4 -24   23.10   31.60
   3  -5 -24   27.60   34.90
   3  -5 -24   13.90   32.20
   2  -5 -24    7.70   30.30
   2  -5 -24  -31.80   29.00
   2  -5 -24   28.60   28.50
   1  -5 -24    4.70   25.00
   1  -5 -24   22.00   29.60
   1  -5 -24   27.70   28.20
   0  -5 -24  -35.70   23.80
   0  -5 -24   10.50   26.40
   0   5  24    1.20   28.20
  -1  -5 -24   28.10   26.30
  -1  -5 -24   28.40   25.90
  -2  -5 -24   10.40   29.60
  -2  -5 -24  -16.10   28.20
   3  -6 -24   -4.30   34.30
   3  -6 -24    1.70   35.10
   2  -6 -24   42.20   32.00
   2  -6 -24   35.40   33.40
   2  -6 -24   15.20   29.50
   1  -6 -24    9.30   26.30
   1  -6 -24  -26.70   24.40
   1  -6 -24  -46.70   26.50
   0  -6 -24  -12.80   28.90
   0  -6 -24   30.50   25.70
   0   6  24   21.50   31.10
  -1  -6 -24    7.90   27.60
  -1  -6 -24   36.70   27.00
   2  -7 -24   21.00   32.20
   1  -7 -24    8.40   27.00
   1  -7 -24   -7.30   30.30
   0  -7 -24   29.60   28.50
   0  -7 -24   11.80   30.00
   0   7  24    5.10   32.80
   2   7 -25   17.60   59.09
   2   7 -25   -1.20   33.40
   1   7 -25   25.50   29.00
   0   7 -25   15.20   29.90
  -1   7 -25    9.20   32.80
   3   6 -25  -44.60   39.10
   2   6 -25    5.50   42.50
   2   6 -25  -22.60   29.70
   2   6 -25    9.00   30.90
   1   6 -25   20.50   28.30
   0   6 -25   63.29   30.60
  -1   6 -25   43.80   28.90
   3   5 -25   10.60   31.50
   3   5 -25  -36.70   26.60
   2   5 -25    9.00   19.90
   2   5 -25    2.70   41.80
   2   5 -25   50.89   32.10
   2   5 -25   47.30   35.20
   1   5 -25  -12.00   26.30
   1   5 -25   40.20   30.60
   0   5 -25  -10.00   22.50
   0   5 -25  -24.70   31.50
  -1   5 -25   51.29   25.20
   4   4 -25   15.50   33.60
   4   4 -25   -7.80   37.80
   3   4 -25   37.60   27.40
   3   4 -25   19.10   34.60
   3   4 -25  -13.50   26.90
   2   4 -25   -1.90   26.70
   2   4 -25  -17.30   18.10
   2   4 -25   19.10   28.00
   2   4 -25  -14.70   30.80
   1   4 -25   59.39   22.70
   1   4 -25   46.10   27.20
   1   4 -25   36.70   30.60
   0   4 -25    6.40   22.80
   0   4 -25  -25.90   21.20
   0   4 -25   -2.50   30.10
  -1   4 -25   -3.40   18.90
  -1   4 -25   32.90   35.30
   3  -4  25    0.40   28.60
   4   3 -25    0.50   32.50
   4   3 -25  -17.10   29.20
   4   3 -25   14.10   40.30
   3   3 -25   58.99   29.30
   3   3 -25    4.50   30.80
   3   3 -25   -1.10   27.20
   2   3 -25   39.10   25.00
   2   3 -25    7.40   30.70
   2   3 -25   19.40   19.10
   2   3 -25    2.40   25.30
   1   3 -25   81.29   26.60
   1   3 -25   27.80   21.50
   1   3 -25  -69.09   26.60
   1   3 -25   34.70   30.00
   1   3 -25   40.20   20.20
   0   3 -25   -4.20   19.80
   0   3 -25   -1.20   19.80
   0   3 -25  -22.30   27.30
   0   3 -25   26.10   21.20
   0  -3  25   -0.90   23.90
  -1   3 -25   -2.70   23.40
  -1   3 -25   -7.80   20.80
  -3   3 -25   41.70   27.00
   3  -3  25  -10.40   26.00
   4   2 -25   26.40   30.40
   4   2 -25    0.20   29.10
   4   2 -25  -26.00   33.50
   3   2 -25   21.40   32.80
   3   2 -25   22.70   27.00
   3   2 -25    4.30   25.40
   2   2 -25   57.29   32.60
   2   2 -25   16.80   25.00
   2   2 -25  106.19   25.10
   2   2 -25   22.80   20.10
   1   2 -25   -9.40   21.40
   1   2 -25   32.80   28.70
   1   2 -25   43.50   18.10
   1   2 -25   59.19   21.80
   0   2 -25   21.30   28.70
   0   2 -25   29.50   18.30
   0   2 -25  -16.00   21.60
   0   2 -25  -17.30   19.30
   0   2 -25   22.20   21.40
   0  -2  25   10.60   23.50
  -1   2 -25   -3.40   20.40
  -1   2 -25   31.90   22.10
  -1   2 -25   -4.90   19.90
  -1   2 -25    4.50   29.00
  -2   2 -25   91.09   37.00
  -2   2 -25   63.29   27.90
  -2   2 -25   49.60   25.90
   2  -2  25   34.20   24.80
  -3   2 -25   -4.00   25.30
   3  -2  25   14.20   24.50
   4   1 -25  -30.30   32.10
   4   1 -25  -10.10   27.10
   3   1 -25   38.40   33.30
   3   1 -25  -28.60   24.00
   2   1 -25   44.80   25.90
   2   1 -25   40.00   34.20
   2   1 -25   22.60   17.90
   1   1 -25   13.90   20.50
   1   1 -25  123.89   34.30
   1   1 -25   77.99   24.10
   1   1 -25   46.30   20.10
  -1  -1  25   53.79   24.50
   0   1 -25   10.70   23.40
   0   1 -25  -19.40   19.40
   0   1 -25    7.80   16.60
   0   1 -25   23.10   27.90
   0   1 -25   10.60   18.90
   0  -1  25   14.80   23.60
  -1   1 -25   -0.60   20.00
  -1   1 -25    9.10   29.40
  -1   1 -25  -16.60   19.60
  -1   1 -25   24.30   23.60
  -2   1 -25   11.70   24.20
  -2   1 -25   38.60   30.20
  -2   1 -25   29.50   26.20
   2  -1  25    4.80   20.50
  -3   1 -25  113.89   32.30
  -3   1 -25   64.29   28.70
   3  -1  25   99.89   27.10
   4   0 -25  -12.40   34.80
   4   0 -25    0.00   31.30
   3   0 -25   -9.30   27.60
   3   0 -25   -4.90   17.90
   3   0 -25   11.80   27.20
   2   0 -25   -5.60   19.80
   2   0 -25    8.90   24.90
   2   0 -25  -15.20   18.40
   2   0 -25   25.00   31.80
   1   0 -25  -11.00   18.30
   1   0 -25   17.10   29.40
   1   0 -25    6.40   19.60
   1   0 -25   14.70   19.90
  -1   0  25    7.20   23.10
   0   0 -25   65.99   30.70
   0   0 -25   20.00   21.10
   0   0 -25   -6.20   21.50
   0   0  25    0.30   23.00
  -1   0 -25  -30.00   22.70
  -1   0 -25  -29.80   21.50
  -1   0 -25   86.39   28.50
  -1   0 -25   -1.40   20.90
  -2   0 -25   11.40   25.10
  -2   0 -25   22.90   24.70
  -2   0 -25  -12.40   22.90
   2   0  25   26.30   19.80
  -3   0 -25  -23.00   26.80
  -3   0 -25   49.90   29.00
   4  -1 -25   58.49   39.30
   4  -1 -25    3.20   28.90
   3  -1 -25    9.90   22.70
   3  -1 -25    0.20   25.90
   3  -1 -25   -1.90   33.70
   2  -1 -25  -18.00   26.70
   2  -1 -25    7.40   24.90
   2  -1 -25   25.10   20.40
   2  -1 -25    1.00   22.00
   1  -1 -25   41.80   31.20
   1  -1 -25   38.80   21.90
   1  -1 -25   33.20   22.10
   1  -1 -25   41.50   21.50
  -1   1  25   45.70   26.70
   0  -1 -25   63.69   24.40
   0  -1 -25   37.00   23.00
   0  -1 -25   12.10   27.80
   0   1  25   -6.00   22.90
  -1  -1 -25  -18.00   20.80
  -1  -1 -25   73.49   28.00
  -1  -1 -25   10.20   23.90
  -2  -1 -25   27.80   25.60
  -2  -1 -25   17.70   25.80
  -3  -1 -25   15.50   26.80
  -3  -1 -25  -50.99   24.20
   4  -2 -25   15.10   38.20
   4  -2 -25    3.80   31.50
   3  -2 -25  -25.90   22.90
   3  -2 -25   26.10   29.00
   3  -2 -25   18.00   33.60
   2  -2 -25   27.50   32.40
   2  -2 -25   -5.70   22.00
   2  -2 -25  -11.40   20.70
   2  -2 -25  -14.70   23.20
   1  -2 -25   50.69   23.30
   1  -2 -25   19.00   20.40
   1  -2 -25  -19.20   19.70
   1  -2 -25   -2.70   28.10
   0  -2 -25  250.37   38.70
   0  -2 -25   99.29   29.10
   0  -2 -25  131.39   27.70
   0   2  25  122.09   28.60
  -1  -2 -25   62.39   25.30
  -1  -2 -25   57.99   27.00
  -2  -2 -25   -5.40   27.30
  -2  -2 -25  -23.60   26.30
  -3  -2 -25   28.20   32.40
  -3  -2 -25  -21.40   28.10
   4  -3 -25    9.40   39.10
   4  -3 -25   22.10   32.60
   3  -3 -25   28.00   29.70
   3  -3 -25   -2.30   33.80
   3  -3 -25   14.80   26.40
   3  -3 -25   -4.60   28.70
   2  -3 -25   14.50   32.90
   2  -3 -25  -25.80   27.50
   2  -3 -25  -13.90   24.70
   2  -3 -25   -2.20   24.50
   1  -3 -25    2.10   21.90
   1  -3 -25    1.70   21.50
   1  -3 -25   14.60   27.00
   0  -3 -25   18.30   24.40
   0  -3 -25   -2.70   22.10
   0  -3 -25  -22.90   21.40
   0   3  25   12.60   26.50
  -1  -3 -25  -13.40   24.00
  -1  -3 -25  -23.50   23.50
  -2  -3 -25   -8.00   26.10
  -2  -3 -25   -7.30   28.10
  -3  -3 -25   -5.60   30.00
  -3  -3 -25   32.80   30.50
   4  -4 -25   74.39   43.10
   3  -4 -25    8.00   35.50
   3  -4 -25  -73.89   28.10
   3  -4 -25    1.30   28.70
   2  -4 -25   -5.50   30.40
   2  -4 -25  -35.60   24.80
   2  -4 -25  -10.00   30.60
   1  -4 -25   -0.30   25.40
   1  -4 -25    8.00   26.70
   1  -4 -25   28.20   24.90
   0  -4 -25    1.40   23.30
   0  -4 -25   10.50   25.10
   0  -4 -25   10.20   23.90
   0   4  25  -10.50   28.90
  -1  -4 -25   15.30   26.20
  -1  -4 -25   -8.90   25.60
  -2  -4 -25   20.90   27.40
  -2  -4 -25   20.50   27.60
   3  -5 -25   20.00   36.00
   3  -5 -25    0.30   31.50
   2  -5 -25   -8.60   27.50
   2  -5 -25   -7.10   31.60
   2  -5 -25   15.30   30.40
   1  -5 -25   42.30   32.40
   1  -5 -25  -11.30   25.90
   1  -5 -25  -37.00   25.10
   0  -5 -25  -51.39   23.70
   0  -5 -25    7.70   25.90
   0   5  25   59.49   33.40
  -1  -5 -25   -6.60   25.60
  -1  -5 -25    8.30   26.10
  -2  -5 -25   39.80   30.30
  -2  -5 -25   34.60   32.10
   2  -6 -25   43.20   36.40
   2  -6 -25   65.19   36.30
   2  -6 -25   86.99   34.00
   1  -6 -25  -10.60   26.50
   1  -6 -25  -38.50   30.40
   1  -6 -25    6.50   28.30
   0  -6 -25  -39.20   24.70
   0  -6 -25   17.00   29.40
   0   6  25   47.10   34.50
  -1  -6 -25   33.90   29.70
  -1  -6 -25  -12.70   26.90
   1   7 -26  -12.70   31.20
   0   7 -26    3.70   32.00
   2   6 -26  -32.20   47.80
   2   6 -26  -17.70   29.40
   2   6 -26  -29.40   30.50
   1   6 -26   43.10   32.70
   0   6 -26  -14.60   26.10
  -1   6 -26   34.50   29.70
   3   5 -26   68.09   33.40
   3   5 -26   18.50   38.60
   3   5 -26  -12.50   34.70
   2   5 -26    1.40   29.50
   2   5 -26  -31.00   35.00
   2   5 -26   16.70   21.30
   2   5 -26   11.00   29.20
   1   5 -26   10.00   27.80
   1   5 -26   16.50   35.40
   0   5 -26   17.00   37.30
   0   5 -26   32.90   25.90
  -1   5 -26   25.20   25.20
   3   4 -26   19.00   30.00
   3   4 -26   38.10   29.70
   3   4 -26   21.30   35.50
   2   4 -26   80.09   29.80
   2   4 -26   20.00   36.90
   2   4 -26    7.50   20.70
   2   4 -26    5.90   29.50
   1   4 -26   66.89   24.40
   1   4 -26   52.99   33.10
   1   4 -26   20.10   27.00
   0   4 -26   35.80   22.60
   0   4 -26   10.60   24.10
   0   4 -26  -24.40   30.40
   4   3 -26  -12.50   32.30
   4   3 -26  -79.59   35.40
   4   3 -26   32.00   33.10
   3   3 -26   -2.00   32.10
   3   3 -26  -19.10   28.00
   3   3 -26   21.70   27.60
   2   3 -26   20.00   25.60
   2   3 -26   -8.70   18.80
   2   3 -26   49.80   35.40
   2   3 -26   44.10   25.80
   1   3 -26   45.30   20.80
   1   3 -26   81.49   32.50
   1   3 -26   34.70   22.00
   1   3 -26  -62.79   25.10
   1   3 -26   19.70   25.20
   0   3 -26   13.40   29.80
   0   3 -26  -11.00   20.70
   0   3 -26   13.50   21.80
   0   3 -26   -7.90   20.10
   0  -3  26   16.10   25.10
  -1   3 -26   -0.80   22.20
  -1   3 -26   16.20   23.10
  -2   3 -26   44.30   26.30
  -3   3 -26  -11.60   24.30
   3  -3  26   19.00   27.70
   4   2 -26   23.50   33.70
   4   2 -26   49.80   32.60
   3   2 -26   10.70   29.00
   3   2 -26  -17.50   34.40
   2   2 -26   16.50   30.60
   2   2 -26   13.50   19.50
   2   2 -26   25.10   26.40
   1   2 -26   16.00   17.60
   1   2 -26   11.80   20.50
   1   2 -26   63.09   25.00
   1   2 -26   32.70   30.50
   0   2 -26   12.30   21.70
   0   2 -26   24.50   21.50
   0   2 -26   44.50   30.50
   0   2 -26   -6.90   17.10
   0  -2  26    6.30   24.50
  -1   2 -26   -0.70   22.40
  -1   2 -26   -1.70   21.00
  -1   2 -26   16.50   30.40
  -2   2 -26    1.20   24.00
  -2   2 -26   -5.80   23.20
   2  -2  26   54.69   25.60
  -3   2 -26  -13.60   23.80
   3  -2  26   10.30   25.20
   4   1 -26   11.90   35.70
   4   1 -26   25.30   30.70
   3   1 -26   11.10   35.60
   3   1 -26   25.00   27.80
   2   1 -26   12.20   24.10
   2   1 -26   11.00   18.70
   2   1 -26   50.39   33.10
   1   1 -26  -19.10   21.40
   1   1 -26   -9.60   19.40
   1   1 -26   48.20   31.20
   1   1 -26   13.90   19.90
   0   1 -26    0.40   20.30
   0   1 -26   28.80   20.00
   0   1 -26   62.29   30.70
   0  -1  26   -0.40   24.60
  -1   1 -26  -22.70   21.20
  -1   1 -26   20.60   23.80
  -1   1 -26  -21.20   22.90
  -1   1 -26    8.80   27.70
  -2   1 -26   -0.30   23.50
  -2   1 -26   14.70   25.60
   2  -1  26   -9.60   21.30
  -3   1 -26   32.80   27.80
  -3   1 -26  -19.40   23.90
   3  -1  26   15.90   22.70
   4   0 -26   -5.50   30.60
   4   0 -26    6.00   39.10
   3   0 -26   -5.10   19.50
   3   0 -26  -14.50   27.30
   3   0 -26  -26.10   29.90
   2   0 -26    0.00   20.50
   2   0 -26  -20.70   23.90
   2   0 -26   20.40   30.50
   2   0 -26  -23.70   19.60
   1   0 -26   15.10   19.40
   1   0 -26   90.09   33.70
   1   0 -26   21.00   21.90
   1   0 -26    7.80   21.40
   0   0 -26   -3.40   21.80
   0   0 -26   37.20   31.20
   0   0 -26    4.90   22.50
   0   0  26   21.40   25.30
  -1   0 -26    9.40   21.90
  -1   0 -26  -29.00   25.00
  -1   0 -26   16.80   24.00
  -1   0 -26   97.59   30.30
  -2   0 -26  -11.50   24.90
  -2   0 -26   11.30   24.40
  -3   0 -26   15.90   27.80
  -3   0 -26  -13.80   28.20
   4  -1 -26   21.90   39.30
   4  -1 -26   72.29   34.90
   3  -1 -26   32.50   30.10
   3  -1 -26   -2.00   23.90
   3  -1 -26  -24.00   32.70
   2  -1 -26   76.19   27.30
   2  -1 -26    5.60   28.50
   2  -1 -26    7.10   22.30
   2  -1 -26   -4.20   20.30
   1  -1 -26   44.80   20.50
   1  -1 -26    4.40   23.20
   1  -1 -26    9.50   21.10
   1  -1 -26    1.20   30.30
   0  -1 -26   13.70   21.60
   0  -1 -26   36.60   30.40
   0  -1 -26    0.20   21.50
   0   1  26    6.60   25.30
  -1  -1 -26   10.70   22.70
  -1  -1 -26   69.29   27.60
  -1  -1 -26   11.40   25.00
  -2  -1 -26   42.70   26.20
  -2  -1 -26   38.30   28.60
  -3  -1 -26   10.40   28.20
  -3  -1 -26   18.20   28.50
   4  -2 -26  -17.70   31.30
   4  -2 -26   46.40   40.90
   3  -2 -26   30.00   25.90
   3  -2 -26   16.50   28.20
   3  -2 -26   -9.10   34.40
   2  -2 -26  -39.00   23.20
   2  -2 -26  -21.20   30.90
   2  -2 -26  -16.50   21.30
   2  -2 -26   18.30   21.30
   1  -2 -26    9.10   22.20
   1  -2 -26   40.60   28.60
   1  -2 -26    0.40   20.50
   1  -2 -26   18.10   22.70
   0  -2 -26  -15.20   20.80
   0  -2 -26   -3.90   29.70
   0  -2 -26   15.40   24.00
   0   2  26   59.69   27.40
  -1  -2 -26   25.80   25.10
  -1  -2 -26    7.50   25.70
  -2  -2 -26  -26.70   25.60
  -2  -2 -26   -6.20   26.30
  -3  -2 -26    4.30   31.70
  -3  -2 -26   31.40   31.70
   4  -3 -26   -2.20   40.00
   3  -3 -26  -27.90   32.80
   3  -3 -26   69.09   31.20
   3  -3 -26  -23.90   28.40
   3  -3 -26  -11.80   26.80
   2  -3 -26   -2.90   28.30
   2  -3 -26   17.00   26.70
   2  -3 -26  -36.20   29.40
   2  -3 -26    7.80   24.20
   1  -3 -26   -6.90   22.70
   1  -3 -26   -6.70   22.50
   1  -3 -26  -22.40   25.90
   0  -3 -26   -4.20   25.10
   0  -3 -26    4.30   23.10
   0  -3 -26   41.60   24.60
   0   3  26   33.50   28.80
  -1  -3 -26   48.90   27.10
  -1  -3 -26   25.00   26.10
  -2  -3 -26   -7.30   26.10
  -2  -3 -26   11.30   27.60
   3  -4 -26    6.80   29.00
   3  -4 -26   -0.90   35.60
   3  -4 -26   12.50   32.10
   2  -4 -26   54.39   29.10
   2  -4 -26    6.40   29.90
   2  -4 -26    6.10   32.60
   1  -4 -26   12.10   29.00
   1  -4 -26    5.90   26.50
   1  -4 -26    0.40   24.90
   0  -4 -26  -17.00   22.50
   0  -4 -26  -30.50   23.50
   0  -4 -26   45.80   26.60
   0   4  26  -44.30   28.10
  -1  -4 -26   22.40   26.50
  -1  -4 -26    7.30   26.90
  -2  -4 -26   20.10   30.20
  -2  -4 -26   54.09   30.60
   3  -5 -26   16.00   34.30
   3  -5 -26    1.30   36.20
   2  -5 -26   15.40   33.30
   2  -5 -26   22.50   33.60
   2  -5 -26  -10.20   28.10
   1  -5 -26  -14.30   26.70
   1  -5 -26   26.80   28.70
   1  -5 -26    8.20   31.10
   0  -5 -26    0.70   25.20
   0  -5 -26   20.80   27.60
   0   5  26  -44.50   29.30
  -1  -5 -26   17.20   27.90
  -1  -5 -26   13.00   26.30
   2  -6 -26    8.40   31.50
   2  -6 -26  -40.60   32.20
   2  -6 -26   14.10   31.90
   1  -6 -26   -0.50   27.20
   1  -6 -26   25.90   29.80
   1  -6 -26  -44.50   29.50
   0  -6 -26  -18.20   28.70
   0  -6 -26  -12.20   26.20
   0   6  26    9.70   34.70
   2   6 -27  -23.90   50.79
   1   6 -27  -22.80   31.80
   0   6 -27   21.20   27.20
   3   5 -27   28.30   37.60
   2   5 -27   11.50   37.80
   2   5 -27   39.90   32.80
   2   5 -27   20.60   30.60
   1   5 -27    5.90   29.40
   0   5 -27  -14.80   24.60
   3   4 -27    3.90   33.00
   3   4 -27   -3.10   31.00
   3   4 -27   30.30   31.40
   2   4 -27    5.90   21.30
   2   4 -27    6.10   30.20
   2   4 -27   15.10   29.90
   2   4 -27   18.30   27.90
   1   4 -27   40.50   26.10
   1   4 -27  -44.30   39.70
   1   4 -27   16.10   22.10
   1   4 -27   10.40   30.90
   0   4 -27    9.10   23.00
   0   4 -27   -0.10   33.70
   3   3 -27   92.59   40.30
   3   3 -27   55.39   32.80
   2   3 -27   34.50   27.70
   2   3 -27    8.30   20.60
   2   3 -27  -21.60   33.90
   1   3 -27   -4.30   23.50
   1   3 -27   -4.20   21.30
   1   3 -27   61.99   32.40
   1   3 -27    4.70   21.50
   0   3 -27    0.80   20.20
   0   3 -27   10.10   24.20
   0   3 -27    7.20   31.20
   0  -3  27   -7.50   26.30
  -2   3 -27   20.20   24.70
   4   2 -27  -20.60   36.20
   3   2 -27  -46.80   33.70
   3   2 -27    1.70   28.00
   2   2 -27  133.89   38.30
   2   2 -27   72.09   31.80
   2   2 -27   44.10   21.10
   1   2 -27   10.30   20.10
   1   2 -27   72.29   26.70
   1   2 -27   50.29   21.10
   1   2 -27   58.49   32.10
   0   2 -27  -39.70   18.80
   0   2 -27   -0.60   20.60
   0   2 -27   82.19   32.80
   0  -2  27   18.40   26.80
  -1   2 -27   15.30   24.00
  -1   2 -27    5.10   31.30
  -1   2 -27   -1.10   23.30
  -2   2 -27   22.30   26.20
  -2   2 -27   26.00   24.20
   2  -2  27   26.40   24.80
  -3   2 -27   -5.60   26.10
   3  -2  27  -19.70   24.30
   4   1 -27   43.00   37.90
   4   1 -27    0.60   34.10
   3   1 -27   19.10   37.40
   3   1 -27  -65.39   23.90
   2   1 -27   34.80   26.60
   2   1 -27   55.39   33.90
   2   1 -27   28.10   19.30
   1   1 -27    7.00   20.90
   1   1 -27   61.19   31.10
   1   1 -27   38.30   22.20
   1   1 -27   32.20   23.10
   0   1 -27   74.29   30.40
   0   1 -27   53.99   24.30
   0   1 -27   58.49   23.50
   0   1 -27  -14.90   25.20
   0  -1  27   68.79   28.50
  -1   1 -27  -16.10   21.80
  -1   1 -27   56.69   32.00
  -1   1 -27   -6.60   23.30
  -1   1 -27  -30.20   24.40
  -2   1 -27   46.20   27.10
  -2   1 -27  -22.10   23.90
   2  -1  27   28.00   22.10
  -3   1 -27   45.70   27.80
  -3   1 -27  -50.69   23.70
   4   0 -27  -31.10   30.20
   4   0 -27   26.60   38.70
   3   0 -27   -8.40   19.60
   3   0 -27   -3.00   29.80
   3   0 -27   60.79   35.90
   2   0 -27  -29.50   19.20
   2   0 -27   -5.70   30.50
   2   0 -27  -19.80   20.80
   2   0 -27  -50.09   22.10
   1   0 -27   -1.00   20.90
   1   0 -27  -23.90   19.50
   1   0 -27   42.20   32.60
   1   0 -27   -9.60   19.90
   0   0 -27   30.10   23.10
   0   0 -27   29.90   23.10
   0   0 -27   25.60   30.40
   0   0  27   21.60   26.40
  -1   0 -27   39.60   28.30
  -1   0 -27  -16.40   22.20
  -1   0 -27    6.30   23.80
  -2   0 -27   87.39   31.10
  -2   0 -27   72.29   29.90
  -2   0 -27   36.40   26.70
  -3   0 -27  -19.90   25.60
  -3   0 -27   24.40   31.10
   4  -1 -27    2.10   31.20
   4  -1 -27  -23.00   37.50
   3  -1 -27    4.20   24.00
   3  -1 -27  -10.60   26.90
   3  -1 -27   30.30   36.00
   2  -1 -27    3.70   20.80
   2  -1 -27   -7.10   23.40
   2  -1 -27   22.30   23.70
   2  -1 -27   29.00   32.40
   1  -1 -27   43.50   21.90
   1  -1 -27   40.90   22.20
   1  -1 -27   40.30   35.50
   1  -1 -27   -1.00   21.50
   0  -1 -27   15.80   29.70
   0  -1 -27   19.90   23.40
   0  -1 -27   -7.50   22.70
   0   1  27   19.80   25.90
  -1  -1 -27   51.39   28.80
  -1  -1 -27   13.20   26.50
  -1  -1 -27   39.70   25.90
  -2  -1 -27   27.60   27.90
  -2  -1 -27    5.80   26.70
   4  -2 -27    4.10   38.90
   3  -2 -27   12.30   25.70
   3  -2 -27  -58.29   27.30
   3  -2 -27   39.70   36.50
   2  -2 -27   32.20   24.80
   2  -2 -27   41.60   26.60
   2  -2 -27    9.90   34.20
   2  -2 -27  -35.10   22.50
   1  -2 -27   10.60   23.10
   1  -2 -27  -15.00   22.40
   1  -2 -27   19.60   29.40
   0  -2 -27   24.50   26.30
   0  -2 -27   38.90   33.50
   0  -2 -27   59.39   25.80
   0   2  27   11.10   27.10
  -1  -2 -27   15.20   26.30
  -1  -2 -27    2.80   25.20
  -2  -2 -27   50.99   32.20
  -2  -2 -27  -19.90   29.60
   3  -3 -27   21.50   36.60
   3  -3 -27  -35.00   29.00
   3  -3 -27  -37.10   29.40
   3  -3 -27   13.70   28.10
   2  -3 -27  -28.70   28.50
   2  -3 -27   30.80   28.90
   2  -3 -27   18.00   34.90
   1  -3 -27    1.80   30.00
   1  -3 -27   42.70   26.00
   1  -3 -27  -12.40   22.20
   0  -3 -27   13.50   25.40
   0  -3 -27    0.50   24.50
   0  -3 -27   31.00   27.20
   0   3  27   59.09   32.10
  -1  -3 -27   -2.80   25.20
  -1  -3 -27  -28.00   23.70
  -2  -3 -27  -20.50   29.30
  -2  -3 -27    2.00   26.80
   3  -4 -27    0.70   35.80
   3  -4 -27   61.19   30.80
   3  -4 -27   40.40   33.90
   2  -4 -27   -4.10   31.80
   2  -4 -27  -10.40   26.20
   2  -4 -27  -45.20   28.70
   1  -4 -27    1.20   26.90
   1  -4 -27   13.80   28.60
   1  -4 -27   26.90   27.10
   0  -4 -27   30.10   26.90
   0  -4 -27    2.90   25.20
   0   4  27  -11.90   31.40
  -1  -4 -27   -6.00   27.80
  -1  -4 -27  -12.30   26.90
   2  -5 -27    6.80   33.00
   2  -5 -27   48.20   35.40
   2  -5 -27   19.20   29.00
   1  -5 -27  -35.90   26.80
   1  -5 -27   58.49   34.30
   1  -5 -27    5.50   29.90
   0  -5 -27   57.19   28.10
   0  -5 -27   17.40   26.80
   0   5  27   77.99   37.50
  -1  -5 -27   14.40   28.80
   0   6 -28   -3.80   26.70
   2   5 -28  -74.09   43.20
   2   5 -28   27.50   35.00
   2   5 -28    3.30   32.00
   2   5 -28   11.20   23.20
   1   5 -28  -31.90   28.60
   1   5 -28 -109.79   42.80
   1   5 -28   44.30   37.70
   0   5 -28  -17.60   26.60
   3   4 -28  -19.10   35.90
   2   4 -28   21.10   28.30
   2   4 -28   20.70   22.10
   2   4 -28   76.49   35.80
   1   4 -28   17.90   26.10
   1   4 -28    0.50   33.00
   0   4 -28    3.30   24.90
  -2   4 -28   10.50   25.90
   3   3 -28   25.80   35.00
   3   3 -28   27.80   33.30
   2   3 -28   -2.30   20.30
   2   3 -28  -31.90   24.30
   2   3 -28   14.20   32.80
   1   3 -28   50.19   34.00
   1   3 -28   11.60   21.00
   1   3 -28   30.70   23.00
   1   3 -28   24.40   24.90
   0   3 -28   13.80   23.80
  -2   3 -28   12.50   25.50
   3   2 -28   57.69   39.20
   3   2 -28   65.19   31.80
   2   2 -28  -13.30   32.30
   2   2 -28   46.90   29.30
   2   2 -28   56.69   22.10
   1   2 -28   16.80   24.10
   1   2 -28   24.00   21.40
   1   2 -28  -10.60   21.10
   1   2 -28   22.80   34.80
   0   2 -28  -43.40   20.20
   0   2 -28   -1.40   22.20
   0   2 -28   59.99   34.10
   0  -2  28    1.10   27.60
  -1   2 -28  -17.70   32.00
  -1   2 -28   -1.40   24.60
  -1   2 -28   -2.00   25.70
  -2   2 -28  -18.10   23.50
   2  -2  28    4.60   26.10
   3   1 -28  -18.20   33.90
   3   1 -28  -45.80   28.20
   2   1 -28  -22.40   19.00
   2   1 -28  -12.90   26.00
   2   1 -28   45.20   37.80
   1   1 -28  109.39   28.20
   1   1 -28  179.58   31.50
   1   1 -28  233.58   43.60
   1   1 -28  110.29   27.40
   0   1 -28    1.40   22.90
   0   1 -28   59.19   30.00
   0   1 -28  -43.70   20.90
   0  -1  28   45.40   30.40
  -1   1 -28   14.10   22.80
  -1   1 -28  -13.90   22.70
  -1   1 -28   43.30   33.80
  -2   1 -28  -28.20   23.00
  -2   1 -28   23.80   27.90
   4   0 -28   34.90   41.40
   3   0 -28  -11.10   20.80
   3   0 -28   24.70   33.50
   3   0 -28   -2.60   30.90
   2   0 -28  -17.40   34.20
   2   0 -28   36.30   22.40
   2   0 -28   46.50   24.10
   2   0 -28   11.60   27.70
   1   0 -28  -24.50   21.60
   1   0 -28   53.99   34.90
   1   0 -28  -10.30   22.40
   1   0 -28   18.30   21.50
   0   0 -28  132.89   37.40
   0   0 -28   91.09   26.90
   0   0 -28   49.99   25.00
   0   0  28   32.40   28.70
  -1   0 -28  -11.90   24.70
  -1   0 -28    5.40   23.10
  -1   0 -28   41.40   34.00
  -2   0 -28    2.60   25.50
  -2   0 -28  -28.50   26.60
   3  -1 -28   -6.00   27.30
   3  -1 -28  -20.00   33.70
   3  -1 -28    4.80   25.80
   2  -1 -28    7.80   21.70
   2  -1 -28   33.10   35.20
   2  -1 -28   16.90   25.80
   2  -1 -28    1.80   23.00
   1  -1 -28   -3.40   22.60
   1  -1 -28    5.30   21.20
   1  -1 -28   41.30   34.10
   0  -1 -28    5.20   23.40
   0  -1 -28   60.79   32.40
   0  -1 -28  -18.10   24.90
   0   1  28  -24.30   26.90
  -1  -1 -28   59.79   30.00
  -1  -1 -28   35.70   27.60
  -1  -1 -28   -3.40   25.30
  -2  -1 -28   12.70   29.40
  -2  -1 -28   27.10   30.40
   3  -2 -28    2.30   26.40
   3  -2 -28   20.80   36.10
   3  -2 -28    8.70   31.30
   2  -2 -28   36.60   27.50
   2  -2 -28   26.10   34.10
   2  -2 -28   17.20   23.80
   2  -2 -28   14.90   25.00
   1  -2 -28   12.70   24.10
   1  -2 -28  -29.40   26.90
   1  -2 -28   33.70   24.50
   0  -2 -28  -20.00   25.10
   0  -2 -28   31.30   32.30
   0  -2 -28   17.60   23.60
   0   2  28   35.10   30.30
  -1  -2 -28    1.60   26.20
  -1  -2 -28  -26.50   26.80
  -2  -2 -28   64.49   30.50
  -2  -2 -28    6.50   30.10
   3  -3 -28   -2.10   30.00
   3  -3 -28    2.60   37.40
   3  -3 -28  -35.40   28.60
   3  -3 -28    8.30   28.60
   2  -3 -28   33.40   29.30
   2  -3 -28    8.20   36.40
   2  -3 -28  -10.60   29.40
   1  -3 -28    9.00   23.30
   1  -3 -28  -33.10   29.30
   1  -3 -28   -6.10   24.60
   0  -3 -28    5.40   24.80
   0  -3 -28   57.99   27.10
   0  -3 -28   25.50   27.60
   0   3  28   27.00   31.10
  -1  -3 -28   -5.90   27.70
   2  -4 -28   10.40   33.80
   2  -4 -28  -38.50   27.50
   2  -4 -28   -8.60   31.70
   1  -4 -28  -22.50   24.80
   1  -4 -28   -5.60   30.60
   1  -4 -28   33.40   29.10
   0  -4 -28  -39.40   23.90
   0  -4 -28   16.70   27.60
   0   4  28   45.40   33.90
  -1  -4 -28  -27.20   26.80
  -1  -4 -28   57.39   31.50
   1  -5 -28  -18.50   31.90
   1  -5 -28  -21.10   28.20
   1  -5 -28  -39.90   27.80
   0  -5 -28   35.10   29.10
   0   5  28   16.00   36.00
   1   5 -29  -15.00   29.20
   0   5 -29   14.10   30.10
   2   4 -29    5.30   21.50
   2   4 -29   10.70   27.90
   1   4 -29  -32.50   25.70
   3   3 -29   29.70   38.50
   2   3 -29   48.70   40.00
   2   3 -29    7.30   21.90
   2   3 -29   10.90   28.10
   1   3 -29   10.90   21.70
   1   3 -29   21.60   32.50
   1   3 -29   -3.20   24.10
   1   3 -29    8.00   24.20
   0   3 -29   -6.60   23.00
   2  -3  29  -21.30   26.50
   3   2 -29   22.20   28.80
   3   2 -29   18.50   37.20
   2   2 -29   38.50   34.40
   2   2 -29   42.60   21.80
   2   2 -29   28.30   27.80
   1   2 -29  -44.80   19.60
   1   2 -29   31.40   24.30
   1   2 -29   34.80   37.40
   1   2 -29   -0.10   22.90
   0   2 -29  -10.10   23.00
   0   2 -29   47.60   34.30
   0   2 -29   14.20   23.00
   0  -2  29   12.40   30.30
  -1   2 -29   -4.90   23.70
  -1   2 -29  -25.50   32.80
   2  -2  29   26.90   26.60
   3   1 -29    1.40   37.50
   3   1 -29    2.60   30.70
   2   1 -29  -20.70   26.50
   2   1 -29    2.30   21.00
   2   1 -29   41.90   36.40
   1   1 -29   42.70   23.10
   1   1 -29  -14.10   22.90
   1   1 -29   42.40   35.70
   0   1 -29   33.80   34.30
   0   1 -29   -1.60   22.80
   0   1 -29  -15.30   23.90
   0  -1  29  -11.40   28.40
  -1   1 -29  -22.00   28.60
  -1   1 -29   40.00   32.60
  -1   1 -29   -8.30   23.90
  -1   1 -29   32.90   26.80
  -2   1 -29   20.80   27.20
   3   0 -29  -14.60   29.40
   3   0 -29   39.50   36.10
   3   0 -29    4.50   20.90
   2   0 -29  -31.40   24.30
   2   0 -29   15.20   35.30
   2   0 -29   18.70   23.60
   2   0 -29   13.10   22.70
   1   0 -29   28.10   35.70
   1   0 -29   11.00   22.20
   1   0 -29   20.70   23.20
   0   0 -29   57.49   26.50
   0   0 -29   28.80   34.80
   0   0 -29   -8.50   23.40
   0   0  29   26.70   30.30
  -1   0 -29   -5.40   26.10
  -1   0 -29   -8.90   24.70
  -1   0 -29   93.59   35.20
  -2   0 -29    4.20   28.20
  -2   0 -29  -18.30   25.40
   3  -1 -29  -20.50   24.60
   3  -1 -29   -9.70   27.10
   3  -1 -29   -3.00   36.40
   2  -1 -29   -6.80   33.20
   2  -1 -29   -0.70   23.00
   2  -1 -29  -47.20   20.90
   2  -1 -29   19.40   24.10
   1  -1 -29    3.40   22.00
   1  -1 -29    0.90   23.50
   1  -1 -29   12.30   35.70
   0  -1 -29   49.50   33.80
   0  -1 -29   31.50   24.70
   0  -1 -29    4.70   25.60
   0   1  29   38.10   29.40
  -1  -1 -29   28.30   28.80
  -1  -1 -29   20.60   27.50
  -2  -1 -29   62.19   32.40
  -2  -1 -29   17.20   30.50
   3  -2 -29   -9.80   37.90
   3  -2 -29   32.80   30.80
   3  -2 -29   64.99   28.40
   2  -2 -29   18.40   24.20
   2  -2 -29    3.10   26.40
   2  -2 -29  -20.10   23.20
   2  -2 -29   29.60   38.70
   1  -2 -29  -18.50   30.60
   1  -2 -29   -9.30   23.70
   1  -2 -29    9.50   24.90
   0  -2 -29  -27.50   25.00
   0  -2 -29   31.00   31.70
   0  -2 -29  -16.40   23.90
   0   2  29    8.70   29.20
  -1  -2 -29    0.20   26.00
  -1  -2 -29  -10.90   27.10
   2  -3 -29   66.79   30.50
   2  -3 -29  -15.10   29.70
   2  -3 -29    6.90   35.70
   1  -3 -29   31.80   27.40
   1  -3 -29   18.50   31.40
   1  -3 -29    8.20   25.10
   0  -3 -29   -1.30   24.70
   0  -3 -29  -42.80   22.80
   0  -3 -29   29.10   30.10
   0   3  29   36.80   31.70
  -1  -3 -29  -10.20   26.10
  -1  -3 -29   -7.30   28.10
   2  -4 -29  -16.70   33.30
   1  -4 -29   -3.70   26.50
   1  -4 -29   -0.20   29.30
   1  -4 -29  -62.79   28.40
   0  -4 -29  -27.10   25.10
   0  -4 -29   36.20   28.80
   0   4  29   30.60   37.30
   1   4 -30   21.10   28.10
   1   4 -30   50.39   39.00
   2   3 -30  -11.10   23.70
   2   3 -30   -8.00   30.40
   1   3 -30   36.40   28.80
   1   3 -30   48.50   34.60
   0   3 -30   -8.80   24.70
   0   3 -30   37.30   36.00
  -1   3 -30   -3.10   25.40
   3   2 -30  -34.50   36.40
   2   2 -30   10.50   21.10
   2   2 -30   56.99   29.30
   2   2 -30   55.99   40.50
   1   2 -30   53.29   28.30
   1   2 -30   63.39   36.80
   1   2 -30  -21.70   22.10
   0   2 -30   31.60   25.80
   0   2 -30   25.00   32.70
   0   2 -30    5.60   23.90
   0  -2  30   87.69   33.60
  -1   2 -30  -31.10   24.10
   3   1 -30    5.40   41.40
   2   1 -30  -36.60   20.30
   2   1 -30  -20.30   31.30
   2   1 -30   -7.50   26.90
   1   1 -30    4.70   24.00
   1   1 -30   20.40   23.40
   1   1 -30   38.40   35.50
   0   1 -30   17.30   26.00
   0   1 -30   29.80   35.90
   0   1 -30   55.29   28.60
   0  -1  30    2.80   29.10
  -1   1 -30  -11.50   26.40
  -1   1 -30    3.70   24.70
  -1   1 -30   36.00   32.90
   3   0 -30  -51.59   32.60
   2   0 -30   34.90   30.30
   2   0 -30    1.20   23.90
   2   0 -30   15.30   37.00
   2   0 -30   -8.70   23.30
   1   0 -30   13.20   24.90
   1   0 -30    5.40   23.00
   1   0 -30  -43.60   31.20
   0   0 -30   34.90   25.60
   0   0 -30    2.20   24.70
   0   0 -30   62.29   36.10
   0   0  30   54.59   32.00
  -1   0 -30   38.50   27.80
  -1   0 -30   67.49   37.00
  -1   0 -30   46.60   29.40
   3  -1 -30   24.00   40.40
   2  -1 -30  -40.00   31.10
   2  -1 -30  -16.70   23.80
   2  -1 -30  -16.10   23.20
   2  -1 -30    2.10   26.70
   1  -1 -30   21.00   25.80
   1  -1 -30   44.60   42.00
   1  -1 -30  -15.40   22.60
   0  -1 -30   28.00   32.70
   0  -1 -30    9.30   27.80
   0  -1 -30  -13.60   24.40
   0   1  30   31.50   30.00
  -1  -1 -30   55.49   32.80
  -1  -1 -30   16.30   26.70
  -1  -1 -30    9.60   27.50
   2  -2 -30   37.50   26.90
   2  -2 -30   25.00   25.20
   2  -2 -30    8.50   35.80
   1  -2 -30   -5.90   25.40
   1  -2 -30   -9.80   31.20
   1  -2 -30  -19.90   24.20
   0  -2 -30   -1.80   23.70
   0  -2 -30   -4.40   26.00
   0  -2 -30   14.60   32.50
   0   2  30   55.89   32.20
  -1  -2 -30  -37.70   25.50
  -1  -2 -30  -14.40   25.40
   2  -3 -30  -16.10   31.60
   2  -3 -30  -23.20   35.40
   1  -3 -30   -3.10   25.70
   1  -3 -30  -22.80   30.80
   1  -3 -30  -28.10   24.50
   0  -3 -30   32.60   28.50
   0  -3 -30   27.40   27.80
   0   3  30    9.90   35.30
   1   3 -31   19.90   25.80
   2   2 -31  -28.20   35.20
   2   2 -31    2.00   22.50
   1   2 -31    8.70   35.30
   1   2 -31   -6.20   25.70
   1   2 -31  -21.60   23.40
   0   2 -31   10.50   26.00
   2   1 -31  -25.60   22.80
   2   1 -31   -5.20   26.50
   2   1 -31   -4.60   37.60
   1   1 -31   14.60   24.30
   1   1 -31   99.39   43.60
   1   1 -31   10.80   25.70
   0   1 -31   30.00   37.90
   0   1 -31   -7.60   26.80
   0   1 -31   36.30   29.00
   0  -1  31   59.19   34.40
  -1   1 -31    1.40   28.60
  -1   1 -31   28.80   36.20
   2   0 -31   51.39   41.70
   2   0 -31   -0.30   23.70
   2   0 -31  -20.40   23.60
   2   0 -31   -7.10   29.40
   1   0 -31   31.30   23.70
   1   0 -31    4.90   25.40
   1   0 -31   72.79   38.30
   0   0 -31   23.60   27.20
   0   0 -31   66.09   29.40
   0   0 -31   78.39   37.10
   0   0  31    8.40   31.00
  -1   0 -31    4.20   29.50
  -1   0 -31   39.30   34.90
  -1   0 -31  -21.90   25.80
   2  -1 -31   38.50   27.90
   2  -1 -31   20.00   37.10
   2  -1 -31  -10.20   22.60
   1  -1 -31    1.40   23.00
   1  -1 -31   38.70   41.30
   1  -1 -31   -0.10   24.70
   0  -1 -31   51.39   36.90
   0  -1 -31    0.50   25.70
   0  -1 -31  -20.20   23.50
   0   1  31   62.29   32.50
   2  -2 -31   24.00   37.60
   1  -2 -31   -2.50   25.90
   1  -2 -31    0.00   34.70
   1  -2 -31   -4.90   25.40
   0  -2 -31   -1.40   27.40
   0  -2 -31   50.99   34.80
   0  -2 -31   35.40   27.70
   0   2  31    5.60   32.70
   1   2 -32   30.90   38.00
   1   1 -32  -13.90   22.80
   1   1 -32   47.20   40.80
   0   1 -32  -16.90   25.80
   0   1 -32   11.70   37.70
   0  -1  32    4.80   35.70
   1   0 -32  -16.40   23.90
   1   0 -32   29.70   39.90
   0   0 -32   59.79   39.50
   1  -1 -32   39.60   37.00
   0   1  32   13.40   32.70
;
_shelx_hkl_checksum              46079
loop_
_space_group_symop_operation_xyz
'x, y, z'
loop_
_atom_site_label
_atom_site_type_symbol
_atom_site_fract_x
_atom_site_fract_y
_atom_site_fract_z
_atom_site_U_iso_or_equiv
_atom_site_adp_type
_atom_site_occupancy
_atom_site_site_symmetry_order
_atom_site_calc_flag
_atom_site_refinement_flags_posn
_atom_site_refinement_flags_adp
_atom_site_refinement_flags_occupancy
_atom_site_disorder_assembly
_atom_site_disorder_group
S1 S 0.8109(8) 0.3952(7) 0.3704(2) 0.0525(17) Uani 1 1 d . . . . .
O2 O 1.729(2) 0.3363(14) 0.5515(5) 0.042(4) Uani 1 1 d . . . . .
O15 O 0.7829(18) 0.0544(13) 0.6065(4) 0.035(3) Uani 1 1 d . . . . .
O6 O 1.055(2) -0.3386(15) 0.5407(4) 0.047(3) Uani 1 1 d . U . . .
O4 O 1.509(2) 0.6756(16) 0.4406(4) 0.045(3) Uani 1 1 d . U . . .
N1 N 1.381(2) 0.2816(16) 0.4947(4) 0.024(3) Uani 1 1 d . U . . .
N3 N 1.608(2) 0.5007(18) 0.4946(5) 0.034(3) Uani 1 1 d . U . . .
H3 H 1.7287 0.5589 0.5087 0.040 Uiso 1 1 calc R U . . .
C36 C 1.026(3) -0.069(2) 0.7576(6) 0.035(5) Uani 1 1 d . . . . .
H36A H 0.8996 -0.0367 0.7320 0.042 Uiso 1 1 calc R U . . .
H36B H 0.9606 -0.1580 0.7708 0.042 Uiso 1 1 calc R U . . .
C21 C 0.350(3) 0.572(2) 0.8227(6) 0.033(4) Uani 1 1 d . . . . .
H21A H 0.2813 0.4830 0.8357 0.039 Uiso 1 1 calc R U . . .
H21B H 0.2268 0.6047 0.7966 0.039 Uiso 1 1 calc R U . . .
C44 C 0.307(3) 0.532(2) 1.0382(6) 0.041(5) Uani 1 1 d . . . . .
H44A H 0.1764 0.5598 1.0126 0.049 Uiso 1 1 calc R U . . .
H44B H 0.2451 0.4443 1.0531 0.049 Uiso 1 1 calc R U . . .
C27 C -0.198(3) 1.021(2) 1.0331(6) 0.044(5) Uani 1 1 d . . . . .
H27A H -0.3269 1.0476 1.0068 0.053 Uiso 1 1 calc R U . . .
H27B H -0.2612 0.9341 1.0483 0.053 Uiso 1 1 calc R U . . .
C32 C 1.395(3) -0.325(2) 0.6075(5) 0.031(5) Uani 1 1 d . . . . .
H32A H 1.5505 -0.3347 0.5919 0.038 Uiso 1 1 calc R U . . .
H32B H 1.3341 -0.4200 0.6162 0.038 Uiso 1 1 calc R U . . .
C37 C 1.071(3) 0.043(2) 0.8021(6) 0.030(4) Uani 1 1 d . . . . .
H37A H 1.1925 0.0094 0.8283 0.036 Uiso 1 1 calc R U . . .
H37B H 1.1423 0.1313 0.7893 0.036 Uiso 1 1 calc R U . . .
C2 C 1.588(3) 0.365(2) 0.5167(7) 0.038(5) Uani 1 1 d . . . . .
C38 C 0.843(3) 0.078(2) 0.8277(7) 0.036(5) Uani 1 1 d . . . . .
H38A H 0.7773 -0.0092 0.8425 0.043 Uiso 1 1 calc R U . . .
H38B H 0.7173 0.1056 0.8011 0.043 Uiso 1 1 calc R U . . .
C4' C 1.160(3) -0.079(2) 0.4720(5) 0.028(4) Uani 1 1 d . U . . .
H4' H 1.2445 -0.1689 0.4685 0.034 Uiso 1 1 calc R U . . .
C20 C 0.582(3) 0.540(2) 0.7970(7) 0.035(5) Uani 1 1 d . . . . .
H20A H 0.7069 0.5106 0.8234 0.042 Uiso 1 1 calc R U . . .
H20B H 0.6471 0.6283 0.7831 0.042 Uiso 1 1 calc R U . . .
C22 C 0.396(3) 0.685(2) 0.8678(6) 0.030(4) Uani 1 1 d . . . . .
H22A H 0.5192 0.6520 0.8938 0.036 Uiso 1 1 calc R U . . .
H22B H 0.4659 0.7736 0.8547 0.036 Uiso 1 1 calc R U . . .
C16 C 0.985(3) 0.248(2) 0.6630(6) 0.037(5) Uani 1 1 d . . . . .
H16A H 1.0560 0.3393 0.6524 0.044 Uiso 1 1 calc R U . . .
H16B H 1.1015 0.2135 0.6901 0.044 Uiso 1 1 calc R U . . .
C31 C 1.209(3) -0.268(2) 0.5680(6) 0.034(4) Uani 1 1 d . U . . .
C6 C 1.225(3) 0.327(2) 0.4549(7) 0.034(5) Uani 1 1 d . . . . .
H6 H 1.0918 0.2638 0.4416 0.041 Uiso 1 1 calc R U . . .
C18 C 0.779(3) 0.388(2) 0.7294(6) 0.037(4) Uani 1 1 d . U . . .
H18A H 0.8526 0.4756 0.7163 0.044 Uiso 1 1 calc R U . . .
H18B H 0.8975 0.3561 0.7567 0.044 Uiso 1 1 calc R U . . .
C40 C 0.660(3) 0.228(2) 0.8973(6) 0.036(5) Uani 1 1 d . . . . .
H40A H 0.5296 0.2553 0.8714 0.043 Uiso 1 1 calc R U . . .
H40B H 0.5989 0.1410 0.9125 0.043 Uiso 1 1 calc R U . . .
C15 C 0.959(4) 0.143(2) 0.6175(6) 0.039(5) Uani 1 1 d . . . . .
C39 C 0.886(3) 0.1963(19) 0.8702(6) 0.030(4) Uani 1 1 d . . . . .
H39A H 1.0159 0.1696 0.8961 0.036 Uiso 1 1 calc R U . . .
H39B H 0.9467 0.2839 0.8550 0.036 Uiso 1 1 calc R U . . .
C45 C 0.347(3) 0.648(3) 1.0808(7) 0.054(6) Uani 1 1 d . . . . .
H45A H 0.4793 0.6212 1.1062 0.065 Uiso 1 1 calc R U . . .
H45B H 0.4055 0.7363 1.0659 0.065 Uiso 1 1 calc R U . . .
C26 C 0.030(3) 0.986(2) 1.0060(7) 0.044(5) Uani 1 1 d . . . . .
H26A H 0.0961 1.0739 0.9920 0.053 Uiso 1 1 calc R U . . .
H26B H 0.1559 0.9560 1.0321 0.053 Uiso 1 1 calc R U . . .
C42 C 0.478(3) 0.381(2) 0.9680(6) 0.046(5) Uani 1 1 d . . . . .
H42A H 0.3463 0.4087 0.9428 0.055 Uiso 1 1 calc R U . . .
H42B H 0.4170 0.2936 0.9835 0.055 Uiso 1 1 calc R U . . .
C34 C 1.213(3) -0.208(2) 0.6844(6) 0.038(5) Uani 1 1 d . . . . .
H34A H 1.0843 -0.1746 0.6594 0.046 Uiso 1 1 calc R U . . .
H34B H 1.1510 -0.2994 0.6964 0.046 Uiso 1 1 calc R U . . .
C33 C 1.447(3) -0.230(2) 0.6572(6) 0.032(4) Uani 1 1 d . U . . .
H33A H 1.5196 -0.1365 0.6490 0.038 Uiso 1 1 calc R U . . .
H33B H 1.5678 -0.2739 0.6810 0.038 Uiso 1 1 calc R U . . .
C1' C 1.358(3) 0.135(2) 0.5121(6) 0.027(4) Uani 1 1 d . U . . .
H1' H 1.5007 0.1158 0.5367 0.032 Uiso 1 1 calc R U . . .
C23 C 0.167(3) 0.719(2) 0.8940(6) 0.037(5) Uani 1 1 d . . . . .
H23A H 0.0392 0.7464 0.8677 0.044 Uiso 1 1 calc R U . . .
H23B H 0.1038 0.6329 0.9094 0.044 Uiso 1 1 calc R U . . .
C19 C 0.539(3) 0.424(2) 0.7535(7) 0.031(4) Uani 1 1 d . . . . .
H19A H 0.4202 0.4557 0.7263 0.037 Uiso 1 1 calc R U . . .
H19B H 0.4665 0.3372 0.7671 0.037 Uiso 1 1 calc R U . . .
C17 C 0.740(2) 0.2741(19) 0.6858(6) 0.029(4) Uani 1 1 d . . . . .
H17A H 0.6198 0.3041 0.6586 0.035 Uiso 1 1 calc R U . . .
H17B H 0.6738 0.1848 0.6988 0.035 Uiso 1 1 calc R U . . .
C35 C 1.257(3) -0.100(2) 0.7299(6) 0.040(5) Uani 1 1 d . . . . .
H35A H 1.3262 -0.0105 0.7179 0.048 Uiso 1 1 calc R U . . .
H35B H 1.3813 -0.1358 0.7552 0.048 Uiso 1 1 calc R U . . .
C2' C 1.119(3) 0.1060(19) 0.5351(5) 0.024(4) Uani 1 1 d . U . . .
H2' H 0.9822 0.1529 0.5160 0.029 Uiso 1 1 calc R U . . .
C43 C 0.531(3) 0.498(2) 1.0102(6) 0.046(5) Uani 1 1 d . U . . .
H43A H 0.5922 0.5853 0.9948 0.055 Uiso 1 1 calc R U . . .
H43B H 0.6617 0.4700 1.0356 0.055 Uiso 1 1 calc R U . . .
C7 C 1.094(3) 0.495(2) 0.3900(7) 0.044(5) Uani 1 1 d . U . . .
C25 C -0.010(3) 0.873(2) 0.9631(6) 0.042(5) Uani 1 1 d . . . . .
H25A H -0.1384 0.9019 0.9373 0.050 Uiso 1 1 calc R U . . .
H25B H -0.0747 0.7843 0.9773 0.050 Uiso 1 1 calc R U . . .
C28 C -0.160(3) 1.139(2) 1.0748(6) 0.053(6) Uani 1 1 d . . . . .
H28A H -0.0231 1.1150 1.0998 0.063 Uiso 1 1 calc R U . . .
H28B H -0.1069 1.2269 1.0590 0.063 Uiso 1 1 calc R U . . .
C24 C 0.212(3) 0.839(2) 0.9359(6) 0.041(5) Uani 1 1 d . . . . .
H24A H 0.3430 0.8127 0.9618 0.049 Uiso 1 1 calc R U . . .
H24B H 0.2729 0.9258 0.9203 0.049 Uiso 1 1 calc R U . . .
C3' C 1.087(3) -0.064(2) 0.5258(6) 0.032(4) Uani 1 1 d . U . . .
H3' H 0.9126 -0.0993 0.5273 0.039 Uiso 1 1 calc R U . . .
C5 C 1.248(3) 0.456(2) 0.4330(6) 0.030(5) Uani 1 1 d . . . . .
C14 C 0.758(3) 0.487(2) 0.3146(7) 0.048(5) Uani 1 1 d . U . . .
C4 C 1.469(3) 0.551(2) 0.4555(7) 0.046(5) Uani 1 1 d . U . . .
C46 C 0.129(4) 0.679(3) 1.1089(8) 0.071(8) Uani 1 1 d . . . . .
H46A H -0.0011 0.7114 1.0848 0.106 Uiso 1 1 calc R U . . .
H46B H 0.1765 0.7539 1.1358 0.106 Uiso 1 1 calc R U . . .
H46C H 0.0696 0.5935 1.1245 0.106 Uiso 1 1 calc R U . . .
C13 C 0.549(4) 0.472(3) 0.2788(8) 0.063(7) Uani 1 1 d . . . . .
H13 H 0.4202 0.4032 0.2831 0.075 Uiso 1 1 calc R U . . .
C9 C 0.938(4) 0.604(3) 0.3126(8) 0.061(6) Uani 1 1 d . U . . .
C5' C 0.955(4) -0.080(2) 0.4289(7) 0.055(6) Uani 1 1 d . . . . .
H5'1 H 1.0239 -0.0885 0.3955 0.065 Uiso 1 1 calc R U . . .
H5'2 H 0.8395 -0.1628 0.4313 0.065 Uiso 1 1 calc R U . . .
C12 C 0.533(5) 0.559(4) 0.2366(9) 0.080(9) Uani 1 1 d . . . . .
H12 H 0.3961 0.5484 0.2115 0.095 Uiso 1 1 calc R U . . .
C41 C 0.705(3) 0.346(2) 0.9391(7) 0.045(6) Uani 1 1 d . . . . .
H41A H 0.7653 0.4331 0.9236 0.054 Uiso 1 1 calc R U . . .
H41B H 0.8375 0.3191 0.9645 0.054 Uiso 1 1 calc R U . . .
C8 C 1.128(3) 0.597(2) 0.3551(7) 0.051(6) Uani 1 1 d . . . . .
H8 H 1.2699 0.6599 0.3586 0.061 Uiso 1 1 calc R U . . .
C29 C -0.376(4) 1.169(3) 1.1040(9) 0.069(7) Uani 1 1 d . . . . .
H29A H -0.4199 1.0824 1.1220 0.082 Uiso 1 1 calc R U . . .
H29B H -0.5164 1.1840 1.0787 0.082 Uiso 1 1 calc R U . . .
C30 C -0.349(5) 1.293(3) 1.1432(8) 0.086(9) Uani 1 1 d . . . . .
H30A H -0.2053 1.2830 1.1677 0.129 Uiso 1 1 calc R U . . .
H30B H -0.4958 1.2947 1.1616 0.129 Uiso 1 1 calc R U . . .
H30C H -0.3279 1.3814 1.1257 0.129 Uiso 1 1 calc R U . . .
O2' O 1.1518(17) 0.1554(12) 0.5889(4) 0.032(3) Uani 1 1 d . . . . .
O4' O 1.3451(17) 0.0441(13) 0.4671(4) 0.033(3) Uani 1 1 d . . . . .
O3' O 1.2468(18) -0.1250(14) 0.5633(4) 0.031(3) Uani 1 1 d . U . . .
O5' O 0.8186(18) 0.0518(14) 0.4311(4) 0.040(3) Uani 1 1 d . . . . .
H5' H 0.7565 0.0585 0.4590 0.060 Uiso 1 1 calc R U . . .
C11 C 0.734(7) 0.666(3) 0.2325(9) 0.087(9) Uani 1 1 d . . . . .
H11 H 0.7330 0.7189 0.2025 0.105 Uiso 1 1 calc R U . . .
C10 C 0.922(5) 0.692(3) 0.2706(9) 0.068(7) Uani 1 1 d . . . . .
H10 H 1.0394 0.7690 0.2689 0.081 Uiso 1 1 calc R U . . .
C1S C 0.046(5) 0.093(6) 0.2470(16) 0.090(16) Uiso 0.42(3) 1 d DG U P A 1
H1S H -0.1098 0.1088 0.2299 0.109 Uiso 0.42(3) 1 calc R U P A 1
C2S C 0.240(7) 0.055(5) 0.2182(9) 0.066(14) Uiso 0.42(3) 1 d DG U P A 1
H2S H 0.2135 0.0444 0.1818 0.079 Uiso 0.42(3) 1 calc R U P A 1
C3S C 0.472(6) 0.031(5) 0.2437(14) 0.058(12) Uiso 0.42(3) 1 d DG U P A 1
H3S H 0.6018 0.0055 0.2244 0.070 Uiso 0.42(3) 1 calc R U P A 1
C4S C 0.511(5) 0.047(6) 0.2980(14) 0.071(13) Uiso 0.42(3) 1 d DG U P A 1
H4S H 0.6668 0.0311 0.3150 0.086 Uiso 0.42(3) 1 calc R U P A 1
C5S C 0.317(8) 0.085(6) 0.3268(9) 0.079(14) Uiso 0.42(3) 1 d DG U P A 1
H5S H 0.3434 0.0955 0.3631 0.095 Uiso 0.42(3) 1 calc R U P A 1
C6S C 0.085(7) 0.109(5) 0.3013(15) 0.067(14) Uiso 0.42(3) 1 d DG U P A 1
H6S H -0.0449 0.1344 0.3206 0.081 Uiso 0.42(3) 1 calc R U P A 1
C1S' C 0.089(5) 0.155(3) 0.2651(12) 0.067(10) Uiso 0.58(3) 1 d DG U P A 2
H1S' H -0.0429 0.2147 0.2596 0.081 Uiso 0.58(3) 1 calc R U P A 2
C2S' C 0.168(6) 0.076(3) 0.2232(8) 0.079(12) Uiso 0.58(3) 1 d DG U P A 2
H2S' H 0.0897 0.0829 0.1896 0.095 Uiso 0.58(3) 1 calc R U P A 2
C3S' C 0.365(7) -0.014(3) 0.2314(8) 0.075(11) Uiso 0.58(3) 1 d DG U P A 2
H3S' H 0.4181 -0.0664 0.2033 0.090 Uiso 0.58(3) 1 calc R U P A 2
C4S' C 0.482(4) -0.024(3) 0.2816(11) 0.065(10) Uiso 0.58(3) 1 d DG U P A 2
H4S' H 0.6140 -0.0840 0.2871 0.078 Uiso 0.58(3) 1 calc R U P A 2
C5S' C 0.403(6) 0.055(3) 0.3235(8) 0.059(9) Uiso 0.58(3) 1 d DG U P A 2
H5S' H 0.4814 0.0478 0.3571 0.070 Uiso 0.58(3) 1 calc R U P A 2
C6S' C 0.206(6) 0.144(3) 0.3153(9) 0.078(11) Uiso 0.58(3) 1 d DG U P A 2
H6S' H 0.1530 0.1972 0.3433 0.094 Uiso 0.58(3) 1 calc R U P A 2
loop_
_atom_site_aniso_label
_atom_site_aniso_U_11
_atom_site_aniso_U_22
_atom_site_aniso_U_33
_atom_site_aniso_U_23
_atom_site_aniso_U_13
_atom_site_aniso_U_12
S1 0.024(2) 0.063(5) 0.069(3) -0.005(3) -0.001(2) 0.004(3)
O2 0.030(6) 0.030(10) 0.062(8) -0.009(7) -0.004(6) -0.006(6)
O15 0.016(5) 0.023(9) 0.066(8) -0.002(6) 0.008(5) -0.002(6)
O6 0.046(4) 0.045(4) 0.049(4) 0.002(2) 0.002(2) 0.002(2)
O4 0.043(4) 0.045(4) 0.049(4) 0.003(2) 0.005(2) 0.005(2)
N1 0.023(3) 0.023(3) 0.024(3) 0.0010(12) 0.0025(12) 0.0012(12)
N3 0.034(4) 0.033(4) 0.034(4) 0.0017(12) 0.0032(12) 0.0018(12)
C36 0.019(8) 0.040(15) 0.047(10) -0.004(10) 0.002(7) 0.007(8)
C21 0.025(8) 0.022(13) 0.053(10) -0.003(9) 0.008(7) 0.010(8)
C44 0.035(9) 0.043(16) 0.044(10) -0.006(10) 0.002(8) 0.001(9)
C27 0.036(9) 0.066(17) 0.032(9) -0.005(10) 0.012(8) 0.007(10)
C32 0.041(10) 0.018(13) 0.034(9) -0.007(8) 0.001(8) 0.012(9)
C37 0.018(8) 0.028(14) 0.043(9) -0.009(9) 0.011(7) -0.004(8)
C2 0.026(9) 0.033(15) 0.052(11) -0.005(10) -0.004(9) 0.006(9)
C38 0.028(9) 0.018(14) 0.061(11) -0.003(9) 0.011(8) -0.005(8)
C4' 0.028(4) 0.028(4) 0.029(4) 0.0012(12) 0.0024(13) 0.0019(12)
C20 0.018(8) 0.024(14) 0.060(11) -0.007(9) 0.001(7) -0.011(8)
C22 0.036(9) 0.017(13) 0.039(9) -0.002(8) 0.007(7) 0.011(8)
C16 0.031(9) 0.038(15) 0.038(10) -0.002(9) 0.000(7) -0.015(9)
C31 0.034(4) 0.034(4) 0.035(4) 0.0013(12) 0.0033(13) 0.0023(12)
C6 0.026(9) 0.019(15) 0.056(11) -0.011(10) 0.006(8) -0.007(8)
C18 0.037(4) 0.037(4) 0.037(4) 0.0017(12) 0.0039(13) 0.0021(12)
C40 0.035(9) 0.026(14) 0.048(10) 0.002(9) 0.017(8) -0.002(9)
C15 0.066(14) 0.021(15) 0.028(9) 0.002(9) -0.002(9) 0.007(11)
C39 0.030(9) 0.010(12) 0.048(10) -0.001(8) 0.007(7) -0.006(8)
C45 0.031(10) 0.063(18) 0.067(13) -0.012(12) 0.003(9) 0.003(10)
C26 0.027(9) 0.050(17) 0.056(12) 0.011(11) 0.003(8) 0.002(9)
C42 0.047(11) 0.042(16) 0.052(11) 0.000(10) 0.011(9) 0.024(10)
C34 0.015(8) 0.041(15) 0.058(11) -0.005(10) 0.002(7) 0.010(8)
C33 0.032(4) 0.032(4) 0.032(4) 0.0015(12) 0.0030(13) 0.0020(12)
C1' 0.026(4) 0.027(4) 0.027(4) 0.0011(12) 0.0029(13) 0.0019(12)
C23 0.024(9) 0.049(15) 0.036(9) 0.006(9) 0.001(7) 0.002(9)
C19 0.012(7) 0.020(13) 0.062(11) 0.001(9) 0.007(7) 0.001(7)
C17 0.012(7) 0.022(13) 0.052(10) -0.012(9) 0.009(7) -0.003(7)
C35 0.008(7) 0.064(17) 0.047(10) -0.003(10) 0.003(7) -0.004(9)
C2' 0.024(4) 0.024(4) 0.025(4) 0.0011(12) 0.0026(12) 0.0014(12)
C43 0.046(5) 0.046(5) 0.046(5) 0.0023(12) 0.0045(13) 0.0030(13)
C7 0.044(5) 0.044(5) 0.044(5) 0.0021(12) 0.0043(13) 0.0029(13)
C25 0.038(10) 0.041(15) 0.049(11) -0.002(10) 0.010(8) 0.010(9)
C28 0.061(13) 0.068(19) 0.030(9) -0.010(10) 0.013(9) 0.010(12)
C24 0.021(8) 0.055(17) 0.044(10) -0.015(10) 0.008(7) -0.006(9)
C3' 0.032(4) 0.032(4) 0.032(4) 0.0017(12) 0.0028(13) 0.0016(12)
C5 0.021(8) 0.036(15) 0.034(9) -0.009(9) 0.008(7) 0.002(9)
C14 0.048(5) 0.048(5) 0.048(5) 0.0023(12) 0.0048(13) 0.0033(13)
C4 0.046(5) 0.046(5) 0.046(5) 0.0023(12) 0.0048(13) 0.0026(13)
C46 0.047(12) 0.07(2) 0.098(17) -0.024(14) 0.009(12) 0.017(12)
C13 0.044(12) 0.08(2) 0.064(14) -0.008(14) -0.005(11) 0.017(12)
C9 0.061(6) 0.061(6) 0.061(6) 0.0030(13) 0.0061(13) 0.0040(13)
C5' 0.054(12) 0.056(18) 0.053(11) -0.021(11) 0.010(10) 0.009(12)
C12 0.067(17) 0.12(3) 0.053(15) -0.017(17) 0.000(12) 0.051(19)
C41 0.028(9) 0.067(18) 0.037(9) -0.015(10) 0.002(7) -0.011(10)
C8 0.032(10) 0.072(19) 0.046(11) -0.016(11) -0.004(8) 0.013(11)
C29 0.080(16) 0.040(19) 0.089(16) -0.004(14) 0.025(13) 0.018(13)
C30 0.094(19) 0.09(2) 0.075(15) -0.015(16) 0.011(14) 0.013(17)
O2' 0.014(5) 0.024(9) 0.061(7) -0.001(6) 0.009(5) 0.004(5)
O4' 0.014(5) 0.022(9) 0.063(7) -0.008(6) 0.008(5) -0.006(5)
O3' 0.031(3) 0.031(3) 0.032(3) 0.0014(12) 0.0029(12) 0.0015(12)
O5' 0.028(6) 0.042(10) 0.049(7) 0.001(6) 0.000(5) 0.006(6)
C11 0.15(3) 0.05(2) 0.072(17) 0.008(15) 0.000(19) 0.05(2)
C10 0.107(19) 0.032(18) 0.068(14) 0.020(13) 0.019(14) 0.018(14)
loop_
_atom_type_symbol
_atom_type_description
_atom_type_scat_dispersion_real
_atom_type_scat_dispersion_imag
_atom_type_scat_source
C C 0.0033 0.0016 'International Tables Vol C Tables 4.2.6.8 and 6.1.1.4'
H H 0.0000 0.0000 'International Tables Vol C Tables 4.2.6.8 and 6.1.1.4'
N N 0.0061 0.0033 'International Tables Vol C Tables 4.2.6.8 and 6.1.1.4'
O O 0.0106 0.0060 'International Tables Vol C Tables 4.2.6.8 and 6.1.1.4'
S S 0.1246 0.1234 'International Tables Vol C Tables 4.2.6.8 and 6.1.1.4'
loop_
_geom_angle_atom_site_label_1
_geom_angle_atom_site_label_2
_geom_angle_atom_site_label_3
_geom_angle
C14 S1 C7 93.2(10)
C6 N1 C2 122.3(16)
C6 N1 C1' 121.8(13)
C2 N1 C1' 115.4(13)
C4 N3 C2 129.2(16)
C37 C36 C35 114.9(13)
C20 C21 C22 113.6(13)
C45 C44 C43 116.5(15)
C28 C27 C26 115.9(16)
C31 C32 C33 113.9(15)
C38 C37 C36 114.7(12)
O2 C2 N1 127(2)
O2 C2 N3 120.6(16)
N1 C2 N3 112.0(15)
C37 C38 C39 114.4(13)
C3' C4' C5' 116.2(14)
C3' C4' O4' 105.9(12)
C5' C4' O4' 109.8(14)
C21 C20 C19 113.9(12)
C23 C22 C21 114.7(13)
C15 C16 C17 113.8(13)
O6 C31 O3' 122.0(16)
O6 C31 C32 125.4(19)
O3' C31 C32 112.3(14)
C5 C6 N1 125.8(15)
C17 C18 C19 114.0(13)
C41 C40 C39 114.0(14)
O15 C15 O2' 122.9(15)
O15 C15 C16 125.2(17)
O2' C15 C16 111.9(16)
C40 C39 C38 114.7(13)
C46 C45 C44 116.5(16)
C25 C26 C27 116.0(15)
C43 C42 C41 114.1(15)
C35 C34 C33 112.7(12)
C32 C33 C34 112.5(13)
O4' C1' N1 106.2(12)
O4' C1' C2' 105.8(12)
N1 C1' C2' 111.6(13)
C24 C23 C22 114.0(13)
C20 C19 C18 113.3(12)
C18 C17 C16 110.8(12)
C34 C35 C36 115.2(12)
O2' C2' C1' 108.5(11)
O2' C2' C3' 114.4(12)
C1' C2' C3' 100.0(13)
C42 C43 C44 113.8(15)
C8 C7 C5 131.1(18)
C8 C7 S1 108.4(14)
C5 C7 S1 120.4(17)
C26 C25 C24 116.3(15)
C29 C28 C27 116.8(17)
C25 C24 C23 114.8(14)
O3' C3' C4' 114.2(13)
O3' C3' C2' 108.1(12)
C4' C3' C2' 99.9(13)
C6 C5 C7 124.0(16)
C6 C5 C4 114.4(15)
C7 C5 C4 121.3(19)
C13 C14 C9 120(2)
C13 C14 S1 126.9(17)
C9 C14 S1 111.8(14)
O4 C4 N3 122.0(17)
O4 C4 C5 121.6(17)
N3 C4 C5 116.2(19)
C14 C13 C12 119(2)
C10 C9 C14 120(2)
C10 C9 C8 131(2)
C14 C9 C8 108.6(19)
O5' C5' C4' 111.9(14)
C13 C12 C11 118(2)
C40 C41 C42 115.4(14)
C7 C8 C9 118(2)
C28 C29 C30 118(2)
C15 O2' C2' 119.1(11)
C1' O4' C4' 108.7(11)
C31 O3' C3' 116.1(12)
C10 C11 C12 122(2)
C11 C10 C9 119(3)
C2S C1S C6S 120.0
C3S C2S C1S 120.0
C4S C3S C2S 120.0
C3S C4S C5S 120.0
C4S C5S C6S 120.0
C5S C6S C1S 120.0
C2S' C1S' C6S' 120.0
C1S' C2S' C3S' 120.0
C2S' C3S' C4S' 120.0
C5S' C4S' C3S' 120.0
C4S' C5S' C6S' 120.0
C5S' C6S' C1S' 120.0
loop_
_geom_bond_atom_site_label_1
_geom_bond_atom_site_label_2
_geom_bond_distance
S1 C14 1.708(19)
S1 C7 1.752(19)
O2 C2 1.165(18)
O15 C15 1.22(2)
O6 C31 1.178(18)
O4 C4 1.25(2)
N1 C6 1.36(2)
N1 C2 1.38(2)
N1 C1' 1.45(2)
N3 C4 1.31(2)
N3 C2 1.41(2)
C36 C37 1.50(2)
C36 C35 1.52(2)
C21 C20 1.50(2)
C21 C22 1.52(2)
C44 C45 1.49(2)
C44 C43 1.50(2)
C27 C28 1.48(2)
C27 C26 1.51(2)
C32 C31 1.49(2)
C32 C33 1.51(2)
C37 C38 1.49(2)
C38 C39 1.51(2)
C4' C3' 1.476(19)
C4' C5' 1.49(2)
C4' O4' 1.487(18)
C20 C19 1.51(2)
C22 C23 1.50(2)
C16 C15 1.48(2)
C16 C17 1.52(2)
C31 O3' 1.34(2)
C6 C5 1.35(2)
C18 C17 1.50(2)
C18 C19 1.53(2)
C40 C41 1.49(2)
C40 C39 1.50(2)
C15 O2' 1.33(2)
C45 C46 1.47(2)
C26 C25 1.48(2)
C42 C43 1.50(2)
C42 C41 1.53(2)
C34 C35 1.49(2)
C34 C33 1.52(2)
C1' O4' 1.394(17)
C1' C2' 1.482(19)
C23 C24 1.50(2)
C2' O2' 1.428(16)
C2' C3' 1.58(2)
C7 C8 1.35(3)
C7 C5 1.39(2)
C25 C24 1.49(2)
C28 C29 1.48(3)
C3' O3' 1.395(18)
C5 C4 1.50(2)
C14 C13 1.38(2)
C14 C9 1.42(3)
C13 C12 1.38(3)
C9 C10 1.38(3)
C9 C8 1.43(2)
C5' O5' 1.46(2)
C12 C11 1.44(4)
C29 C30 1.49(3)
C11 C10 1.34(3)
C1S C2S 1.3900
C1S C6S 1.3900
C2S C3S 1.3900
C3S C4S 1.3900
C4S C5S 1.3900
C5S C6S 1.3900
C1S' C2S' 1.3900
C1S' C6S' 1.3900
C2S' C3S' 1.3900
C3S' C4S' 1.3900
C4S' C5S' 1.3900
C5S' C6S' 1.3900
