#------------------------------------------------------------------------------
#$Date: 2016-03-04 14:06:47 +0200 (Fri, 04 Mar 2016) $
#$Revision: 177537 $
#$URL: svn://www.crystallography.net/cod/cif/1/54/24/1542488.cif $
#------------------------------------------------------------------------------
#
# This file is available in the Crystallography Open Database (COD),
# http://www.crystallography.net/
#
# All data on this site have been placed in the public domain by the
# contributors.
#
data_1542488
loop_
_publ_author_name
'Kuwamura, Naoto'
'Laskar, Payel'
'Konno, Takumi'
_publ_section_title
;
 (Acetato-\k<i>O</i>){2-[(2-aminoethyl-\k<i>N</i>)disulfanyl]ethanaminium}dichloridozinc(II)
;
_journal_coeditor_code           GW2155
_journal_issue                   1
_journal_name_full               IUCrData
_journal_page_first              x160105
_journal_paper_doi               10.1107/S241431461600105X
_journal_volume                  1
_journal_year                    2016
_chemical_formula_iupac          '[Zn (C4 H13 N2 S2) (C2 H3 O2) Cl2]'
_chemical_formula_moiety         'C6 H16 Cl2 N2 O2 S2 Zn'
_chemical_formula_sum            'C6 H16 Cl2 N2 O2 S2 Zn'
_chemical_formula_weight         348.60
_chemical_name_systematic
(Acetato-\k<i>O</i>){2-[(2-aminoethyl-\k<i>N</i>)disulfanyl]ethan-1-aminium}dichloridozinc(II)
_space_group_crystal_system      triclinic
_space_group_IT_number           2
_space_group_name_Hall           '-P 1'
_space_group_name_H-M_alt        'P -1'
_symmetry_space_group_name_Hall  '-P 1'
_symmetry_space_group_name_H-M   'P -1'
_atom_sites_solution_hydrogens   geom
_audit_creation_method           SHELXL-2014/7
_cell_angle_alpha                68.331(14)
_cell_angle_beta                 81.936(15)
_cell_angle_gamma                71.917(12)
_cell_formula_units_Z            2
_cell_length_a                   6.907(4)
_cell_length_b                   10.320(7)
_cell_length_c                   10.707(7)
_cell_measurement_reflns_used    1503
_cell_measurement_temperature    200(2)
_cell_measurement_theta_max      27.66
_cell_measurement_theta_min      3.11
_cell_volume                     673.9(7)
_computing_cell_refinement
;
PROCESS-AUTO (Rigaku, 2000)
;
_computing_data_collection
;
PROCESS-AUTO (Rigaku, 2000)
;
_computing_data_reduction
;
PROCESS-AUTO (Rigaku, 2000)
;
_computing_molecular_graphics
;
<i>Yadokari-XG</i> (Kabuto <i>et al.</i>,  2009)
;
_computing_publication_material
;
<i>Yadokari-XG</i> (Kabuto <i>et al.</i>,  2009)
;
_computing_structure_refinement
;
SHELXL2014 (Sheldrick, 2015)
;
_computing_structure_solution
;
SHELXS2014 (Sheldrick, 2008)
;
_diffrn_ambient_temperature      200(2)
_diffrn_detector_area_resol_mean 10.00
_diffrn_measured_fraction_theta_full 0.993
_diffrn_measured_fraction_theta_max 0.983
_diffrn_measurement_device_type  'Rigaku R-AXIS 7'
_diffrn_measurement_method       /w
_diffrn_radiation_type           MoK\a
_diffrn_radiation_wavelength     0.71075
_diffrn_reflns_av_R_equivalents  0.0385
_diffrn_reflns_limit_h_max       8
_diffrn_reflns_limit_h_min       -8
_diffrn_reflns_limit_k_max       13
_diffrn_reflns_limit_k_min       -13
_diffrn_reflns_limit_l_max       13
_diffrn_reflns_limit_l_min       -13
_diffrn_reflns_number            5387
_diffrn_reflns_theta_full        25.242
_diffrn_reflns_theta_max         27.483
_diffrn_reflns_theta_min         3.104
_exptl_absorpt_coefficient_mu    2.511
_exptl_absorpt_correction_T_max  0.806
_exptl_absorpt_correction_T_min  0.466
_exptl_absorpt_correction_type   multi-scan
_exptl_absorpt_process_details
;
(ABSCOR; Higashi, 1995)
;
_exptl_crystal_colour            colorless
_exptl_crystal_density_diffrn    1.718
_exptl_crystal_description       block
_exptl_crystal_F_000             356
_exptl_crystal_size_max          0.200
_exptl_crystal_size_mid          0.100
_exptl_crystal_size_min          0.100
_refine_diff_density_max         1.197
_refine_diff_density_min         -0.518
_refine_ls_extinction_method     none
_refine_ls_goodness_of_fit_ref   1.104
_refine_ls_hydrogen_treatment    constr
_refine_ls_matrix_type           full
_refine_ls_number_parameters     138
_refine_ls_number_reflns         3039
_refine_ls_number_restraints     0
_refine_ls_restrained_S_all      1.104
_refine_ls_R_factor_all          0.0639
_refine_ls_R_factor_gt           0.0486
_refine_ls_shift/su_max          0.001
_refine_ls_shift/su_mean         0.000
_refine_ls_structure_factor_coef Fsqd
_refine_ls_weighting_details
'w=1/[\s^2^(Fo^2^)+(0.0573P)^2^+0.1490P] where P=(Fo^2^+2Fc^2^)/3'
_refine_ls_weighting_scheme      calc
_refine_ls_wR_factor_gt          0.1174
_refine_ls_wR_factor_ref         0.1272
_reflns_number_gt                2471
_reflns_number_total             3039
_reflns_threshold_expression     'I > 2\s(I)'
_cod_data_source_file            gw2155sup1.cif
_cod_data_source_block           I
_cod_depositor_comments          'Adding full bibliography for 1542488.cif.'
_cod_original_cell_volume        674.0(8)
_cod_database_code               1542488
_cod_database_fobs_code          1542488
_shelx_space_group_comment
;
The symmetry employed for this shelxl refinement is uniquely defined
by the following loop, which should always be used as a source of
symmetry information in preference to the above space-group names.
They are only intended as comments.
;
_shelx_hkl_file
;
   0   0   2 9314.07  770.57
   0   0   2 9278.76  784.36
   0   0  -2 8978.53  757.87
   0   0  -2 9055.18  742.75
   0   0   3  793.25   23.25
   0   0   3  982.84   24.15
   0   0  -3  854.67   24.87
   0   0  -3  831.83   21.56
   0   0   4   59.21    3.65
   0   0   4   54.36    4.20
   0   0  -4   60.87    2.35
   0   0  -4   56.46    4.47
   0   0   5  373.29   11.85
   0   0  -5  448.78   11.38
   0   0   6   82.14    5.37
   0   0  -6   84.75    6.13
   0   0   7   54.73    5.50
   0   0  -7   60.89    6.78
   0   0   8  341.74   23.82
   0   0  -8  257.51   17.82
   0   0   9   86.30   12.81
   0   0  -9   71.23    7.01
   0   0  10   32.63   11.88
   0   0 -10   33.64    6.62
   0   0  11  162.31   23.68
   0   0 -11   89.80   19.03
   0   0  12   76.88   22.40
   0   0 -12   58.35   18.01
   0   1 -12  268.07   46.25
   0  -1  12  410.56   35.15
   0   1 -11  205.53   31.66
   0  -1  11  314.82   35.95
   0   1 -10  564.08   36.86
   0  -1  10  862.96   64.10
   0   1  -9  597.67   43.40
   0  -1   9  735.82   53.23
   0   1  -8  133.94   11.72
   0  -1   8  124.65   10.21
   0   1  -7 1839.70   88.88
   0  -1   7 1969.26  116.29
   0   1  -6   20.58    4.22
   0  -1   6   17.04    5.33
   0   1  -5  118.50    4.13
   0  -1   5  135.09    5.36
   0   1  -4  473.15   10.56
   0   1  -4  526.68   18.22
   0  -1   4  424.84   15.74
   0   1  -3 1722.87   61.17
   0   1  -3 1916.18   62.28
   0  -1   3 1838.63   61.18
   0  -1   3 1782.11   62.91
   0   1  -2   16.54    1.23
   0   1  -2   15.04    2.13
   0  -1   2   14.04    1.20
   0  -1   2   20.06    1.21
   0   1  -1  424.62    8.05
   0   1  -1  452.31    6.22
   0  -1   1  447.08    8.12
   0  -1   1  440.18    6.02
   0   1   2   15.80    0.91
   0   1   2   14.15    1.57
   0  -1  -2   18.63    1.47
   0   1   3 2532.45  104.51
   0   1   3 2822.91  110.79
   0  -1  -3 2634.14  105.08
   0  -1  -3 2755.30  117.48
   0   1   4  330.26   12.17
   0   1   4  403.93   11.57
   0  -1  -4  385.51   11.24
   0  -1  -4  396.97   12.72
   0   1   5 1895.98   88.46
   0  -1  -5 2003.00   77.83
   0   1   6 2494.84  130.40
   0  -1  -6 2150.69  103.11
   0   1   7  391.92   15.51
   0  -1  -7  376.42   14.44
   0   1   8  187.79   16.02
   0  -1  -8  174.45    9.48
   0   1   9  927.15   55.27
   0  -1  -9  631.81   33.94
   0   1  10  192.73   21.02
   0  -1 -10  140.98   10.97
   0   1  11  143.66   15.23
   0  -1 -11  111.38   12.06
   0   1  12  231.35   21.72
   0  -1 -12  180.86   19.16
   0   1  13   22.53   16.76
   0  -1 -13   14.63    9.24
   0   2 -12   12.22   13.34
   0  -2  12   10.87   15.45
   0   2 -11   12.88    7.21
   0  -2  11   17.53   13.95
   0   2 -10   16.51   10.32
   0  -2  10   20.68   12.92
   0   2  -9  347.97   29.79
   0  -2   9  416.11   36.50
   0   2  -8   70.52   10.02
   0  -2   8   65.73   12.23
   0   2  -7 3631.09  264.98
   0  -2   7 3745.46  252.84
   0   2  -6   40.75    5.44
   0  -2   6   39.45    4.73
   0   2  -5 2459.08  122.38
   0  -2   5 2579.73  140.68
   0   2  -4  475.03   14.70
   0  -2   4  522.40   15.53
   0  -2   4  484.06   14.84
   0   2  -3 1366.39   53.32
   0   2  -3 1414.37   43.48
   0  -2   3 1475.23   54.38
   0  -2   3 1438.72   44.73
   0   2  -2 3199.46  142.67
   0   2  -2 3500.80  173.27
   0  -2   2 3543.43  152.37
   0   2  -1 6366.47  436.02
   0  -2   1 6843.00  435.35
   0  -2   1 6639.64  420.52
   0   2   0 1989.41   62.70
   0   2   0 1951.21   53.49
   0  -2   0 1899.35   51.97
   0  -2   0 1939.97   61.31
   0   2   1  143.63    2.43
   0   2   1  155.85    2.62
   0  -2  -1  157.80    2.62
   0  -2  -1  144.92    2.44
   0   2   2 7335.64  558.01
   0   2   2 7969.86  589.52
   0  -2  -2 7523.49  581.50
   0  -2  -2 7564.95  558.72
   0   2   3 6091.77  408.86
   0   2   3 6000.02  408.00
   0  -2  -3 5976.15  396.43
   0  -2  -3 5862.07  405.52
   0   2   4  196.52    5.69
   0   2   4  204.54    5.72
   0  -2  -4  206.89    5.81
   0  -2  -4  211.01    5.30
   0   2   5 1395.86   51.72
   0  -2  -5 1389.82   53.79
   0   2   6  777.39   28.62
   0  -2  -6  851.32   29.12
   0   2   7   29.16    4.77
   0  -2  -7   33.12    5.57
   0   2   8  464.93   22.20
   0  -2  -8  430.41   27.11
   0   2   9  188.39   18.66
   0  -2  -9  150.90   15.60
   0   2  10  417.03   25.15
   0  -2 -10  359.62   32.29
   0   2  11  140.66   20.97
   0  -2 -11  107.17   17.74
   0   2  12  -16.19   12.62
   0  -2 -12    7.83   10.30
   0   2  13   31.28   12.55
   0  -2 -13   20.15   15.14
   0  -3  11   15.70   10.10
   0   3 -10   62.72   14.58
   0  -3  10   79.84   18.97
   0   3  -9  138.29   17.54
   0  -3   9  162.65   22.29
   0   3  -8   59.05    6.57
   0  -3   8   68.80    8.64
   0   3  -7  293.27   13.48
   0  -3   7  361.31   17.73
   0   3  -6  110.64    5.46
   0  -3   6   95.53   11.72
   0   3  -5   54.22    4.76
   0  -3   5   61.93    5.05
   0   3  -4  437.97   14.56
   0  -3   4  507.58   16.21
   0   3  -3   14.42    3.22
   0  -3   3   17.12    2.16
   0  -3   3   24.77    2.26
   0   3  -2  571.62   19.50
   0   3  -2  540.75   13.15
   0  -3   2  591.24   12.42
   0  -3   2  549.83   13.40
   0   3  -1 9766.23  832.90
   0   3  -1 9550.29  865.93
   0  -3   1 9314.55  792.29
   0  -3   1 9247.46  861.75
   0   3   0 1944.40   58.88
   0   3   0 1985.76   70.52
   0  -3   0 1895.56   56.87
   0  -3   0 1935.16   70.73
   0   3   1 5734.26  369.56
   0   3   1 5905.88  356.63
   0  -3  -1 5428.58  330.43
   0  -3  -1 5915.80  388.39
   0   3   2 3328.13  144.90
   0   3   2 3039.36  140.95
   0  -3  -2 3149.08  138.38
   0  -3  -2 3013.71  140.25
   0   3   3 1370.20   52.71
   0   3   3 1520.03   51.29
   0  -3  -3 1503.68   55.76
   0  -3  -3 1459.60   48.93
   0   3   4 1289.94   55.01
   0  -3  -4 1363.64   44.85
   0   3   5 4714.54  333.04
   0  -3  -5 4579.12  296.64
   0   3   6  108.43    9.54
   0  -3  -6  129.66    8.71
   0   3   7 2114.07  129.20
   0  -3  -7 2185.77  127.28
   0   3   8   15.32    6.91
   0  -3  -8    5.68    3.66
   0   3   9  480.07   35.69
   0  -3  -9  431.54   22.59
   0   3  10   16.20    6.84
   0  -3 -10   10.68    5.58
   0   3  11  449.63   45.31
   0  -3 -11  418.90   28.43
   0   3  12   -2.26    8.04
   0  -3 -12    5.30   10.21
   0   3  13  282.61   45.97
   0  -3 -13  216.33   34.07
   0   4 -10   86.58   16.48
   0   4  -9   18.59    5.88
   0  -4   9   12.37    4.99
   0   4  -8  293.80   15.70
   0   4  -7  509.02   20.22
   0  -4   7  396.60   18.24
   0   4  -6    6.42    4.99
   0  -4   6    1.24    4.03
   0   4  -5 3409.29  202.75
   0  -4   5 3468.77  203.74
   0   4  -4 2577.23  123.86
   0  -4   4 2404.29  114.85
   0  -4   4 2425.14  118.04
   0   4  -3 1773.70   80.05
   0  -4   3 1897.33   70.61
   0  -4   3 1756.51   66.20
   0   4  -2 1436.68   61.30
   0  -4   2 1597.93   49.28
   0  -4   2 1604.73   51.28
   0   4  -1 2062.92   82.14
   0   4  -1 2213.75   76.81
   0  -4   1 2014.93   71.09
   0   4   0  894.77   25.91
   0  -4   0  913.78   21.10
   0   4   1 1300.14   37.34
   0   4   1 1216.42   43.84
   0  -4  -1 1217.88   40.41
   0  -4  -1 1238.00   34.61
   0   4   2 1185.19   31.67
   0   4   2 1145.95   43.38
   0  -4  -2 1192.64   35.01
   0   4   3  519.40   15.18
   0   4   3  467.91   13.93
   0  -4  -3  474.72   13.50
   0   4   4 2321.63  121.45
   0  -4  -4 2337.75  110.42
   0   4   5  379.74   20.72
   0  -4  -5  399.92   16.93
   0   4   6  165.43   13.08
   0  -4  -6  182.00    7.52
   0   4   7  116.26   12.59
   0  -4  -7  128.00   10.80
   0   4   8   33.77    6.14
   0  -4  -8   38.96    8.11
   0   4   9   18.66    5.95
   0  -4  -9   14.73    4.88
   0   4  10   43.41   14.40
   0  -4 -10   48.79    7.65
   0   4  11  356.83   42.68
   0  -4 -11  353.91   24.98
   0   4  12   14.05   10.02
   0  -4 -12   21.05    8.14
   0   4  13  199.87   36.01
   0  -4 -13  158.50   19.86
   0   5 -10   21.48   12.87
   0   5  -9   30.31   13.22
   0   5  -8  284.00   28.56
   0   5  -7   37.70    9.58
   0  -5   7   27.54    6.73
   0   5  -6  699.48   29.38
   0  -5   6  498.97   28.40
   0   5  -5   10.13    5.82
   0  -5   5    9.28    3.66
   0   5  -4    9.52    5.04
   0  -5   4    8.34    2.79
   0  -5   4    6.67    3.44
   0   5  -3   21.50    4.86
   0  -5   3   16.90    2.92
   0  -5   3   20.31    2.67
   0   5  -2  226.27   11.96
   0  -5   2  238.99    6.85
   0  -5   2  240.53    7.07
   0   5  -1    7.89    3.61
   0   5  -1    4.85    1.89
   0  -5   1    8.08    2.27
   0   5   0  582.41   17.46
   0   5   0  613.31   16.25
   0  -5   0  550.58   13.45
   0   5   1  571.39   15.39
   0   5   1  563.85   21.50
   0  -5  -1  542.46   14.11
   0   5   2 2882.38  159.94
   0   5   2 2872.52  131.95
   0  -5  -2 2757.64  123.72
   0   5   3   41.06    5.59
   0  -5  -3   34.91    3.40
   0   5   4 8114.93  806.90
   0  -5  -4 7755.92  722.24
   0   5   5  171.65   12.51
   0  -5  -5  178.23   10.17
   0   5   6 1006.40   47.21
   0  -5  -6 1010.31   41.76
   0   5   7  255.38   20.60
   0  -5  -7  253.82   16.66
   0   5   8   30.75    8.98
   0  -5  -8    8.31    6.57
   0   5   9  170.16   21.87
   0  -5  -9  183.35   12.37
   0   5  10   10.63    9.92
   0  -5 -10   -5.23    4.97
   0   5  11   38.67   16.06
   0  -5 -11   35.43    8.46
   0   5  12   55.05   13.38
   0  -5 -12   62.36   10.83
   0   5  13  106.39   28.43
   0  -5 -13   66.14   21.99
   0   6  -9  177.09   27.01
   0   6  -8  531.57   48.98
   0   6  -7  588.45   48.72
   0   6  -6  461.63   25.08
   0   6  -5 1017.89   50.91
   0  -6   5  614.16   33.74
   0   6  -4   15.85    6.06
   0  -6   4    6.37    3.40
   0   6  -3 1291.26   65.61
   0  -6   3 1260.09   43.25
   0  -6   3 1058.15   46.54
   0   6  -2   42.33    4.46
   0  -6   2   49.75    4.80
   0  -6   2   43.98    4.53
   0   6  -1   27.91    5.51
   0   6  -1   22.54    2.69
   0  -6   1   19.79    2.61
   0   6   0  601.61   28.31
   0   6   0  595.96   20.48
   0  -6   0  588.09   18.31
   0   6   1   49.49    4.36
   0   6   1   53.82    4.01
   0  -6  -1   54.74    3.38
   0   6   2   13.64    5.05
   0  -6  -2   14.47    2.76
   0   6   3  636.66   24.68
   0  -6  -3  612.17   22.34
   0   6   4 1601.04   92.88
   0  -6  -4 1649.78   76.72
   0   6   5  401.65   17.81
   0  -6  -5  396.32   14.16
   0   6   6 1360.29   94.88
   0  -6  -6 1575.79   83.59
   0   6   7   70.64   11.82
   0  -6  -7   64.09    5.48
   0   6   8  251.36   25.45
   0  -6  -8  215.47   12.99
   0   6   9  238.44   27.95
   0  -6  -9  239.29   14.31
   0   6  10   34.33   13.75
   0  -6 -10   21.75   11.26
   0   6  11    8.29   14.21
   0  -6 -11   14.54   10.46
   0   6  12    4.69   10.17
   0  -6 -12   12.78   12.30
   0   6  13   -5.69   17.56
   0  -6 -13   -6.10   13.55
   0   7  -8   13.46   11.95
   0   7  -7   67.53   16.35
   0   7  -6  125.45   12.53
   0   7  -5  143.82   17.57
   0   7  -4  294.82   23.83
   0   7  -3 1552.41   72.16
   0  -7   3 1124.21   62.72
   0   7  -2    9.92    5.97
   0  -7   2    2.85    3.03
   0   7  -1  486.39   26.64
   0  -7   1  408.03   15.26
   0   7   0  327.07   19.21
   0   7   0  279.06   12.35
   0  -7   0  283.97   11.53
   0   7   1   36.28    6.69
   0  -7  -1   26.60    3.59
   0   7   2  762.42   43.50
   0  -7  -2  779.44   32.59
   0   7   3   27.10    7.36
   0  -7  -3   33.76    4.48
   0   7   4  194.57   16.45
   0  -7  -4  181.91   10.90
   0   7   5   28.33    5.40
   0  -7  -5   21.60    5.56
   0   7   6  320.21   20.39
   0  -7  -6  393.66   16.51
   0   7   7  262.94   18.49
   0  -7  -7  290.59   21.20
   0   7   8  296.40   22.30
   0  -7  -8  320.45   24.39
   0   7   9  346.32   26.34
   0  -7  -9  297.63   26.51
   0  -7 -10  451.06   29.36
   0   7  11  112.71   27.79
   0  -7 -11  114.05   12.77
   0   7  12  151.45   32.20
   0  -7 -12  116.42   16.35
   0   7  13   32.94   14.51
   0  -7 -13   21.83   10.59
   0   8  -7    4.94   11.03
   0   8  -6   19.04   12.36
   0   8  -5  151.36   14.29
   0   8  -4   75.75   14.51
   0   8  -3  403.91   33.77
   0   8  -2   26.63    8.95
   0   8  -1  620.46   31.41
   0  -8   1  562.40   29.12
   0   8   0   -2.10    6.61
   0  -8   0    3.38    3.70
   0   8   1  483.33   23.89
   0  -8  -1  471.26   22.57
   0   8   2  199.95   17.98
   0  -8  -2  194.46   11.44
   0   8   3 1089.01   72.48
   0  -8  -3 1088.42   47.98
   0   8   4   87.25   13.18
   0  -8  -4   83.34    8.52
   0   8   5  193.72   14.73
   0  -8  -5  229.96   15.06
   0   8   6  143.03   12.70
   0  -8  -6  150.29    9.39
   0   8   7   16.21    7.09
   0  -8  -7   18.54    5.08
   0   8   8  197.66   18.20
   0  -8  -8  186.95   18.78
   0   8   9  299.53   28.54
   0  -8  -9  365.85   31.96
   0   8  10    7.55   14.86
   0  -8 -10   19.48   10.02
   0   8  11  189.34   40.00
   0  -8 -11  229.72   30.20
   0   8  12   21.56   12.24
   0  -8 -12    5.46   13.19
   0   8  13   18.99   20.40
   0  -8 -13    5.82   14.96
   0   9  -4   56.52   15.85
   0   9  -3  169.16   15.49
   0   9  -2   91.78   10.56
   0   9  -1  439.67   27.11
   0   9   0  643.31   39.32
   0   9   1  103.05   14.97
   0  -9  -1   96.46   10.32
   0   9   2  301.78   20.00
   0  -9  -2  302.56   20.08
   0   9   3  106.22   16.08
   0  -9  -3  108.78   11.16
   0   9   4  182.10   15.39
   0  -9  -4  188.91   10.68
   0   9   5  257.96   20.47
   0  -9  -5  281.85   14.92
   0   9   6  102.84   19.21
   0  -9  -6  105.26    8.92
   0   9   7  352.41   40.27
   0  -9  -7  367.74   31.32
   0   9   8  265.52   25.59
   0  -9  -8  307.51   27.22
   0   9   9   -0.87    8.57
   0  -9  -9   14.96    9.57
   0   9  10   98.95   28.52
   0  -9 -10  100.88   17.79
   0   9  11   81.65   27.13
   0  -9 -11   79.87   19.94
   0   9  12    1.85   12.61
   0  -9 -12   16.53    8.45
   0  10  -4  153.27   28.57
   0  10  -3   31.57   15.07
   0  10  -2  203.27   19.73
   0  10  -1   36.84    8.97
   0  10   0   68.74   10.45
   0  10   1  163.13   15.55
   0  10   2   54.78   14.54
   0  10   3   27.31   13.79
   0 -10  -3   42.47   10.14
   0  10   4  231.76   20.84
   0 -10  -4  249.07   23.03
   0  10   5   17.31   14.92
   0 -10  -5   43.10   10.89
   0  10   6   76.76   19.72
   0 -10  -6   97.94   15.48
   0  10   7    4.50    8.16
   0 -10  -7    7.29    9.53
   0  10   8   90.96   24.98
   0 -10  -8   99.49   17.07
   0  10   9   19.29   10.68
   0 -10  -9    1.72   11.37
   0  10  10   53.23   17.81
   0 -10 -10  105.24   17.63
   0  10  11   -3.12   19.39
   0 -10 -11   -7.14    8.19
   0  11  -2   56.83   12.31
   0  11  -1   56.89   11.87
   0  11   0   17.36   13.79
   0  11   1   18.51    8.75
   0  11   2   31.18    9.79
   0  11   3    7.42    8.17
   0  11   4   10.27   13.51
   0  11   5   34.59   11.38
   0 -11  -5   45.86   14.68
   0  11   6   37.84   12.02
   0 -11  -6   42.82    9.84
   0  11   7   27.21   19.27
   0 -11  -7   42.99    9.16
   0  11   8  185.08   25.77
   0 -11  -8  205.98   29.83
   0  11   9   59.19   26.35
   0 -11  -9   61.35   16.64
   0  11  10  213.62   35.30
   0 -11 -10  261.64   35.29
   0  12   1   54.67   21.54
   0  12   2   10.50   15.76
   0  12   3   65.79   23.26
   0  12   4   -4.66   15.16
   0  12   5   14.57   10.97
   0  12   6    9.93   16.63
   0  12   7   24.23   18.22
   0 -12  -7    7.99   14.62
   0  12   8   15.61   11.41
   0 -12  -8   -2.94   14.20
  -1  12   6   14.20   19.33
  -1  12   5   18.95   11.87
  -1  12   4   14.90   11.62
  -1  12   3  103.01   29.43
   1 -11  -9   52.86   19.12
  -1  11   9   32.91   24.74
   1 -11  -8   76.14   12.94
  -1  11   8   50.49   16.00
   1 -11  -7   68.07   20.63
  -1  11   7   56.71   23.80
  -1  11   6   16.81   11.04
  -1  11   5   29.78   11.67
  -1  11   4   55.91   20.08
  -1  11   3   26.34   10.59
  -1  11   2    0.73    8.18
  -1  11   1    9.35    8.80
  -1  11   0   35.72   11.18
  -1  11  -1   31.64   11.56
   1 -10 -10  112.39   15.76
  -1  10  10   89.61   32.84
   1 -10  -9   19.72   11.41
  -1  10   9   -5.60   10.53
   1 -10  -8  353.15   39.04
  -1  10   8  333.45   50.61
   1 -10  -7  347.92   26.10
  -1  10   7  291.64   31.47
   1 -10  -6  147.12   22.52
  -1  10   6  208.92   21.20
   1 -10  -5  621.29   40.02
  -1  10   5  576.19   68.92
  -1  10   4   20.94    8.75
  -1  10   3  130.94   23.89
  -1  10   2   15.97   12.55
  -1  10   1   -5.12    7.07
  -1  10   0    4.59    7.44
  -1  10  -1    2.34    7.31
  -1  10  -2   18.23    9.07
  -1  10  -3   40.36   16.94
   1  -9 -11    8.58   13.36
  -1   9  11   13.84   19.83
   1  -9 -10   18.33    8.28
  -1   9  10   24.00   18.21
   1  -9  -9   21.42    7.27
  -1   9   9   21.90   17.61
   1  -9  -8    5.60   10.06
  -1   9   8   12.80    8.79
   1  -9  -7  168.72   19.77
  -1   9   7  142.66   16.70
   1  -9  -6    8.03    4.91
  -1   9   6    6.20   11.68
   1  -9  -5  540.58   42.39
  -1   9   5  557.14   53.69
   1  -9  -4   58.87    6.92
  -1   9   4   49.17    9.72
   1  -9  -3  201.22   18.10
  -1   9   3  176.44   24.43
  -1   9   2    5.50    9.55
  -1   9   1  323.91   33.37
  -1   9   0    1.22    5.83
  -1   9  -1  278.04   21.80
  -1   9  -2  274.10   21.50
  -1   9  -3   44.42    9.48
  -1   9  -4  433.02   51.19
  -1   9  -5   67.64   12.66
   1  -8 -12   75.51   19.75
  -1   8  12   41.26   17.25
   1  -8 -11    8.32    7.74
  -1   8  11   -2.50   16.10
   1  -8 -10   73.81   10.72
  -1   8  10   37.86   22.81
   1  -8  -9   13.00    9.79
  -1   8   9   10.94   14.52
   1  -8  -8  354.35   31.45
  -1   8   8  338.60   41.66
   1  -8  -7    8.68    8.15
  -1   8   7   15.78   10.67
   1  -8  -6  123.33    8.59
  -1   8   6  138.62   19.06
   1  -8  -5  782.83   48.37
  -1   8   5  740.96   61.55
   1  -8  -4   63.38    8.66
  -1   8   4   59.84    8.43
   1  -8  -3  601.24   25.94
  -1   8   3  613.56   33.50
   1  -8  -2  312.64   17.85
  -1   8   2  287.59   17.48
   1  -8  -1   24.70    6.86
  -1   8   1   29.61    9.42
  -1   8   0    5.94    5.20
  -1   8  -1   14.89    5.60
  -1   8  -2   16.45    9.79
  -1   8  -3  166.97   13.83
  -1   8  -4   -3.35    6.12
  -1   8  -5   11.79   11.55
  -1   8  -6    1.07    7.22
   1  -7 -12  102.34   15.69
  -1   7  12  110.31   32.54
   1  -7 -11   47.12   10.36
  -1   7  11   71.61   21.45
   1  -7 -10   22.24   11.77
   1  -7  -9   18.53   10.00
  -1   7   9   18.86   13.40
   1  -7  -8   40.11    9.73
  -1   7   8   43.97   14.53
   1  -7  -7  177.82   11.27
  -1   7   7  173.19   20.82
   1  -7  -6  273.25   12.77
  -1   7   6  289.65   17.52
   1  -7  -5  307.36   18.54
  -1   7   5  300.01   17.53
   1  -7  -4  380.79   20.01
  -1   7   4  422.40   20.94
   1  -7  -3 1420.72   74.19
  -1   7   3 1507.57   94.51
   1  -7  -2  330.48   15.20
  -1   7   2  338.72   23.62
   1  -7  -1  383.41   15.56
  -1   7   1  400.98   18.45
  -1   7   1  315.75   14.52
   1  -7   0  830.59   34.18
  -1   7   0  988.12   44.25
   1  -7   1  402.37   15.45
  -1   7  -1  708.12   34.62
  -1   7  -2 1040.85   67.50
  -1   7  -3  537.52   37.28
  -1   7  -4  610.87   48.09
  -1   7  -5  242.57   17.98
  -1   7  -6  229.68   28.26
  -1   7  -7    9.24    7.75
   1  -6 -13   32.22   16.66
  -1   6  13   10.21   22.18
   1  -6 -12  211.78   31.18
  -1   6  12  191.38   26.06
   1  -6 -11    8.89   11.46
  -1   6  11    8.46    9.27
   1  -6 -10  597.27   37.59
  -1   6  10  549.36   44.98
   1  -6  -9   75.19    8.66
  -1   6   9   56.37   11.00
   1  -6  -8  413.05   20.69
  -1   6   8  413.86   26.91
   1  -6  -7   10.64    6.91
  -1   6   7   25.06    9.13
   1  -6  -6  999.45   53.13
  -1   6   6 1019.07   51.84
   1  -6  -5   61.36    6.20
  -1   6   5   48.35    9.47
   1  -6  -4  616.25   27.78
  -1   6   4  645.39   35.87
   1  -6  -3    8.10    3.33
  -1   6   3    2.72    3.53
   1  -6  -2   39.56    4.07
  -1   6   2   38.36    3.54
  -1   6   2   54.74    7.14
   1  -6  -1  224.48    7.74
  -1   6   1  218.93   10.21
  -1   6   1  213.45    7.22
   1  -6   0   76.20    3.31
  -1   6   0   85.67    5.92
  -1   6   0   76.26    2.98
   1  -6   1    7.75    1.72
   1  -6   1    4.71    1.41
  -1   6  -1   11.18    5.41
   1  -6   2    3.07    1.06
   1  -6   2   -0.07    1.09
  -1   6  -2    1.99    3.32
  -1   6  -3   60.17    9.75
  -1   6  -4  294.68   16.15
  -1   6  -5   79.49    8.59
  -1   6  -6  915.79   73.91
  -1   6  -7   82.23   17.59
  -1   6  -8  364.33   29.89
   1  -5 -13   10.32    8.65
  -1   5  13   11.40   18.50
   1  -5 -12   24.35    9.24
  -1   5  12   15.42   11.28
   1  -5 -11   16.76   11.32
  -1   5  11    6.47    8.43
   1  -5 -10  161.99   21.72
  -1   5  10  176.88   17.52
   1  -5  -9  179.90   18.76
  -1   5   9  155.27   14.60
   1  -5  -8   10.61    4.70
  -1   5   8    9.84    8.94
   1  -5  -7   76.81    6.31
  -1   5   7   94.49    8.34
   1  -5  -6 1091.71   46.15
  -1   5   6 1034.63   63.44
   1  -5  -5  300.89   10.61
  -1   5   5  338.81   14.05
   1  -5  -4 1983.28   97.50
  -1   5   4 1998.58  100.41
   1  -5  -3 4546.33  301.81
  -1   5   3 4764.38  333.83
   1  -5  -2  821.00   26.95
  -1   5   2  788.25   26.38
  -1   5   2  816.61   28.87
   1  -5  -1 6891.87  527.03
  -1   5   1 6836.33  600.32
  -1   5   1 6507.10  555.25
   1  -5   0  111.02    3.03
  -1   5   0  132.44    3.93
  -1   5   0  114.21    5.74
   1  -5   1  602.75   11.90
   1  -5   1  613.12   12.26
  -1   5  -1  630.18   21.21
   1  -5   2  102.55    2.08
  -1   5  -2  119.63    8.74
   1  -5   3    4.91    1.05
   1  -5   3    7.40    1.68
  -1   5  -3   11.04    3.50
   1  -5   4  130.32    5.30
  -1   5  -4  197.24    9.20
   1  -5   5   12.86    3.35
  -1   5  -5   21.14    4.98
  -1   5  -6   61.76   11.82
  -1   5  -7   92.62   16.24
  -1   5  -8  305.03   23.40
  -1   5  -9    5.54    7.78
   1  -4 -13  279.07   29.57
  -1   4  13  347.08   51.34
   1  -4 -12   65.18   11.91
  -1   4  12   91.38   15.12
   1  -4 -11  282.47   22.46
  -1   4  11  282.54   25.84
   1  -4 -10  269.56   29.59
  -1   4  10  278.95   20.77
   1  -4  -9    2.28    7.47
  -1   4   9    0.61    5.28
   1  -4  -8   10.60    6.60
  -1   4   8    2.98    4.81
   1  -4  -7   34.82    4.85
  -1   4   7   34.09    8.20
   1  -4  -6  127.90    6.63
  -1   4   6  142.41   12.02
   1  -4  -5  261.72    9.27
  -1   4   5  257.91   14.40
   1  -4  -4  223.04    9.36
  -1   4   4  241.83   12.02
   1  -4  -3  479.26   16.16
  -1   4   3  502.77   15.44
  -1   4   3  515.34   16.02
   1  -4  -2 1591.31   55.98
  -1   4   2 1698.27   58.62
  -1   4   2 1550.33   67.32
   1  -4  -1 2347.69   91.52
  -1   4   1 2455.20   93.45
  -1   4   1 2377.83  105.38
   1  -4   0   99.62    2.21
  -1   4   0  102.46    4.23
  -1   4   0  100.87    2.49
   1  -4   1  455.89    6.64
   1  -4   1  462.72    6.65
  -1   4  -1  512.44   17.94
   1  -4   2   74.72    1.41
  -1   4  -2   97.63    6.67
   1  -4   3 1129.49   31.14
   1  -4   3 1126.60   26.94
  -1   4  -3 1151.35   43.69
   1  -4   4  100.34    3.35
   1  -4   4   90.56    4.00
  -1   4  -4  114.63    9.63
   1  -4   5    4.23    3.11
   1  -4   5    5.21    2.39
  -1   4  -5    8.60    3.71
   1  -4   6  101.64    6.47
  -1   4  -6  140.38   11.70
   1  -4   7   42.23    5.93
  -1   4  -7   76.43    6.68
  -1   4  -8  671.95   35.66
  -1   4  -9  263.03   18.91
  -1   4 -10  304.40   35.59
   1  -3 -13   45.33   11.40
  -1   3  13   37.49   12.69
   1  -3 -12   15.98    8.29
  -1   3  12   21.93   14.65
   1  -3 -11  252.06   20.72
  -1   3  11  346.95   36.35
   1  -3 -10  438.70   40.07
  -1   3  10  465.83   41.46
   1  -3  -9  379.56   30.51
  -1   3   9  410.42   32.90
   1  -3  -8 1233.10   78.53
  -1   3   8 1268.64   80.39
   1  -3  -7    2.60    3.46
  -1   3   7    5.32    5.61
   1  -3  -6  213.57    8.83
  -1   3   6  182.97   13.05
   1  -3  -5  465.99   18.71
  -1   3   5  464.57   20.90
   1  -3  -4 1490.83   61.41
  -1   3   4 1699.84   71.19
   1  -3  -3 3946.91  233.59
   1  -3  -3 3726.76  205.25
  -1   3   3 4200.37  226.71
  -1   3   3 4225.98  246.98
   1  -3  -2  283.94    5.57
   1  -3  -2  317.98   10.08
  -1   3   2  302.93    7.39
  -1   3   2  304.66    7.27
   1  -3  -1 5605.00  355.50
   1  -3  -1 5822.65  416.91
  -1   3   1 5969.64  413.46
  -1   3   1 6051.34  373.91
   1  -3   0   74.04    4.51
   1  -3   0   64.60    1.61
  -1   3   0   70.95    1.45
  -1   3   0   72.13    4.04
  -1   3  -1 4314.69  257.70
   1  -3   2  159.40    1.99
   1  -3   2  176.38    2.38
   1  -3   3 2557.25   94.35
   1  -3   3 2492.89   91.56
  -1   3  -3 2410.48  119.59
   1  -3   4  363.89   10.58
  -1   3  -4  440.56   10.97
   1  -3   5  580.36   26.61
   1  -3   5  695.79   27.88
  -1   3  -5  644.53   20.88
   1  -3   6   -0.51    7.20
  -1   3  -6    5.04    3.27
   1  -3   7  595.55   43.75
  -1   3  -7  547.96   26.30
   1  -3   8  103.01   16.16
  -1   3  -8   71.93    8.97
   1  -3   9  408.34   37.75
  -1   3  -9  256.65   23.71
   1  -3  10   54.68   19.39
   1  -3  11   33.25   12.46
   1  -2 -13   21.77    9.82
   1  -2 -12   26.79    8.91
  -1   2  12   27.77   10.90
   1  -2 -11  393.18   40.40
  -1   2  11  438.51   45.33
   1  -2 -10  256.27   25.21
  -1   2  10  262.50   26.92
   1  -2  -9  268.49   15.53
  -1   2   9  296.14   17.13
   1  -2  -8  346.17   17.60
  -1   2   8  377.43   17.92
   1  -2  -7    5.18    5.29
  -1   2   7    5.27    5.22
   1  -2  -6   26.85    5.55
  -1   2   6   23.65    3.22
   1  -2  -5   61.29    3.70
  -1   2   5   67.33    3.80
   1  -2  -4 1275.17   48.12
   1  -2  -4 1307.84   48.77
  -1   2   4 1258.95   41.12
   1  -2  -3 5125.83  319.46
   1  -2  -3 5241.09  320.25
  -1   2   3 5224.03  329.77
  -1   2   3 4827.82  314.15
   1  -2  -2 3120.82  146.82
   1  -2  -2 3101.47  138.73
  -1   2   2 3262.79  145.80
  -1   2   2 3128.05  143.76
   1  -2  -1  333.41    8.05
   1  -2  -1  342.32    6.07
  -1   2   1  350.93    6.16
  -1   2   1  310.94    7.82
   1  -2   0  285.62    5.61
   1  -2   0  284.34    3.64
  -1   2   0  282.26    3.57
  -1   2   0  274.01    5.43
  -1   2  -1 6151.60  436.14
  -1   2  -1 6939.44  499.83
   1  -2   2 2699.75   90.41
  -1   2  -2 2708.28   90.81
  -1   2  -2 2754.30  126.13
   1  -2   3 3447.84  180.46
   1  -2   3 3244.25  141.26
  -1   2  -3 3277.46  140.27
   1  -2   4 3912.87  259.72
   1  -2   4 4067.23  221.86
  -1   2  -4 4066.60  217.97
   1  -2   5  417.89   14.35
   1  -2   5  425.03   17.47
  -1   2  -5  441.03   13.48
   1  -2   6 2606.71  180.18
  -1   2  -6 2766.23  147.17
   1  -2   7   70.36   11.94
  -1   2  -7   62.84    6.79
   1  -2   8  182.47   19.93
  -1   2  -8  141.96    8.30
   1  -2   9  508.12   32.03
  -1   2  -9  422.66   33.51
   1  -2  10  131.47   24.55
  -1   2 -10  107.45   16.43
   1  -2  11    9.30    9.18
   1  -1 -13   -7.25   14.12
   1  -1 -12   31.35   13.96
  -1   1  12   15.58   15.19
   1  -1 -11  236.01   29.42
  -1   1  11  273.18   33.14
   1  -1 -10   97.71   10.31
  -1   1  10  111.40   17.45
   1  -1  -9  132.56   14.90
  -1   1   9  141.29   15.58
   1  -1  -8 2098.22  142.77
  -1   1   8 2325.94  143.30
   1  -1  -7  395.32   16.03
  -1   1   7  445.29   22.81
   1  -1  -6 5946.62  484.41
  -1   1   6 5850.80  477.05
   1  -1  -5 1187.64   41.16
   1  -1  -5 1223.13   40.33
  -1   1   5 1158.47   38.35
   1  -1  -4 3933.11  213.18
   1  -1  -4 3884.44  219.60
  -1   1   4 3778.28  209.95
   1  -1  -3  553.24   15.80
   1  -1  -3  580.46   14.57
  -1   1   3  626.41   15.67
  -1   1   3  659.49   14.91
   1  -1  -2 4215.28  214.25
   1  -1  -2 4190.72  214.01
  -1   1   2 4301.72  220.67
  -1   1   2 4421.72  227.92
   1  -1  -1  100.12    2.16
   1  -1  -1   95.97    1.51
  -1   1   1   95.60    1.61
  -1   1   1   98.37    1.54
   1  -1   0  815.38   14.38
   1  -1   0  855.36   17.77
  -1   1   0  835.92   13.85
  -1   1   0  825.30   17.81
   1  -1   1 1501.75   31.46
   1  -1   1 1504.45   48.86
  -1   1  -1 1564.06   32.37
  -1   1  -1 1529.88   46.08
   1  -1   2 4037.84  178.25
   1  -1   2 4060.20  227.06
  -1   1  -2 3958.89  214.65
  -1   1  -2 4157.93  185.71
   1  -1   3  262.60    7.81
   1  -1   3  290.49    5.65
  -1   1  -3  327.05   12.46
  -1   1  -3  289.04    5.46
   1  -1   4   37.19    2.51
   1  -1   4   36.08    3.62
  -1   1  -4   42.20    2.53
   1  -1   5  415.92   13.93
   1  -1   5  435.23   21.95
  -1   1  -5  428.24   13.65
   1  -1   6  304.67   20.41
  -1   1  -6  321.69   13.00
   1  -1   7  406.93   26.64
  -1   1  -7  334.44   16.61
   1  -1   8  167.08   12.73
  -1   1  -8  148.81   12.12
   1  -1   9  278.02   27.14
  -1   1  -9  225.26   19.45
   1  -1  10  233.39   19.63
  -1   1 -10  191.44   21.69
   1  -1  11   17.77   14.54
  -1   1 -11   10.87   10.21
   1  -1  12  188.33   33.26
  -1   1 -12  125.49   25.91
   1   0 -12   70.38   13.10
   1   0 -11   24.99   13.54
  -1   0  11   49.11   14.06
   1   0 -10  380.14   36.08
  -1   0  10  436.71   25.71
   1   0  -9  269.52   16.05
  -1   0   9  328.76   25.95
   1   0  -8   18.56    6.96
  -1   0   8   17.40    7.01
   1   0  -7   96.08    6.20
  -1   0   7  101.80    8.64
   1   0  -6  849.29   37.31
  -1   0   6  865.97   29.27
   1   0  -5   16.77    2.35
   1   0  -5   12.68    3.74
  -1   0   5   18.69    3.50
   1   0  -4  384.48   12.73
   1   0  -4  408.13   11.31
  -1   0   4  387.90   11.09
   1   0  -3  414.89    8.67
   1   0  -3  395.04    8.44
  -1   0   3  413.09    8.70
  -1   0   3  357.50    8.27
   1   0  -2 4158.77  212.73
   1   0  -2 4369.43  206.85
  -1   0   2 4139.16  200.79
  -1   0   2 4545.77  233.35
   1   0  -1 4185.59  210.43
   1   0  -1 4560.13  204.04
  -1   0   1 4489.93  223.41
  -1   0   1 4345.07  196.74
   1   0   0 2369.96   74.81
   1   0   0 2419.18   74.43
  -1   0   0 2253.94   69.82
  -1   0   0 2219.71   71.17
   1   0   1 4645.26  215.59
   1   0   1 4283.34  229.75
  -1   0  -1 4600.97  212.26
  -1   0  -1 4458.73  234.73
   1   0   2 1855.42   53.19
   1   0   2 1755.10   66.75
  -1   0  -2 1991.47   55.54
  -1   0  -2 1942.78   64.98
   1   0   3 2443.85  107.67
   1   0   3 2160.23   79.36
  -1   0  -3 2352.75   86.39
  -1   0  -3 2395.83   96.72
   1   0   4 1381.50   43.11
   1   0   4 1164.74   50.44
  -1   0  -4 1263.09   40.32
   1   0   5  824.83   38.65
   1   0   5  795.85   28.56
  -1   0  -5  862.89   27.61
   1   0   6  855.47   36.33
  -1   0  -6  903.55   33.31
   1   0   7  121.67   12.77
  -1   0  -7  103.70    5.33
   1   0   8  207.03   12.16
  -1   0  -8  176.65    9.55
   1   0   9   27.53   10.55
  -1   0  -9   27.33    7.58
   1   0  10  331.16   32.91
  -1   0 -10  271.08   24.48
   1   0  11  153.89   25.38
  -1   0 -11   98.60   17.83
   1   0  12  908.07   68.34
  -1   0 -12  574.61   73.83
   1   1 -12    2.29   12.57
   1   1 -11  166.82   18.14
  -1  -1  11  218.74   28.08
   1   1 -10   -1.86    9.19
  -1  -1  10   -2.51    9.94
   1   1  -9  938.43   76.02
  -1  -1   9 1213.17   79.17
   1   1  -8  616.48   43.10
  -1  -1   8  840.82   46.46
   1   1  -7  343.35   14.10
  -1  -1   7  326.41   18.72
   1   1  -6 2145.40  103.64
  -1  -1   6 2305.58  115.86
   1   1  -5    0.66    2.21
   1   1  -5    4.39    2.09
  -1  -1   5   -0.04    3.00
   1   1  -4  387.63   12.97
   1   1  -4  385.26    9.13
  -1  -1   4  376.31   10.83
   1   1  -3  259.63    7.70
   1   1  -3  268.32    6.37
  -1  -1   3  247.06    5.54
  -1  -1   3  240.25    5.72
   1   1  -2  306.17    4.89
   1   1  -2  273.48    6.90
  -1  -1   2  312.96    7.19
  -1  -1   2  295.93    5.51
   1   1  -1  309.35    2.97
  -1  -1   1  337.00    6.22
  -1  -1   1  310.96    4.85
   1   1   0 3599.35  148.67
   1   1   0 3306.96  128.92
  -1  -1   0 3410.18  131.17
  -1  -1   0 3541.32  146.69
   1   1   1  694.20   14.41
   1   1   1  705.29   11.85
  -1  -1  -1  699.01   12.71
  -1  -1  -1  680.41   13.98
   1   1   211133.49 1032.87
   1   1   210232.02 1013.66
  -1  -1  -210864.85 1066.53
  -1  -1  -211626.60 1083.15
   1   1   3 5049.13  287.02
   1   1   3 4715.03  290.45
  -1  -1  -3 5084.56  306.36
  -1  -1  -3 4801.48  276.35
   1   1   4 6621.27  513.20
   1   1   4 6770.20  510.60
  -1  -1  -4 6454.45  472.04
  -1  -1  -4 6887.52  548.19
   1   1   5 3719.92  219.27
  -1  -1  -5 3894.78  221.38
   1   1   6   85.33    5.55
  -1  -1  -6   69.28    5.33
   1   1   7   98.79    7.16
  -1  -1  -7  110.66    8.02
   1   1   8   61.01    7.46
  -1  -1  -8   57.78    7.69
   1   1   9  387.07   21.17
  -1  -1  -9  310.82   16.72
   1   1  10    6.20    6.95
  -1  -1 -10    4.52    7.59
   1   1  11   16.51    7.58
  -1  -1 -11   -6.11    9.24
   1   1  12   60.29   12.24
  -1  -1 -12   36.83   14.92
   1   1  13   14.60   11.18
  -1  -1 -13    0.91   12.67
   1   2 -11    5.21   12.10
   1   2 -10   33.12   13.91
  -1  -2  10   70.77   15.02
   1   2  -9  315.32   19.72
  -1  -2   9  365.89   30.66
   1   2  -8   12.85    7.10
  -1  -2   8    8.23    7.36
   1   2  -7 1884.59  116.31
  -1  -2   7 2052.58  100.58
   1   2  -6  598.13   28.44
  -1  -2   6  617.38   28.50
   1   2  -5 1459.49   66.89
   1   2  -5 1691.20   74.76
  -1  -2   5 1500.24   65.19
   1   2  -4  622.80   22.64
   1   2  -4  641.43   22.66
  -1  -2   4  725.19   18.75
   1   2  -3   33.93    2.98
   1   2  -3   33.34    2.05
  -1  -2   3   35.26    1.75
  -1  -2   3   35.66    2.07
   1   2  -2  230.93    4.09
   1   2  -2  223.99    5.18
  -1  -2   2  210.59    4.21
  -1  -2   2  241.04    6.44
   1   2  -1 7329.98  521.31
   1   2  -1 7038.73  477.54
  -1  -2   1 7174.77  523.72
  -1  -2   1 7133.25  483.04
   1   2   0  993.82   22.59
   1   2   0  978.74   20.53
  -1  -2   0  943.28   21.95
  -1  -2   0  932.45   19.50
   1   2   1 7489.95  537.28
   1   2   1 7415.67  543.01
  -1  -2  -1 7453.61  535.00
  -1  -2  -1 7285.87  525.37
   1   2   2   10.10    0.96
   1   2   2   15.16    2.07
  -1  -2  -2   15.37    1.38
  -1  -2  -2   10.98    1.54
   1   2   3 2176.82   79.42
   1   2   3 2146.95   88.79
  -1  -2  -3 2082.42   87.93
  -1  -2  -3 2062.11   76.07
   1   2   4  239.92    7.63
   1   2   4  275.49    6.44
  -1  -2  -4  245.49    7.80
  -1  -2  -4  291.29   11.31
   1   2   5 4824.39  342.07
  -1  -2  -5 4717.62  299.80
   1   2   6  506.88   26.87
  -1  -2  -6  564.14   22.76
   1   2   7 2800.24  179.54
  -1  -2  -7 2588.89  147.07
   1   2   8   19.82    5.18
  -1  -2  -8   20.09    6.02
   1   2   9  712.87   35.78
  -1  -2  -9  584.14   27.91
   1   2  10   52.81   12.58
  -1  -2 -10   30.05    9.78
   1   2  11  363.57   40.62
  -1  -2 -11  274.95   29.79
   1   2  12  111.40   27.55
  -1  -2 -12  117.04   12.95
   1   2  13   49.89   19.47
  -1  -2 -13   28.61    9.69
   1   3 -11   71.47   20.28
   1   3 -10   87.11   19.34
  -1  -3  10  110.41   12.95
   1   3  -9   20.97    6.53
  -1  -3   9   32.17   10.69
   1   3  -8   96.34    9.04
  -1  -3   8  133.55   14.20
   1   3  -7 1061.18   50.76
  -1  -3   7 1196.06   64.37
   1   3  -6  638.14   25.15
  -1  -3   6  743.37   33.74
   1   3  -5 1893.95   92.58
  -1  -3   5 1772.19   74.37
   1   3  -4  807.14   20.59
   1   3  -4  801.07   32.19
   1   3  -3 2067.88   75.26
   1   3  -3 2204.36   91.22
  -1  -3   3 1940.70   82.46
  -1  -3   3 2030.07   87.74
   1   3  -2 2552.44  109.87
   1   3  -2 2497.85  101.77
  -1  -3   2 2531.93  104.67
  -1  -3   2 2606.80  111.79
   1   3  -1  123.36    2.50
   1   3  -1  140.13    4.12
  -1  -3   1  128.08    2.78
  -1  -3   1  140.29    3.64
   1   3   0 4802.01  261.07
   1   3   0 4774.17  258.43
  -1  -3   0 4527.00  249.03
  -1  -3   0 4550.45  246.64
   1   3   1 3672.39  172.26
   1   3   1 3492.04  173.18
  -1  -3  -1 3515.82  160.20
  -1  -3  -1 3704.12  174.32
   1   3   2  696.78   16.55
   1   3   2  616.28   18.57
  -1  -3  -2  665.98   16.29
  -1  -3  -2  627.15   15.30
   1   3   3  507.76   13.49
   1   3   3  507.26   17.52
  -1  -3  -3  516.60   11.63
  -1  -3  -3  565.21   17.36
   1   3   4   12.26    3.92
  -1  -3  -4   16.30    2.72
   1   3   5 2883.19  164.36
  -1  -3  -5 2816.13  147.25
   1   3   6   46.74    6.96
  -1  -3  -6   39.28    5.57
   1   3   7 1421.01   83.61
  -1  -3  -7 1385.49   73.43
   1   3   8  557.59   26.28
  -1  -3  -8  517.95   22.80
   1   3   9   13.37    9.46
  -1  -3  -9    9.34    6.87
   1   3  10  109.98   17.73
  -1  -3 -10  101.76    8.75
   1   3  11   19.14    8.08
  -1  -3 -11    7.70    9.79
   1   3  12    7.46   14.59
  -1  -3 -12   17.98   11.49
   1   3  13  168.34   33.40
  -1  -3 -13  120.82   25.51
  -1  -4  10   79.95   16.28
   1   4  -9   10.09    8.14
  -1  -4   9    5.19    8.37
   1   4  -8    4.77    6.37
  -1  -4   8    1.22    6.64
   1   4  -7  406.46   21.45
  -1  -4   7  304.06   22.31
   1   4  -6  433.03   20.03
  -1  -4   6  371.06   21.48
   1   4  -5  192.78    7.11
  -1  -4   5  171.58   10.72
   1   4  -4 1721.41   72.95
  -1  -4   4 1586.83   73.83
   1   4  -3 1027.85   36.44
  -1  -4   3 1040.51   38.21
   1   4  -2 4983.23  323.20
   1   4  -2 4904.33  336.26
  -1  -4   2 4937.02  325.31
  -1  -4   2 5289.85  347.19
   1   4  -1 2240.69   91.51
   1   4  -1 2482.23   98.20
  -1  -4   1 2411.54  105.57
  -1  -4   1 2303.65   95.88
   1   4   0 2190.62   85.36
   1   4   0 2133.27   81.36
  -1  -4   0 2094.50   79.26
  -1  -4   0 2148.03   89.25
   1   4   1  143.34    4.55
   1   4   1  122.41    3.70
  -1  -4  -1  128.76    3.74
  -1  -4  -1  136.15    2.99
   1   4   2  277.86    7.78
   1   4   2  272.83    7.41
  -1  -4  -2  264.44    7.07
  -1  -4  -2  260.22    9.19
   1   4   3  272.74    8.41
   1   4   3  256.18   11.18
  -1  -4  -3  257.80    6.02
   1   4   4  742.40   31.09
  -1  -4  -4  747.75   24.51
   1   4   5 1356.55   68.67
  -1  -4  -5 1330.77   47.95
   1   4   6 1887.33  109.87
  -1  -4  -6 1905.36   84.19
   1   4   7 2689.28  174.12
  -1  -4  -7 2289.09  139.99
   1   4   8  617.38   31.69
  -1  -4  -8  616.24   27.56
   1   4   9  752.71   42.70
  -1  -4  -9  685.31   46.58
   1   4  10  689.93   59.08
  -1  -4 -10  636.04   49.58
   1   4  11  150.01   24.59
  -1  -4 -11  129.58   11.73
   1   4  12   67.73   13.57
  -1  -4 -12   66.64   16.55
   1   4  13   44.74   22.26
  -1  -4 -13   48.44   17.22
   1   5  -8   68.91   11.36
  -1  -5   8   41.42   11.43
   1   5  -7  292.56   19.15
  -1  -5   7  202.48   12.93
   1   5  -6  680.63   36.29
  -1  -5   6  608.37   36.17
   1   5  -5  661.68   30.84
  -1  -5   5  572.93   29.16
   1   5  -4    4.46    3.88
  -1  -5   4    1.61    2.35
   1   5  -3  177.34    9.39
  -1  -5   3  194.62    8.51
   1   5  -2 3394.79  190.14
  -1  -5   2 3204.23  175.49
   1   5  -1 1434.79   53.97
   1   5  -1 1659.41   58.26
  -1  -5   1 1534.46   57.69
   1   5   0 4327.86  264.99
   1   5   0 4266.84  271.87
  -1  -5   0 4408.26  263.14
   1   5   1    2.77    2.05
   1   5   1    6.10    2.47
  -1  -5  -1    4.76    1.45
   1   5   2  234.75    7.98
  -1  -5  -2  240.82    8.09
   1   5   3  255.39   12.24
  -1  -5  -3  239.79    6.34
   1   5   4  310.44   12.23
  -1  -5  -4  329.00   12.13
   1   5   5   43.39    7.43
  -1  -5  -5   48.38    3.45
   1   5   6  755.21   35.10
  -1  -5  -6  801.22   36.75
   1   5   7   40.39    6.32
  -1  -5  -7   51.43    4.92
   1   5   8    9.70    5.39
  -1  -5  -8    7.18    4.21
   1   5   9   24.39   10.32
  -1  -5  -9   16.44    7.87
   1   5  10   67.36   10.64
  -1  -5 -10   64.64   11.48
   1   5  11    0.93   11.82
  -1  -5 -11    1.32    5.76
   1   5  12   29.01   11.61
  -1  -5 -12   24.10   12.43
   1   5  13   22.74   17.94
  -1  -5 -13   14.12   14.21
   1   6  -8    6.17    8.88
   1   6  -7   75.58   11.31
  -1  -6   7   51.48    6.70
   1   6  -6    9.18    4.28
  -1  -6   6   11.11    6.00
   1   6  -5   25.58    6.64
  -1  -6   5   14.15    5.43
   1   6  -4  181.20   12.17
  -1  -6   4  169.18    7.30
   1   6  -3   44.13    4.04
  -1  -6   3   45.13    5.13
   1   6  -2  518.59   24.00
  -1  -6   2  539.17   20.12
   1   6  -1  300.95   13.93
  -1  -6   1  284.63    8.21
   1   6   0  279.03   10.19
  -1  -6   0  325.34   11.00
   1   6   1 1335.78   64.25
  -1  -6  -1 1388.18   53.06
   1   6   2  292.74   11.27
  -1  -6  -2  303.03   11.21
   1   6   3 1702.02   74.30
  -1  -6  -3 1495.41   58.38
   1   6   4 2258.11  136.46
  -1  -6  -4 2277.16  117.22
   1   6   5  408.72   26.24
  -1  -6  -5  416.52   19.58
   1   6   6 2163.68  126.51
  -1  -6  -6 2042.21  121.38
   1   6   7  992.71   55.77
  -1  -6  -7 1028.14   56.50
   1   6   8  644.29   37.47
  -1  -6  -8  639.78   31.83
   1   6   9  903.45   76.68
  -1  -6  -9  849.33   59.70
   1   6  10   59.66   17.53
  -1  -6 -10   68.09    8.88
   1   6  11   13.19    9.11
  -1  -6 -11   13.85    9.82
   1   6  12   31.33   19.26
  -1  -6 -12   30.62   13.06
   1   6  13   17.48   12.70
  -1  -6 -13   21.77   14.79
   1   7  -7  208.12   22.88
   1   7  -6   92.77    8.74
   1   7  -5  692.03   38.73
  -1  -7   5  415.24   31.64
   1   7  -4    8.13    6.55
  -1  -7   4    9.59    3.15
   1   7  -3 2255.12  143.17
  -1  -7   3 2102.28  126.47
   1   7  -2   45.41    4.69
  -1  -7   2   47.52    3.52
   1   7  -1  749.43   39.61
  -1  -7   1  792.19   34.26
   1   7   0  149.29   11.11
  -1  -7   0  150.73    5.86
   1   7   1  101.26    9.19
  -1  -7  -1   92.60    5.91
   1   7   2    9.75    5.42
  -1  -7  -2    4.61    2.19
   1   7   3  408.16   18.06
  -1  -7  -3  386.67   16.43
   1   7   4   64.42    6.73
  -1  -7  -4   82.08    6.53
   1   7   5   15.56    4.91
  -1  -7  -5   24.78    5.32
   1   7   6   32.06    9.42
  -1  -7  -6   25.62    6.10
   1   7   7  113.51   17.62
  -1  -7  -7  125.57    7.97
   1   7   8  452.99   31.03
  -1  -7  -8  458.77   32.84
   1   7   9  966.69   64.86
  -1  -7  -9  887.70   54.45
  -1  -7 -10   11.34    9.41
   1   7  11  321.03   33.76
  -1  -7 -11  369.74   35.00
   1   7  12   42.86   13.23
  -1  -7 -12   28.61    9.86
   1   7  13   52.44   27.60
  -1  -7 -13   62.07   12.02
   1   8  -6  155.00   14.02
   1   8  -5    7.47    8.46
   1   8  -4  187.58   13.25
   1   8  -3  250.31   13.19
  -1  -8   3  169.74   14.22
   1   8  -2   65.80    9.67
  -1  -8   2   46.34    6.75
   1   8  -1  692.05   44.28
  -1  -8   1  738.93   37.32
   1   8   0  497.50   22.95
  -1  -8   0  475.55   24.18
   1   8   1  685.87   42.16
  -1  -8  -1  662.28   27.04
   1   8   2 1580.22  103.17
  -1  -8  -2 1500.76   74.06
   1   8   3   54.08    9.75
  -1  -8  -3   47.92    4.06
   1   8   4  455.03   31.74
  -1  -8  -4  394.28   15.75
   1   8   5   49.21   11.57
  -1  -8  -5   65.87    7.74
   1   8   6   85.38    9.65
  -1  -8  -6   90.16    9.67
   1   8   7   58.90    9.62
  -1  -8  -7   59.01    6.30
   1   8   8   21.55    8.23
  -1  -8  -8   23.03    8.59
   1   8   9  174.67   28.13
  -1  -8  -9  193.68   22.05
   1   8  10    3.99    8.91
  -1  -8 -10   12.01    6.20
   1   8  11  156.27   22.49
  -1  -8 -11  160.69   16.18
   1   8  12   32.48   20.62
  -1  -8 -12   24.04   13.74
   1   8  13   56.68   17.24
  -1  -8 -13   48.44   18.76
   1   9  -4    8.45    9.73
   1   9  -3   35.59   11.25
   1   9  -2    1.02    7.70
   1   9  -1   57.76   11.69
  -1  -9   1   63.83    8.10
   1   9   0  118.04   14.90
  -1  -9   0  114.74   11.25
   1   9   1   34.68    6.65
  -1  -9  -1   45.31    6.84
   1   9   2  581.89   44.97
  -1  -9  -2  561.68   31.78
   1   9   3   12.26    8.33
  -1  -9  -3    3.75    3.38
   1   9   4  143.05   12.57
  -1  -9  -4  137.79   12.36
   1   9   5   56.47   13.59
  -1  -9  -5   61.68    5.88
   1   9   6   -1.73   10.61
  -1  -9  -6   19.13    7.04
   1   9   7   90.98   13.79
  -1  -9  -7  122.92    9.26
   1   9   8   15.91    9.56
  -1  -9  -8   39.42    9.81
   1   9   9  137.94   27.33
  -1  -9  -9  129.84   19.92
   1   9  10   19.50   10.89
  -1  -9 -10   33.20   12.17
   1   9  11  458.77   69.32
  -1  -9 -11  456.88   36.81
   1   9  12   92.17   18.24
  -1  -9 -12   50.81   11.92
   1  10  -4    5.25    7.03
   1  10  -3   30.47   13.09
   1  10  -2    6.47   10.00
   1  10  -1   87.82   16.44
   1  10   0  123.28   18.70
   1  10   1   88.16   15.53
  -1 -10  -1   76.32    7.32
   1  10   2  952.60   62.32
  -1 -10  -2  935.93   67.59
   1  10   3   10.20   11.40
  -1 -10  -3   21.87    4.90
   1  10   4  613.37   43.25
  -1 -10  -4  645.21   44.65
   1  10   5   70.62   18.04
  -1 -10  -5   83.65   11.60
   1  10   6   15.12    8.28
  -1 -10  -6   18.34    5.52
   1  10   7   33.99   13.99
  -1 -10  -7   18.53    6.08
   1  10   8   94.55   15.61
  -1 -10  -8   83.66   15.54
   1  10   9   10.02   16.95
  -1 -10  -9   22.41   11.73
   1  10  10  169.32   25.42
  -1 -10 -10  165.71   25.37
   1  10  11   21.94   17.57
  -1 -10 -11    0.21    7.82
   1  10  12   28.89   14.13
  -1 -10 -12   19.89    9.37
   1  11  -2   35.53   15.02
   1  11  -1   12.29    8.00
   1  11   0   99.97   13.51
   1  11   1   13.37    7.73
   1  11   2   20.71   13.17
   1  11   3   53.45   16.03
  -1 -11  -3   41.28    7.84
   1  11   4  193.94   20.30
  -1 -11  -4  171.02   22.35
   1  11   5   78.62   13.62
  -1 -11  -5   83.00   14.24
   1  11   6  155.25   29.94
  -1 -11  -6  178.81   21.96
   1  11   7  166.26   22.39
  -1 -11  -7  185.12   23.51
   1  11   8  118.96   32.35
  -1 -11  -8  141.20   22.76
   1  11   9   93.57   18.49
  -1 -11  -9   87.65   13.38
   1  11  10   60.96   25.42
  -1 -11 -10   50.74   11.09
   1  11  11   50.96   16.33
  -1 -11 -11   43.67   11.80
   1  12   0   10.22    9.04
   1  12   1  223.61   36.83
   1  12   2    0.73    8.29
   1  12   3   77.99   14.76
   1  12   4   22.99   10.93
   1  12   5   24.73   15.78
  -1 -12  -5    7.06   12.48
   1  12   6   10.45   16.02
  -1 -12  -6   15.09   12.19
   1  12   7   14.94   12.10
  -1 -12  -7   34.12   13.65
   1  12   8    0.66   10.26
  -1 -12  -8    1.65    7.58
   1  12   9   -1.40   18.34
  -1 -12  -9   -5.52    8.50
   1  13   4   60.41   24.79
   1  13   5    5.66   16.57
   1  13   6   97.17   30.37
  -2  11   7   47.01   15.12
  -2  11   6   11.06   17.24
  -2  11   5    1.08    9.52
  -2  11   4  -11.10   10.28
  -2  11   3   41.06   19.53
  -2  11   2   30.53   17.88
  -2  11   1    7.69   14.60
   2 -10  -9   67.51   22.40
  -2  10   9   76.48   28.11
   2 -10  -8   -3.20    8.25
  -2  10   8   14.49   15.24
   2 -10  -7  378.16   45.18
  -2  10   7  264.36   34.19
  -2  10   6   18.81   16.36
  -2  10   5  137.97   18.62
  -2  10   4  110.59   24.02
  -2  10   3   -0.34    7.59
  -2  10   2  240.30   35.22
  -2  10   1   34.59   15.55
  -2  10   0   12.42   14.00
  -2  10  -1   51.73   19.25
  -2  10  -2    3.75   14.38
   2  -9 -10   71.49   21.63
  -2   9  10   99.50   29.60
   2  -9  -9   11.05   13.56
  -2   9   9   26.11   17.79
   2  -9  -8    2.16   10.68
  -2   9   8    0.10    8.42
   2  -9  -7   62.76   15.87
  -2   9   7   69.50   13.20
   2  -9  -6  139.83   20.25
  -2   9   6  126.71   25.47
   2  -9  -5  174.27   20.71
  -2   9   5  138.39   26.66
  -2   9   4   11.43    7.53
  -2   9   3  438.27   45.51
  -2   9   2  139.38   14.88
  -2   9   1  103.03   19.01
  -2   9   0   34.47   14.47
  -2   9  -1   34.94   14.43
  -2   9  -2   16.19   13.39
  -2   9  -3  137.99   18.19
  -2   9  -4   18.20    9.84
   2  -8 -11   72.49   18.95
  -2   8  11   29.94   27.92
   2  -8 -10   20.34   12.89
  -2   8  10    7.75   17.91
   2  -8  -9  118.53   21.41
  -2   8   9  128.91   28.11
   2  -8  -8   12.72   10.63
  -2   8   8   11.41   13.14
   2  -8  -7   55.49   12.37
  -2   8   7   52.81   16.27
   2  -8  -6  139.45   11.07
  -2   8   6  120.93   22.64
   2  -8  -5   78.57    7.97
  -2   8   5   99.40   16.91
   2  -8  -4 1125.29   62.94
  -2   8   4 1193.25   74.35
   2  -8  -3  323.61   21.73
  -2   8   3  335.79   21.89
  -2   8   2  530.40   44.07
  -2   8   1  205.76   15.49
  -2   8   0  195.10   23.22
  -2   8  -1   49.43   13.39
  -2   8  -2   49.35   14.47
  -2   8  -3  161.71   24.43
  -2   8  -4  123.29   23.49
  -2   8  -5   30.36   15.75
   2  -7 -12   93.11   23.41
  -2   7  12   90.77   33.25
   2  -7 -11   41.59   15.75
  -2   7  11   37.00   22.61
   2  -7 -10  188.47   18.10
   2  -7  -9    9.90   10.02
  -2   7   9    1.22   13.54
   2  -7  -8  123.85   11.41
  -2   7   8  108.11   22.64
   2  -7  -7   36.55   10.12
  -2   7   7   43.13    8.50
   2  -7  -6   66.51    6.64
  -2   7   6   56.35    9.16
   2  -7  -5   37.50    5.40
  -2   7   5   69.63    7.87
   2  -7  -4   -0.91    3.18
  -2   7   4   -1.74    7.47
   2  -7  -3  351.53   19.24
  -2   7   3  349.54   27.94
   2  -7  -2  164.68    9.44
  -2   7   2  162.32   16.90
   2  -7  -1   47.08    3.60
  -2   7   1   90.08    7.22
  -2   7   0 1413.60  101.19
  -2   7  -1  347.00   20.31
  -2   7  -2  733.08   42.67
  -2   7  -3  199.79   15.31
  -2   7  -4   54.99   14.77
  -2   7  -5   46.24   15.80
  -2   7  -6   35.45   15.69
  -2   7  -7    7.45    8.52
   2  -6 -12  148.01   28.83
  -2   6  12  139.84   24.09
   2  -6 -11  300.13   27.00
  -2   6  11  327.57   34.50
   2  -6 -10  138.30   21.00
  -2   6  10  121.24   17.40
   2  -6  -9  643.85   41.57
  -2   6   9  690.41   71.04
   2  -6  -8   13.38    9.22
  -2   6   8   29.11   11.54
   2  -6  -7  361.74   19.26
  -2   6   7  342.66   22.78
   2  -6  -6   47.98    8.87
  -2   6   6   60.77   11.33
   2  -6  -5  122.77   10.92
  -2   6   5  133.18   10.16
   2  -6  -4  145.56   10.80
  -2   6   4  173.35   10.35
   2  -6  -3  246.75   12.57
  -2   6   3  275.55   18.81
   2  -6  -2   22.10    3.75
  -2   6   2   18.75    3.27
  -2   6   2   13.85    4.47
   2  -6  -1  596.08   23.64
  -2   6   1  703.11   29.04
  -2   6   1  649.83   20.47
  -2   6   0  358.74   23.84
  -2   6  -1  166.07   10.32
  -2   6  -2 1253.53   81.28
  -2   6  -3   25.70    9.25
  -2   6  -4  421.39   35.57
  -2   6  -5   26.73    7.40
  -2   6  -6  335.47   37.19
  -2   6  -7   11.25   12.61
  -2   6  -8   95.24   14.93
   2  -5 -12   24.96   15.47
  -2   5  12   23.57   12.49
   2  -5 -11   32.39   13.99
  -2   5  11   25.03   11.20
   2  -5 -10  124.75   12.76
  -2   5  10  119.80   23.76
   2  -5  -9   69.03   13.20
  -2   5   9   44.80   16.07
   2  -5  -8  208.48   13.25
  -2   5   8  179.16   15.69
   2  -5  -7  344.67   27.00
  -2   5   7  405.47   30.77
   2  -5  -6   12.62    3.98
  -2   5   6   16.89    7.36
   2  -5  -5 1222.99   66.23
  -2   5   5 1319.22   66.13
   2  -5  -4   27.03    4.96
  -2   5   4   23.08    4.22
   2  -5  -3 1022.42   44.52
  -2   5   3 1105.17   54.92
   2  -5  -2    5.67    2.85
  -2   5   2    7.39    2.58
  -2   5   2   10.95    3.23
   2  -5  -1  149.07    5.16
  -2   5   1  174.20   11.46
  -2   5   1  160.58    5.91
  -2   5   0  138.20    9.08
  -2   5   0   93.28    2.11
  -2   5  -1  146.28   11.91
  -2   5  -2 1111.92   49.37
  -2   5  -3 1106.88   52.89
  -2   5  -4  218.26   13.49
  -2   5  -5   83.65    9.07
  -2   5  -6  312.59   30.65
  -2   5  -7  108.31   19.59
  -2   5  -8  429.27   48.33
  -2   5  -9  365.24   48.91
   2  -4 -12   63.32   12.35
  -2   4  12   32.66   21.22
   2  -4 -11   22.25   12.91
  -2   4  11   22.41   15.39
   2  -4 -10  123.12   20.09
  -2   4  10  134.78   14.77
   2  -4  -9  244.72   16.70
  -2   4   9  270.78   27.67
   2  -4  -8   11.30    7.29
  -2   4   8    8.42    5.56
   2  -4  -7  682.24   33.32
  -2   4   7  744.99   49.31
   2  -4  -6   30.53    6.30
  -2   4   6   13.71    6.73
   2  -4  -5 1252.90   61.97
  -2   4   5 1226.49   68.33
   2  -4  -4    8.48    3.84
  -2   4   4    2.32    2.99
   2  -4  -3  895.14   33.63
  -2   4   3  914.42   40.48
   2  -4  -2 1044.62   35.03
  -2   4   2 1137.09   47.12
  -2   4   2 1039.52   37.68
   2  -4  -1 2415.41   95.79
  -2   4   1 2208.29   93.72
  -2   4   1 2356.68  121.04
   2  -4   0   12.44    1.19
  -2   4   0   17.30    2.71
  -2   4   0   13.68    1.10
  -2   4  -1 5138.67  364.31
  -2   4  -2 1763.11   79.61
  -2   4  -3  686.85   27.89
  -2   4  -4  440.57   20.16
  -2   4  -5   61.04    6.66
  -2   4  -6  163.68   17.73
  -2   4  -7  208.26   20.80
  -2   4  -8   27.94   11.07
  -2   4  -9   53.39   15.06
  -2   4 -10   26.91   14.31
   2  -3 -12   32.65   10.34
   2  -3 -11  168.49   18.25
  -2   3  11  218.12   29.33
   2  -3 -10  584.30   56.29
  -2   3  10  640.97   58.62
   2  -3  -9   90.27   10.09
  -2   3   9  114.67   15.23
   2  -3  -8  516.44   36.15
  -2   3   8  505.64   36.22
   2  -3  -7  208.19   11.27
  -2   3   7  223.23   11.87
   2  -3  -6   23.03    3.77
  -2   3   6   21.76    4.07
   2  -3  -5  772.32   33.59
  -2   3   5  788.64   35.48
   2  -3  -4 1425.50   63.86
  -2   3   4 1658.00   75.31
   2  -3  -3   30.99    2.26
  -2   3   3   35.04    4.18
   2  -3  -2 1145.54   34.32
  -2   3   2 1218.05   46.03
  -2   3   2 1227.17   41.36
   2  -3  -1    8.01    1.70
  -2   3   1    8.07    2.04
  -2   3   1    9.86    1.75
   2  -3   0 2131.68   68.41
  -2   3   0 2056.95   94.38
  -2   3   0 2196.78   72.02
  -2   3  -1 3052.49  154.35
  -2   3  -2 2165.21   98.32
  -2   3  -3 1484.36   72.21
   2  -3   4 2070.11   62.74
   2  -3   4 1865.78   55.70
   2  -3   5   23.72    3.01
   2  -3   5   10.78    5.66
  -2   3  -5   23.54    2.77
   2  -3   6  330.16   18.70
  -2   3  -6  288.14   10.34
   2  -3   7   22.66    6.61
  -2   3  -7    8.21    5.05
   2  -3   8  431.75   31.22
   2  -3   9  110.04   15.42
   2  -3  10  142.59   20.04
   2  -2 -12  114.22   16.69
   2  -2 -11   32.56   14.23
  -2   2  11   34.99   14.27
   2  -2 -10  247.90   29.62
  -2   2  10  275.21   29.25
   2  -2  -9   45.70    7.38
  -2   2   9   38.93   10.65
   2  -2  -8  715.26   48.08
  -2   2   8  680.08   43.30
   2  -2  -7   68.70    9.82
  -2   2   7   86.65    8.88
   2  -2  -6 2562.06  142.10
  -2   2   6 2630.20  159.71
   2  -2  -5  284.69   10.22
  -2   2   5  309.49   14.05
   2  -2  -4 2214.87  110.65
   2  -2  -4 2161.90   96.18
  -2   2   4 2348.25  100.79
   2  -2  -3  469.22   15.32
   2  -2  -3  485.39   15.32
  -2   2   3  454.85   14.71
   2  -2  -2    9.57    2.28
   2  -2  -2    4.50    1.39
  -2   2   2    6.28    1.53
  -2   2   2    6.22    1.37
   2  -2  -1  428.57    9.78
   2  -2  -1  434.83   12.69
  -2   2   1  422.54    9.81
  -2   2   1  434.76    8.36
  -2   2   0   46.08    2.30
  -2   2   0   47.16    2.00
  -2   2  -1 2775.82   92.92
  -2   2  -1 2495.88  113.48
  -2   2  -1 2702.21   89.46
   2  -2   3 1343.00   32.51
   2  -2   3 1380.40   65.32
  -2   2  -3 1320.37   32.80
   2  -2   4 1599.84   48.26
   2  -2   4 1432.47   83.61
  -2   2  -4 1674.69   54.31
   2  -2   5   50.98    3.31
   2  -2   5   52.47    6.12
  -2   2  -5   62.85    3.25
   2  -2   6   68.13   11.46
   2  -2   6   62.99    5.56
  -2   2  -6   74.22    4.90
   2  -2   7   18.37   10.62
  -2   2  -7   20.76    4.50
   2  -2   8    8.67    9.87
  -2   2  -8    7.06    4.99
   2  -2   9   40.42   13.76
  -2   2  -9   24.15    7.67
   2  -2  10   69.01   13.43
   2  -2  11    9.27   15.61
   2  -1 -12    1.54    8.27
   2  -1 -11   15.95   12.55
   2  -1 -10   46.12    8.43
  -2   1  10   38.80   11.73
   2  -1  -9   18.73    9.03
  -2   1   9   11.57    7.74
   2  -1  -8  631.59   32.73
  -2   1   8  741.83   41.45
   2  -1  -7  448.22   27.50
  -2   1   7  475.93   24.24
   2  -1  -6 1130.74   55.93
  -2   1   6 1101.40   40.50
   2  -1  -5 1416.66   64.58
   2  -1  -5 1361.81   56.33
  -2   1   5 1409.72   55.92
   2  -1  -4    9.21    2.42
   2  -1  -4   13.86    2.35
  -2   1   4   13.94    2.76
   2  -1  -3 1552.00   57.60
   2  -1  -3 1513.96   48.12
  -2   1   3 1456.32   51.22
   2  -1  -2 3762.13  189.09
   2  -1  -2 3764.53  197.88
  -2   1   2 3977.98  200.98
  -2   1   2 3548.08  180.83
   2  -1  -1   75.08    2.86
   2  -1  -1   75.72    2.83
  -2   1   1   70.09    2.61
  -2   1   1   73.04    2.76
  -2   1   0  799.65   25.60
  -2   1   0  870.85   19.64
  -2   1   0  863.56   20.58
  -2   1   0  941.67   20.90
   2  -1   1  422.97    7.13
  -2   1  -1  477.16    7.66
  -2   1  -1  444.57   11.40
   2  -1   2    2.25    2.10
   2  -1   2    4.31    0.87
  -2   1  -2    2.76    0.81
   2  -1   3 3230.62  133.62
   2  -1   3 2972.64  174.29
  -2   1  -3 3099.50  130.68
   2  -1   4 2925.66  127.52
   2  -1   4 2771.68  168.45
  -2   1  -4 2913.89  126.86
   2  -1   5   88.51    4.40
   2  -1   5   98.80    6.75
  -2   1  -5  104.59    4.59
   2  -1   6 5608.54  471.20
  -2   1  -6 5981.61  485.10
   2  -1   7  478.43   24.70
  -2   1  -7  449.14   21.84
   2  -1   8 1620.89   89.71
  -2   1  -8 1350.69   83.44
   2  -1   9   80.14   15.52
  -2   1  -9   44.88    8.72
   2  -1  10  373.93   29.25
  -2   1 -10  303.82   28.12
   2  -1  11   14.71   15.64
   2  -1  12   19.20   12.29
   2   0 -12   20.94   15.47
   2   0 -11   43.50   15.72
   2   0 -10   24.98   11.29
  -2   0  10   11.40    9.68
   2   0  -9   61.08    8.97
  -2   0   9   95.05   11.71
   2   0  -8  386.77   29.93
  -2   0   8  432.99   26.55
   2   0  -7  260.84   18.08
  -2   0   7  247.66    9.79
   2   0  -6 1538.14   70.79
   2   0  -6 1571.50   73.01
  -2   0   6 1690.86   73.78
   2   0  -5 1183.69   54.02
   2   0  -5 1284.99   46.42
  -2   0   5 1239.00   45.09
   2   0  -4 3082.50  162.65
   2   0  -4 3284.75  154.84
  -2   0   4 3262.24  154.03
   2   0  -3 7935.09  594.36
   2   0  -3 7175.45  582.42
  -2   0   3 7297.02  550.74
   2   0  -2 1200.10   28.87
   2   0  -2 1144.22   37.25
  -2   0   2 1109.03   28.65
  -2   0   2 1216.60   38.64
  -2   0   1 3288.46  137.04
  -2   0   1 3384.57  154.85
  -2   0   1 3398.75  143.16
  -2   0   0 2425.74   90.23
  -2   0   0 2505.99   95.85
   2   0   1   59.52    1.86
   2   0   1   59.72    3.32
  -2   0  -1   59.43    2.35
   2   0   2 2135.06   87.57
   2   0   2 2202.05   75.83
  -2   0  -2 2166.72   73.55
  -2   0  -2 2398.06  103.92
   2   0   3  954.59   38.87
   2   0   3  973.96   24.35
  -2   0  -3  976.87   24.39
   2   0   4   20.31    2.01
   2   0   4   16.91    3.33
  -2   0  -4   20.32    1.48
   2   0   5    8.08    2.71
   2   0   5   17.90    3.78
  -2   0  -5   20.30    2.94
   2   0   6  568.07   25.70
  -2   0  -6  652.08   23.87
   2   0   7  316.87   16.92
  -2   0  -7  303.71   15.37
   2   0   8  340.92   26.00
  -2   0  -8  257.24   12.35
   2   0   9   11.61    7.09
  -2   0  -9    7.16    6.70
   2   0  10  170.70   24.00
  -2   0 -10  111.03   10.08
   2   0  11  164.81   28.30
  -2   0 -11  107.67   17.15
   2   0  12   96.48   17.56
  -2   0 -12   88.38   18.79
   2   1 -12   54.82   20.79
   2   1 -11   51.66   11.00
   2   1 -10   39.79   13.41
   2   1  -9   22.67    9.58
  -2  -1   9   11.06    8.26
   2   1  -8   18.83    5.59
  -2  -1   8   33.90    6.84
   2   1  -7    4.90    3.97
  -2  -1   7    4.44    4.38
   2   1  -6   22.54    4.21
   2   1  -6   16.00    3.66
  -2  -1   6    9.13    3.72
   2   1  -5  423.76   13.76
   2   1  -5  396.69   19.99
  -2  -1   5  470.97   14.42
   2   1  -4  509.45   14.65
   2   1  -4  494.63   11.24
  -2  -1   4  462.16   11.29
   2   1  -3 3054.41  158.21
   2   1  -3 3112.51  122.65
  -2  -1   3 3104.51  124.83
   2   1  -2  233.09    6.28
  -2  -1   2  263.29    6.36
  -2  -1   1 6641.64  382.14
  -2  -1   1 6158.56  368.37
  -2  -1   1 6208.44  429.66
  -2  -1   1 6691.38  463.31
   2   1   0 4413.76  228.82
   2   1   0 4819.70  263.39
  -2  -1   0 4498.94  241.24
  -2  -1   0 4504.79  231.71
   2   1   1 6695.73  458.60
   2   1   1 6743.42  480.32
  -2  -1  -1 6538.55  439.30
  -2  -1  -1 6327.82  446.78
   2   1   2  173.49    7.07
   2   1   2  178.05    4.19
  -2  -1  -2  176.85    4.12
  -2  -1  -2  192.77    7.02
   2   1   3 8886.76  782.90
   2   1   3 8466.08  799.17
  -2  -1  -3 8730.68  769.25
  -2  -1  -3 9773.96  916.43
   2   1   4  597.57   14.58
   2   1   4  617.80   21.45
  -2  -1  -4  687.33   18.56
   2   1   5 1576.99   69.91
  -2  -1  -5 1551.37   61.57
   2   1   6 1638.85   96.98
  -2  -1  -6 1735.05   72.14
   2   1   7   43.60    6.51
  -2  -1  -7   41.71    5.61
   2   1   8  737.84   37.44
  -2  -1  -8  564.60   30.90
   2   1   9   27.85    9.97
  -2  -1  -9   -1.99    3.56
   2   1  10   20.87    8.05
  -2  -1 -10   14.36    8.38
   2   1  11   60.11   10.96
  -2  -1 -11   33.53    7.88
   2   1  12   57.64   23.07
  -2  -1 -12   51.83   15.00
   2   1  13   19.60   18.24
  -2  -1 -13    3.48   12.02
   2   2 -11   91.44   14.40
   2   2 -10  225.31   30.31
   2   2  -9  546.64   35.10
  -2  -2   9  631.76   42.52
   2   2  -8  338.88   21.11
  -2  -2   8  435.12   24.38
   2   2  -7  482.44   24.45
  -2  -2   7  591.50   25.93
   2   2  -6 1755.52   87.13
   2   2  -6 1608.22   80.06
  -2  -2   6 1778.23   78.10
   2   2  -5  635.02   21.89
   2   2  -5  584.07   28.88
  -2  -2   5  681.49   24.00
   2   2  -4 4265.77  226.61
   2   2  -4 3904.03  252.52
  -2  -2   4 3961.36  206.69
   2   2  -3  216.28    4.83
   2   2  -3  210.97    3.74
   2   2  -2  270.69    3.16
  -2  -2   2  276.97    9.28
  -2  -2   1 1383.97   45.86
  -2  -2   1 1390.41   28.35
   2   2   0 4806.81  283.42
   2   2   0 4786.66  256.81
  -2  -2   0 4740.14  277.22
  -2  -2   0 4797.64  251.38
   2   2   1   80.81    2.98
   2   2   1   76.75    3.08
  -2  -2  -1   70.69    2.71
  -2  -2  -1   74.01    2.12
   2   2   2  807.48   18.24
   2   2   2  744.49   22.82
  -2  -2  -2  762.25   23.10
  -2  -2  -2  765.06   19.55
   2   2   3  118.60    3.11
   2   2   3  109.64    6.72
  -2  -2  -3  132.39    4.68
  -2  -2  -3  119.88    3.05
   2   2   4   95.85    4.64
   2   2   4  124.38    7.87
  -2  -2  -4  103.16    4.68
   2   2   5 2658.13  159.17
  -2  -2  -5 2763.93  128.65
   2   2   6  792.44   32.95
  -2  -2  -6  780.48   32.11
   2   2   7 2704.13  152.65
  -2  -2  -7 2293.32  133.69
   2   2   8  810.81   40.47
  -2  -2  -8  756.48   41.33
   2   2   9   -7.86    6.05
  -2  -2  -9    0.18    3.45
   2   2  10  112.90   13.09
  -2  -2 -10   99.24   13.06
   2   2  11  470.90   51.51
  -2  -2 -11  367.37   25.68
   2   2  12   64.24   19.49
  -2  -2 -12   35.10   14.84
   2   2  13  212.15   38.76
  -2  -2 -13  172.59   19.75
   2   3 -11   17.91   10.03
   2   3 -10   78.07   12.85
   2   3  -9   48.87    9.29
   2   3  -8  109.35    9.58
  -2  -3   8   72.87    6.92
   2   3  -7  339.30   18.62
   2   3  -6  506.53   22.46
   2   3  -5  235.74    7.70
   2   3  -5  240.66   15.24
   2   3  -4 2883.20  145.60
   2   3  -4 3041.09  130.33
  -2  -3   4 2591.56  153.05
   2   3  -3    8.20    2.71
   2   3  -3    3.71    1.41
  -2  -3   3    3.77    2.09
   2   3  -2 2591.07   97.93
   2   3  -2 2607.86   99.75
  -2  -3   2 2490.93  112.31
   2   3  -1 3388.97  167.32
   2   3  -1 3265.60  144.87
  -2  -3   1 3219.74  158.36
  -2  -3   1 3376.06  141.18
   2   3   0   67.64    3.63
   2   3   0   61.60    2.39
  -2  -3   0   73.43    3.52
  -2  -3   0   61.98    2.07
   2   3   1 3021.52  134.12
   2   3   1 2962.54  128.13
  -2  -3  -1 2759.08  117.99
  -2  -3  -1 2844.50  124.52
   2   3   2 1428.22   47.37
   2   3   2 1357.04   48.31
  -2  -3  -2 1372.44   44.83
  -2  -3  -2 1406.52   44.40
   2   3   3  321.46   12.05
   2   3   3  311.14   10.08
  -2  -3  -3  318.57   12.21
  -2  -3  -3  293.06    6.61
   2   3   4  729.24   24.03
  -2  -3  -4  737.52   19.95
   2   3   5 3278.16  205.26
  -2  -3  -5 3135.63  164.57
   2   3   6 1036.38   44.58
  -2  -3  -6 1005.92   36.70
   2   3   7 1544.66   79.74
  -2  -3  -7 1419.40   74.16
   2   3   8   60.61    8.39
  -2  -3  -8   76.49    8.65
   2   3   9   63.60   12.59
  -2  -3  -9   35.14    8.56
   2   3  10  215.09   24.27
  -2  -3 -10  160.50   11.28
   2   3  11   80.09   21.20
  -2  -3 -11   68.31   13.49
   2   3  12  113.54   26.40
  -2  -3 -12  101.40   12.70
   2   3  13   88.09   27.16
  -2  -3 -13   53.87   19.01
  -2  -4  10   10.49    7.95
  -2  -4   9   58.49   14.95
  -2  -4   8  369.62   33.05
   2   4  -7    5.76    4.62
  -2  -4   7    4.36    4.48
   2   4  -6  581.71   22.48
  -2  -4   6  467.50   31.63
   2   4  -5  133.37    6.48
  -2  -4   5  117.29    6.59
   2   4  -4  389.31   12.37
   2   4  -4  474.69   18.40
  -2  -4   4  418.06   14.68
   2   4  -3  394.06   10.49
   2   4  -3  348.76   13.19
  -2  -4   3  426.52   17.15
   2   4  -2 1842.25   70.78
   2   4  -2 1672.51   65.51
  -2  -4   2 1904.75   81.58
   2   4  -1  889.27   25.27
  -2  -4   1  863.89   23.41
  -2  -4   1  847.82   24.81
   2   4   0 2732.63  123.04
  -2  -4   0 2686.58  126.38
  -2  -4   0 2700.95  118.69
   2   4   1  141.47    5.50
  -2  -4  -1  138.68    3.76
  -2  -4  -1  132.07    5.08
   2   4   2   23.38    3.51
  -2  -4  -2   22.99    1.85
  -2  -4  -2   23.19    2.05
   2   4   3    4.17    2.33
  -2  -4  -3   12.03    2.50
   2   4   4  159.16    9.19
  -2  -4  -4  129.53    4.82
   2   4   5  316.87   13.37
  -2  -4  -5  310.49   10.26
   2   4   6  288.85   13.67
  -2  -4  -6  292.11   10.92
   2   4   7  236.76   19.41
  -2  -4  -7  218.29    9.99
   2   4   8 1071.69   75.73
  -2  -4  -8 1043.18   49.18
   2   4   9   14.22    6.68
  -2  -4  -9    8.40    4.70
   2   4  10 1847.33  128.05
  -2  -4 -10 1690.34  133.54
   2   4  11   82.66   19.11
  -2  -4 -11   63.88   13.16
   2   4  12  326.04   46.05
  -2  -4 -12  306.20   33.74
   2   4  13   26.01   19.42
  -2  -4 -13   13.22    8.82
  -2  -5   9   15.67    7.34
  -2  -5   8   28.04    7.15
   2   5  -7   11.22    5.77
  -2  -5   7   19.71    8.42
   2   5  -6   37.25    5.56
  -2  -5   6   23.94    8.47
   2   5  -5   14.49    2.76
  -2  -5   5   18.55    6.29
   2   5  -4  199.60    9.31
  -2  -5   4  242.87   13.65
   2   5  -3   51.00    4.35
  -2  -5   3   57.09    4.14
   2   5  -2 3879.32  229.10
   2   5  -2 3492.59  241.07
  -2  -5   2 3863.84  225.92
   2   5  -1 4747.41  312.58
  -2  -5   1 4825.16  331.27
  -2  -5   1 4663.64  342.34
   2   5   0 3412.81  179.01
  -2  -5   0 3103.67  188.54
  -2  -5   0 3254.56  167.35
   2   5   1 4147.17  271.19
  -2  -5  -1 4274.42  263.28
  -2  -5  -1 4189.06  287.51
   2   5   2   24.97    4.26
  -2  -5  -2   30.99    3.59
   2   5   3 1065.59   41.27
  -2  -5  -3 1090.16   34.12
   2   5   4   74.83    5.22
  -2  -5  -4   67.11    3.67
   2   5   5   37.51    7.26
  -2  -5  -5   49.75    5.41
   2   5   6 1097.90   48.69
  -2  -5  -6  962.89   41.26
   2   5   7  322.98   21.84
  -2  -5  -7  223.56   10.99
   2   5   8   85.58   14.67
  -2  -5  -8   94.65    6.96
   2   5   9  363.42   35.02
  -2  -5  -9  327.75   18.59
   2   5  10  156.98   16.67
  -2  -5 -10  162.04   18.19
   2   5  11   46.59   17.26
  -2  -5 -11   36.56    7.80
   2   5  12  345.21   49.99
  -2  -5 -12  326.64   38.88
   2   5  13   15.80   11.89
  -2  -5 -13   13.36    7.93
  -2  -6   8   64.95   14.72
  -2  -6   7  222.28   23.28
   2   6  -6   29.48    6.69
  -2  -6   6   32.54    5.63
   2   6  -5   56.58    7.04
  -2  -6   5   62.41    9.17
   2   6  -4  162.20   10.39
  -2  -6   4  182.71    8.59
   2   6  -3  239.73   12.09
  -2  -6   3  257.93   14.43
   2   6  -2    5.99    3.62
  -2  -6   2    4.24    2.57
   2   6  -1   20.45    4.34
  -2  -6   1   22.72    4.34
   2   6   0  658.90   22.24
  -2  -6   0  647.72   25.13
   2   6   1 1077.53   49.55
  -2  -6  -1 1052.80   42.91
   2   6   2  248.20   13.25
  -2  -6  -2  229.65   10.61
   2   6   3 2080.09  117.12
  -2  -6  -3 2001.65   86.95
   2   6   4   77.86    6.23
  -2  -6  -4   74.49    4.41
   2   6   5 1448.63   70.56
  -2  -6  -5 1376.75   58.78
   2   6   6   18.11    4.94
  -2  -6  -6   11.61    5.08
   2   6   7  379.29   29.87
  -2  -6  -7  330.69   21.53
   2   6   8  314.02   22.46
  -2  -6  -8  336.69   23.15
   2   6   9   46.13   12.85
  -2  -6  -9   28.57    5.99
   2   6  10  117.63   16.10
  -2  -6 -10  163.51   18.26
   2   6  11   22.60   15.32
  -2  -6 -11   16.42   10.75
   2   6  12  140.88   21.01
  -2  -6 -12  124.82   21.05
   2   6  13   24.30   13.17
  -2  -6 -13   18.55    9.44
  -2  -7   7  161.66   13.11
  -2  -7   6  432.86   33.51
   2   7  -5   82.02   10.19
  -2  -7   5   84.09   11.24
   2   7  -4  193.85    9.79
  -2  -7   4  200.72   15.02
   2   7  -3    8.01    5.18
  -2  -7   3    7.46    5.28
   2   7  -2  396.97   16.58
  -2  -7   2  445.82   21.77
   2   7  -1   70.04    7.80
  -2  -7   1   74.25    6.75
   2   7   0 1465.32   80.66
  -2  -7   0 1463.80   75.58
   2   7   1  114.44    7.15
  -2  -7  -1  115.28    5.49
   2   7   2  224.56   10.85
  -2  -7  -2  223.33   11.40
   2   7   3  217.05   11.38
  -2  -7  -3  237.43   12.48
   2   7   4   14.18    6.88
  -2  -7  -4   14.98    3.10
   2   7   5  616.95   31.66
  -2  -7  -5  624.24   24.79
   2   7   6   73.18    8.30
  -2  -7  -6   80.28    8.62
   2   7   7  393.03   24.37
  -2  -7  -7  396.03   18.52
   2   7   8   65.19   14.83
  -2  -7  -8   58.77    6.87
   2   7   9  725.76   52.43
  -2  -7  -9  733.88   55.95
  -2  -7 -10    7.36    6.21
   2   7  11  458.58   42.14
  -2  -7 -11  453.13   45.61
   2   7  12   56.97   23.15
  -2  -7 -12   49.11   10.79
   2   7  13    8.28   20.11
  -2  -7 -13   12.10   12.45
   2   8  -5   14.50    7.47
  -2  -8   5    7.58    7.65
   2   8  -4   11.22    7.41
  -2  -8   4   15.95    7.00
   2   8  -3   23.80    7.16
  -2  -8   3   16.20    4.22
   2   8  -2  255.12   18.12
  -2  -8   2  224.66   16.27
   2   8  -1  583.97   29.62
  -2  -8   1  697.71   35.81
   2   8   0  668.86   44.15
  -2  -8   0  753.86   37.79
   2   8   1   30.87    7.71
  -2  -8  -1   22.83    5.88
   2   8   2   96.44   11.66
  -2  -8  -2   98.09    8.62
   2   8   3  851.72   56.78
  -2  -8  -3  850.56   45.36
   2   8   4   92.70    8.50
  -2  -8  -4   92.17    9.13
   2   8   5  694.66   38.65
  -2  -8  -5  652.74   36.91
   2   8   6  518.13   43.03
  -2  -8  -6  486.42   29.92
   2   8   7   29.65   11.41
  -2  -8  -7   20.44    5.05
   2   8   8  182.24   17.50
  -2  -8  -8  201.01   19.03
   2   8   9   31.98   18.11
  -2  -8  -9   63.13    8.14
   2   8  10   77.06   14.13
  -2  -8 -10   65.53   16.35
   2   8  11  189.74   39.08
  -2  -8 -11  211.25   20.33
   2   8  12   18.19   13.01
  -2  -8 -12   33.21   14.20
   2   8  13   77.19   32.42
  -2  -8 -13   83.77   13.60
   2   9  -4  273.25   27.20
   2   9  -3   20.44    8.87
  -2  -9   3   21.29    7.49
   2   9  -2  296.03   24.67
  -2  -9   2  272.38   23.04
   2   9  -1   24.63    8.55
  -2  -9   1   15.96    6.77
   2   9   0  157.72   11.63
  -2  -9   0  159.17    9.57
   2   9   1  140.26   16.77
  -2  -9  -1  141.81   12.46
   2   9   2  756.49   47.16
  -2  -9  -2  881.81   51.38
   2   9   3   23.63    9.03
  -2  -9  -3   12.26    6.22
   2   9   4 1417.54  107.65
  -2  -9  -4 1308.66   69.72
   2   9   5    9.97    6.13
  -2  -9  -5    6.07    3.91
   2   9   6  208.32   27.95
  -2  -9  -6  213.26   17.65
   2   9   7  116.76   13.81
  -2  -9  -7  109.87    9.20
   2   9   8    6.76    8.57
  -2  -9  -8   15.49    8.59
   2   9   9   51.10   19.79
  -2  -9  -9   63.42    8.90
   2   9  10   63.79   23.78
  -2  -9 -10   83.59   16.44
   2   9  11   11.63   12.87
  -2  -9 -11   30.89    9.11
   2   9  12   39.32   23.75
  -2  -9 -12   40.36   10.96
   2   9  13    3.44   13.41
  -2  -9 -13   15.23   14.83
   2  10  -3    6.81    9.57
   2  10  -2   19.97   10.51
   2  10  -1   31.79   11.10
  -2 -10   1   26.98    8.89
   2  10   0    7.68    9.18
  -2 -10   0    6.16    6.94
   2  10   1   99.76   15.91
  -2 -10  -1   76.04   11.20
   2  10   2  181.44   16.09
  -2 -10  -2  191.40   17.62
   2  10   3  411.06   42.40
  -2 -10  -3  430.33   31.86
   2  10   4  168.63   15.61
  -2 -10  -4  165.49   11.33
   2  10   5  226.62   28.04
  -2 -10  -5  197.12   19.55
   2  10   6   11.70    7.79
  -2 -10  -6   10.33    5.17
   2  10   7  190.00   29.62
  -2 -10  -7  167.68   19.76
   2  10   8   13.63    9.51
  -2 -10  -8   12.24    9.77
   2  10   9    2.36   14.33
  -2 -10  -9   -1.19    6.03
   2  10  10   53.85   14.32
  -2 -10 -10   31.59   14.69
   2  10  11   10.42   11.65
  -2 -10 -11    9.04   13.38
   2  10  12   12.54   18.03
  -2 -10 -12   -2.52    7.96
   2  11  -2   27.24   13.25
   2  11  -1   41.75    9.61
   2  11   0   10.58    7.45
   2  11   1   30.17    9.12
  -2 -11  -1   32.36   10.23
   2  11   2  146.05   23.60
  -2 -11  -2  134.70   12.31
   2  11   3    7.44   11.74
  -2 -11  -3    4.95    7.99
   2  11   4  324.15   43.36
  -2 -11  -4  352.61   31.60
   2  11   5  167.54   17.87
  -2 -11  -5  148.96   12.92
   2  11   6  185.54   31.68
  -2 -11  -6  175.20   22.48
   2  11   7  271.92   30.27
  -2 -11  -7  289.63   20.88
   2  11   8   16.00   10.46
  -2 -11  -8    8.96    6.96
   2  11   9   79.36   27.26
  -2 -11  -9   77.59   18.21
   2  11  10   24.26   13.11
  -2 -11 -10   22.99   14.80
   2  11  11    5.02   20.41
  -2 -11 -11   14.74   14.42
   2  12  -1   12.10   13.75
   2  12   0   22.64   15.71
   2  12   1   38.23   17.55
   2  12   2    3.09   13.70
   2  12   3    7.97   14.11
  -2 -12  -3    8.41   10.39
   2  12   4   13.26   13.35
  -2 -12  -4   -0.86    6.26
   2  12   5    5.86    8.84
  -2 -12  -5    1.82    6.65
   2  12   6   16.56   11.16
  -2 -12  -6   27.05   12.61
   2  12   7   51.02   21.43
  -2 -12  -7   35.76   14.27
   2  12   8   32.40   20.46
  -2 -12  -8   20.28   14.16
   2  12   9  168.22   30.14
  -2 -12  -9  199.24   30.91
   2  12  10    9.30   22.03
  -2 -12 -10   20.02   15.51
   2  13   2   38.91   13.20
   2  13   3   28.53   12.40
   2  13   4   44.17   14.11
   2  13   5    2.05    9.95
  -2 -13  -5   -3.47    7.39
   2  13   6   -3.04   11.43
  -2 -13  -6   11.10    7.92
   2  13   7   16.61   19.11
  -2 -13  -7    8.25    8.74
  -3  10   7   21.93   19.69
  -3  10   6    8.00    9.98
  -3  10   5   51.47   20.35
  -3  10   4    8.69    9.22
  -3  10   3   49.20   19.92
  -3  10   2   -0.23   13.22
  -3  10   1   98.55   26.17
  -3  10   0   35.41   19.45
   3  -9  -9   28.73   16.74
  -3   9   9   27.05   13.54
   3  -9  -8  144.97   28.18
  -3   9   8  151.07   33.81
  -3   9   7   38.77   19.48
  -3   9   6   68.73   13.95
  -3   9   5  129.64   17.05
  -3   9   4   66.52   18.35
  -3   9   3   93.42   13.50
  -3   9   2  405.07   49.73
  -3   9   1    7.21   12.80
  -3   9   0   77.61   21.74
  -3   9  -1   85.83   22.78
  -3   9  -2    5.39   14.40
   3  -8 -10   10.40   12.99
  -3   8  10   -8.69   17.67
   3  -8  -9   80.67   20.56
  -3   8   9   90.97   27.45
   3  -8  -8  159.32   16.19
  -3   8   8  131.05   30.77
   3  -8  -7   22.08    7.56
  -3   8   7   16.16    9.62
   3  -8  -6  182.50   23.60
  -3   8   6  185.54   19.79
   3  -8  -5  125.16   17.30
  -3   8   5  131.90   14.79
  -3   8   4   22.15   11.91
  -3   8   3   16.91   11.01
  -3   8   2  238.22   19.48
  -3   8   1   14.64   11.36
  -3   8   0  279.62   33.35
  -3   8  -1   38.72    9.91
  -3   8  -2   67.93   18.75
  -3   8  -3  218.49   34.48
  -3   8  -4   11.97    9.45
   3  -7 -11   16.35    9.53
  -3   7  11   10.15   12.24
   3  -7 -10   48.96   17.13
  -3   7  10   43.06   23.62
   3  -7  -9  192.08   28.99
  -3   7   9  230.32   40.51
   3  -7  -8    9.75    6.76
  -3   7   8   22.07   13.55
   3  -7  -7  246.37   17.43
  -3   7   7  238.65   32.98
   3  -7  -6   63.63   11.91
  -3   7   6   55.07   10.09
   3  -7  -5   30.77    8.43
  -3   7   5   19.60    7.49
   3  -7  -4  121.59   13.07
  -3   7   4  129.05   11.94
   3  -7  -3    2.09    5.00
  -3   7   3    6.32    5.20
  -3   7   2  582.91   45.28
  -3   7   1   -4.34    8.84
  -3   7   0  926.84   73.28
  -3   7  -1   86.04   10.90
  -3   7  -2  118.15   13.00
  -3   7  -3   23.92    8.20
  -3   7  -4   28.78   14.26
  -3   7  -5   86.80   14.01
  -3   7  -6   46.60   18.49
   3  -6 -11   31.34   17.05
  -3   6  11   33.71   21.29
   3  -6 -10   23.80    8.91
  -3   6  10   24.14   18.75
   3  -6  -9  342.15   38.01
  -3   6   9  365.46   49.53
   3  -6  -8    2.63    9.43
  -3   6   8   16.25   11.77
   3  -6  -7  205.31   21.48
  -3   6   7  213.01   18.37
   3  -6  -6   18.59    7.88
  -3   6   6    9.13   10.50
   3  -6  -5  184.92   16.48
  -3   6   5  219.67   21.42
   3  -6  -4   61.83    8.56
  -3   6   4   58.71    7.48
   3  -6  -3  128.69   10.00
  -3   6   3  158.42   14.93
   3  -6  -2   23.26    4.55
  -3   6   2   50.10    8.53
   3  -6  -1    1.96    1.25
  -3   6   1   24.60    4.43
  -3   6   0  780.12   38.98
  -3   6  -1  386.71   22.14
  -3   6  -2  607.64   47.12
  -3   6  -3 1469.85  120.04
  -3   6  -4  297.33   22.24
  -3   6  -5  868.29   81.01
  -3   6  -6    7.12    8.07
  -3   6  -7  195.16   33.86
   3  -5 -12   -0.36   13.81
   3  -5 -11   29.76   10.89
  -3   5  11   57.16   20.68
   3  -5 -10   81.39   17.89
  -3   5  10   65.93   14.14
   3  -5  -9  488.12   34.60
  -3   5   9  541.46   58.80
   3  -5  -8   91.61    9.99
  -3   5   8   88.91   12.25
   3  -5  -7 1459.40  107.52
  -3   5   7 1552.54  129.47
   3  -5  -6  320.49   24.81
  -3   5   6  360.71   29.92
   3  -5  -5  404.28   19.32
  -3   5   5  445.11   32.20
   3  -5  -4  954.93   50.86
  -3   5   4  896.03   45.79
   3  -5  -3  283.41   14.71
  -3   5   3  265.05   19.01
   3  -5  -2    6.64    3.58
  -3   5   2   13.81    3.84
  -3   5   2   12.23    3.39
   3  -5  -1  377.54   11.97
  -3   5   1  351.51   12.33
  -3   5   1  463.75   18.17
  -3   5   0   95.06    7.41
  -3   5  -1    9.24    7.02
  -3   5  -2  126.28    9.83
  -3   5  -3   32.77    6.44
  -3   5  -4  157.34   12.99
  -3   5  -5  277.53   29.81
  -3   5  -6   -4.05    6.56
  -3   5  -7  234.24   21.84
  -3   5  -8   22.75   15.51
   3  -4 -12    6.00    9.43
   3  -4 -10   18.72    7.79
  -3   4  10    7.47    8.61
   3  -4  -9   15.99   10.21
  -3   4   9    1.95   11.35
   3  -4  -8   37.00   11.36
  -3   4   8   54.03   12.82
   3  -4  -7   57.63    9.67
  -3   4   7   33.37    6.94
   3  -4  -6  468.68   31.60
  -3   4   6  494.57   25.58
   3  -4  -5  345.29   21.24
  -3   4   5  344.61   23.74
   3  -4  -4 1455.13   62.16
  -3   4   4 1293.78   78.87
   3  -4  -3  641.71   27.18
  -3   4   3  573.99   31.59
   3  -4  -2  855.65   32.88
  -3   4   2  863.42   41.91
   3  -4  -1  228.82    7.81
  -3   4   1  246.62    9.74
  -3   4   1  228.62    7.89
  -3   4   0 1027.59   24.84
  -3   4   0  959.28   37.79
  -3   4   0  910.66   24.41
  -3   4  -1    3.70    3.51
  -3   4  -2 2275.86  144.01
  -3   4  -3  350.25   25.35
  -3   4  -4   24.15    9.13
  -3   4  -5  633.94   49.17
  -3   4  -6   10.95    9.56
  -3   4  -7  383.72   25.76
  -3   4  -8   12.94    7.77
  -3   4  -9   70.27   13.01
   3  -3 -12   73.37   24.52
   3  -3 -11   58.43   18.81
   3  -3 -10  244.40   21.61
  -3   3  10  222.34   32.11
   3  -3  -9   13.27    9.91
  -3   3   9   -0.36    9.59
   3  -3  -8  483.26   38.47
  -3   3   8  442.41   37.01
   3  -3  -7  135.91    9.82
  -3   3   7  142.83   14.74
   3  -3  -6   91.44    7.32
  -3   3   6   99.21    7.09
   3  -3  -5 1890.09  110.50
  -3   3   5 1836.21  113.89
   3  -3  -4  984.52   38.51
  -3   3   4 1015.72   50.13
   3  -3  -3  362.33   11.52
  -3   3   3  311.83   11.49
   3  -3  -2  318.78   11.39
  -3   3   2  275.41   13.50
   3  -3  -1    6.07    1.53
  -3   3   1    4.83    3.66
  -3   3   1    2.66    2.25
  -3   3   0   29.89    5.39
  -3   3   0   34.09    2.17
  -3   3   0   34.95    2.12
  -3   3  -1  771.72   15.89
  -3   3  -1  746.50   33.30
  -3   3  -1  689.33   14.59
  -3   3  -2  629.07   31.73
  -3   3  -3  317.72   19.74
  -3   3  -4  630.45   35.63
   3  -3   7   18.68    8.45
   3  -3   8   25.15    9.99
   3  -3   9   23.21   11.10
   3  -3  10   11.49   11.16
   3  -2 -12   42.02   19.40
   3  -2 -11   11.38    9.10
   3  -2 -10    4.82   11.57
   3  -2  -9   32.63   11.03
  -3   2   9    6.31    9.53
   3  -2  -8   54.64    7.97
  -3   2   8   58.54   10.38
   3  -2  -7   80.38    7.70
  -3   2   7   90.89   10.09
   3  -2  -6  215.64   11.22
  -3   2   6  202.34    9.76
   3  -2  -5 2590.92  160.70
  -3   2   5 2474.35  136.37
   3  -2  -4  294.25   11.11
  -3   2   4  275.73   13.48
   3  -2  -3  474.04   14.59
  -3   2   3  457.47   17.87
   3  -2  -2 1994.11   79.83
  -3   2   2 1973.51   87.74
  -3   2   1  458.50   16.01
  -3   2   1  506.47   14.91
  -3   2   0 3473.51  187.03
  -3   2   0 3580.07  177.00
  -3   2   0 3475.53  176.92
  -3   2  -1  352.57    8.88
  -3   2  -1  361.07   14.83
  -3   2  -1  344.22    8.52
  -3   2  -2 2243.89   80.85
  -3   2  -2 2331.82  120.91
  -3   2  -2 2464.31   85.75
  -3   2  -3   29.17    1.66
   3  -2   4 2993.05  174.89
   3  -2   4 2552.89  107.84
  -3   2  -4 2899.34  120.04
   3  -2   5   35.34    2.94
   3  -2   5   39.39    6.74
  -3   2  -5   36.58    2.68
   3  -2   6 1143.83   76.63
  -3   2  -6  942.32   39.71
   3  -2   7    9.89   10.27
  -3   2  -7    7.08    3.51
   3  -2   8  292.06   35.87
   3  -2   9   69.45   20.71
   3  -2  10   31.68   12.11
   3  -2  11   50.46   15.49
   3  -1 -12  159.45   32.64
   3  -1 -11  169.07   20.28
   3  -1 -10   70.14   17.76
   3  -1  -9  282.66   29.85
  -3   1   9  241.19   22.44
   3  -1  -8   46.89   11.46
  -3   1   8   33.80    7.96
   3  -1  -7  427.67   21.31
  -3   1   7  356.90   22.11
   3  -1  -6  675.03   39.12
   3  -1  -6 1000.59   52.32
  -3   1   6  915.17   41.04
   3  -1  -5  724.21   35.79
   3  -1  -5 1025.38   45.70
  -3   1   5  889.94   35.85
   3  -1  -4  626.51   23.25
   3  -1  -4  726.50   31.07
  -3   1   4  741.91   24.45
   3  -1  -3 1219.53   52.53
   3  -1  -3 1288.16   46.57
  -3   1   3 1336.78   48.07
   3  -1  -2  221.14    8.72
   3  -1  -2  202.98    6.98
  -3   1   2  235.85    7.42
  -3   1   1  106.21    5.93
  -3   1   1  111.28    4.52
  -3   1   1  101.57    3.23
  -3   1   1  113.10    5.10
  -3   1   0  142.01    6.00
  -3   1   0  152.27    4.91
  -3   1   0  149.53    5.43
  -3   1   0  154.20    8.25
  -3   1  -1    6.19    1.70
  -3   1  -1    6.27    2.66
  -3   1  -1    4.16    1.79
   3  -1   2  674.71   29.51
   3  -1   2  668.26   16.18
  -3   1  -2  716.57   18.62
   3  -1   3  124.43    6.76
   3  -1   3  121.06    3.74
  -3   1  -3  115.01    3.32
   3  -1   4 1692.61   68.08
   3  -1   4 1583.85   98.79
  -3   1  -4 1749.26   62.79
   3  -1   5  655.18   23.97
   3  -1   5  743.59   46.90
  -3   1  -5  711.98   23.89
   3  -1   6  202.76   10.59
   3  -1   6  269.63   22.93
  -3   1  -6  235.24    9.37
   3  -1   7 1283.29   99.07
  -3   1  -7 1254.85   62.56
   3  -1   8   63.28   15.31
  -3   1  -8   46.86    7.25
   3  -1   9  935.07   78.13
  -3   1  -9  651.42   48.55
   3  -1  10   14.30   10.38
   3  -1  11  -24.83   20.03
   3   0 -11   30.65   16.11
   3   0 -10    8.86    7.15
   3   0  -9   58.72   14.24
   3   0  -8   75.31   12.78
  -3   0   8   62.66    8.03
   3   0  -7  430.55   28.61
  -3   0   7  358.61   22.91
   3   0  -6   53.68    8.98
   3   0  -6   47.98    4.82
  -3   0   6   63.30    4.93
   3   0  -5 1855.67   97.36
   3   0  -5 2310.74  109.89
  -3   0   5 2152.74   99.29
   3   0  -4   23.88    2.25
   3   0  -4   37.19    3.71
  -3   0   4   29.64    2.60
   3   0  -3 6511.55  537.77
   3   0  -3 7077.78  520.08
  -3   0   3 7221.98  539.74
  -3   0   2 1629.49   52.41
  -3   0   2 1559.63   52.57
  -3   0   1  956.27   25.70
  -3   0   1  955.09   32.53
  -3   0   1 1088.33   31.47
  -3   0   1 1008.47   26.74
  -3   0   0 2163.63   83.18
  -3   0   0 2157.91   87.91
  -3   0   0 2296.59   87.97
  -3   0   0 2136.91   82.22
   3   0   1  134.77    4.66
   3   0   1  137.38    6.74
  -3   0  -1  138.54    4.66
  -3   0  -1  140.49    5.05
   3   0   2  848.16   23.73
   3   0   2  791.26   33.31
  -3   0  -2  830.65   22.89
   3   0   3  432.44   15.64
   3   0   3  464.47   12.66
  -3   0  -3  435.13   11.03
   3   0   4   20.48    2.58
   3   0   4   11.97    6.51
  -3   0  -4   13.82    2.48
   3   0   5  552.78   21.79
   3   0   5  657.19   28.75
  -3   0  -5  686.93   22.55
   3   0   6  602.63   30.74
  -3   0  -6  569.67   19.33
   3   0   7    0.50    5.95
  -3   0  -7    7.43    4.32
   3   0   8 1567.76   90.05
  -3   0  -8 1222.46   67.12
   3   0   9  867.76   70.53
  -3   0  -9  598.86   31.98
   3   0  10  322.07   36.79
  -3   0 -10  212.21   23.05
   3   0  11  344.91   52.18
   3   0  12   15.00   12.16
   3   1 -11   22.86   15.69
   3   1 -10  232.78   32.66
   3   1  -9   27.34    7.75
   3   1  -8    3.02    5.38
  -3  -1   8    3.99    5.15
   3   1  -7   15.74    5.00
  -3  -1   7    7.94    4.97
   3   1  -6  167.39    9.85
   3   1  -6  162.95    9.35
  -3  -1   6  164.30    6.77
   3   1  -5    3.41    2.16
   3   1  -5    9.09    5.25
  -3  -1   5    3.97    2.36
   3   1  -4  961.80   21.64
   3   1  -4 1084.63   46.79
  -3  -1   4  989.85   23.75
  -3  -1   3  650.24   10.80
  -3  -1   2  523.59   14.97
  -3  -1   2  498.05    9.49
  -3  -1   2  548.49    9.50
  -3  -1   1 2473.99   97.30
  -3  -1   1 2681.77   97.95
  -3  -1   1 2622.97  124.27
   3   1   0 3223.77  160.65
   3   1   0 3062.34  140.59
  -3  -1   0 3069.86  152.42
  -3  -1   0 3270.19  151.97
   3   1   1 2833.31  136.91
   3   1   1 2968.16  141.37
  -3  -1  -1 2847.40  134.19
  -3  -1  -1 2979.49  138.63
   3   1   2 3125.33  152.15
   3   1   2 3161.12  173.33
  -3  -1  -2 3050.84  143.89
  -3  -1  -2 3179.29  161.39
   3   1   3  123.96    5.33
   3   1   3  138.47    8.74
  -3  -1  -3  137.82    4.80
   3   1   4   40.05    2.39
   3   1   4   47.53    4.58
  -3  -1  -4   52.85    3.55
   3   1   5  461.62   19.78
  -3  -1  -5  472.17   16.50
   3   1   6   26.55    5.77
  -3  -1  -6   29.25    2.97
   3   1   7  561.64   29.84
  -3  -1  -7  562.53   28.48
   3   1   8   70.83   14.21
  -3  -1  -8   54.98    8.01
   3   1   9  544.31   33.21
  -3  -1  -9  428.52   29.30
   3   1  10    6.96   14.69
  -3  -1 -10   16.84    5.18
   3   1  11  346.94   32.80
  -3  -1 -11  268.57   30.80
   3   1  12   31.05   13.53
  -3  -1 -12   22.97   13.92
   3   2 -11   25.64   11.22
   3   2 -10  471.12   56.62
   3   2  -9  191.52   25.81
   3   2  -8  290.08   28.39
   3   2  -7  290.85   23.78
  -3  -2   7  285.82   11.89
   3   2  -6   40.87    5.88
  -3  -2   6   42.09    3.18
   3   2  -5  175.63    9.24
   3   2  -5  169.60    5.13
  -3  -2   4    5.81    2.96
  -3  -2   3  217.75    8.10
  -3  -2   2  507.93   15.60
  -3  -2   1 3826.70  243.88
  -3  -2   1 4413.52  202.81
  -3  -2   1 4442.27  196.89
   3   2   0  622.29   14.49
  -3  -2   0  629.71   16.56
  -3  -2   0  607.67   19.86
   3   2   1 4938.73  309.26
  -3  -2  -1 4956.32  317.35
  -3  -2  -1 4834.67  302.21
   3   2   2  528.43   15.01
   3   2   2  505.00   16.15
  -3  -2  -2  498.49   15.28
  -3  -2  -2  555.38   19.48
   3   2   3 2641.62  144.41
  -3  -2  -3 2633.45  122.89
   3   2   4 1146.85   57.71
  -3  -2  -4 1344.20   48.98
   3   2   5  527.15   30.06
  -3  -2  -5  475.08   18.09
   3   2   6 1556.73   79.99
  -3  -2  -6 1541.14   71.49
   3   2   7  572.50   41.02
  -3  -2  -7  519.39   26.76
   3   2   8 1195.73   69.46
  -3  -2  -8 1135.99   56.52
   3   2   9   20.51   12.32
  -3  -2  -9   13.43    4.48
   3   2  10  137.72   23.25
  -3  -2 -10   90.86    8.58
   3   2  11  239.18   24.07
  -3  -2 -11  208.27   23.90
   3   2  12   95.69   17.78
  -3  -2 -12   95.31   19.27
   3   2  13   57.41   19.77
  -3  -2 -13  -17.95    8.00
  -3  -3  10  110.96   14.82
  -3  -3   9   15.23    7.02
  -3  -3   8  283.91   19.06
  -3  -3   7    9.32    4.87
   3   3  -6  326.79    9.45
  -3  -3   6  335.01   23.07
   3   3  -5   50.13    2.89
  -3  -3   5   49.79    5.32
  -3  -3   4  779.50   38.66
  -3  -3   3   82.80    5.05
  -3  -3   2  660.97   26.88
   3   3  -1 1607.45   44.16
  -3  -3   1 1623.25   41.71
  -3  -3   1 1698.91   63.27
   3   3   0  750.52   21.52
  -3  -3   0  745.93   21.89
  -3  -3   0  776.43   19.74
   3   3   1  110.56    4.81
  -3  -3  -1  112.29    4.52
  -3  -3  -1  116.69    3.91
   3   3   2 3418.56  193.39
  -3  -3  -2 3363.84  176.40
  -3  -3  -2 3594.58  196.48
   3   3   3  862.79   29.60
  -3  -3  -3  882.76   26.51
   3   3   4 3630.00  244.14
  -3  -3  -4 3848.46  230.25
   3   3   5 1632.95   90.41
  -3  -3  -5 1592.82   63.83
   3   3   6  104.95    8.00
  -3  -3  -6  107.26    5.24
   3   3   7    6.01    7.99
  -3  -3  -7    5.22    4.62
   3   3   8  755.00   52.19
  -3  -3  -8  612.77   27.78
   3   3   9  148.10   20.38
  -3  -3  -9  114.61   14.03
   3   3  10  691.36   69.23
  -3  -3 -10  570.20   44.02
   3   3  11   85.05   14.28
  -3  -3 -11   77.38    9.24
   3   3  12  165.07   24.47
  -3  -3 -12  154.09   23.56
   3   3  13  167.14   24.93
  -3  -3 -13  143.40   28.30
  -3  -4  10   54.69   18.69
  -3  -4   9   43.31   14.99
  -3  -4   8  416.57   40.49
  -3  -4   7  612.45   48.03
  -3  -4   6  100.99    8.42
   3   4  -5  422.56   13.89
  -3  -4   5  615.64   30.87
   3   4  -4  175.37    7.33
  -3  -4   4  188.59   13.81
   3   4  -3 1171.82   33.38
   3   4  -3  997.24   31.89
  -3  -4   3 1266.58   46.49
   3   4  -2 1330.62   39.92
   3   4  -2 1405.31   41.27
  -3  -4   2 1605.84   69.85
   3   4  -1 1271.17   37.81
  -3  -4   1 1218.47   32.77
  -3  -4   1 1246.97   53.23
   3   4   0 1914.08   76.09
  -3  -4   0 2091.03   88.15
  -3  -4   0 2126.97   79.11
   3   4   1 3908.83  229.85
  -3  -4  -1 4010.16  234.25
  -3  -4  -1 4114.34  240.40
   3   4   2  337.10   13.10
  -3  -4  -2  344.11   12.77
  -3  -4  -2  333.82   12.29
   3   4   3 1646.47   68.02
  -3  -4  -3 1705.03   65.57
   3   4   4  880.30   34.13
  -3  -4  -4  879.36   28.07
   3   4   5    5.49    3.81
  -3  -4  -5    7.91    2.55
   3   4   6 1367.96   68.26
  -3  -4  -6 1375.89   58.00
   3   4   7   35.86    6.50
  -3  -4  -7   24.67    6.31
   3   4   8  772.66   41.93
  -3  -4  -8  638.20   40.43
   3   4   9    4.18    6.27
  -3  -4  -9   -1.09    4.13
   3   4  10  173.89   17.95
  -3  -4 -10  147.32   18.91
   3   4  11   90.37   15.48
  -3  -4 -11  110.32   17.22
   3   4  12   19.61   11.88
  -3  -4 -12   17.11    7.38
   3   4  13   97.80   20.99
  -3  -4 -13  110.60   21.77
  -3  -5   9  222.36   34.19
  -3  -5   8   35.53   13.51
  -3  -5   7    8.54    9.37
  -3  -5   6   27.94    6.02
   3   5  -5  204.41    9.75
  -3  -5   5  344.60   19.08
   3   5  -4    6.35    2.58
  -3  -5   4   10.80    5.98
   3   5  -3  667.86   28.82
  -3  -5   3  822.57   31.20
   3   5  -2    8.89    2.49
   3   5  -2   16.07    2.76
  -3  -5   2   15.69    5.03
   3   5  -1  244.81   10.39
  -3  -5   1  255.88   12.30
  -3  -5   1  211.25    7.05
   3   5   0    9.02    3.86
  -3  -5   0    9.39    2.62
  -3  -5   0   10.82    4.09
   3   5   1  936.92   34.94
  -3  -5  -1  886.10   28.53
  -3  -5  -1  825.11   27.42
   3   5   2    8.17    3.96
  -3  -5  -2   13.77    2.51
   3   5   3  219.37   12.20
  -3  -5  -3  206.18    7.47
   3   5   4  468.61   18.06
  -3  -5  -4  427.58   14.29
   3   5   5    8.39    4.09
  -3  -5  -5   11.43    4.33
   3   5   6  771.59   45.92
  -3  -5  -6  687.90   28.30
   3   5   7   21.34    9.51
  -3  -5  -7   18.05    6.15
   3   5   8   12.48    6.33
  -3  -5  -8    7.89    4.06
   3   5   9   30.67    9.01
  -3  -5  -9   32.78    8.94
   3   5  10  329.25   27.76
  -3  -5 -10  300.56   30.05
   3   5  11  199.98   21.98
  -3  -5 -11  170.29   24.64
   3   5  12  474.36   45.80
  -3  -5 -12  436.65   34.72
   3   5  13  261.32   51.84
  -3  -5 -13  270.97   39.82
  -3  -6   8  116.51   21.86
  -3  -6   7   15.16   10.50
  -3  -6   6  311.62   20.58
  -3  -6   5   22.03    8.74
   3   6  -4  152.02    9.55
  -3  -6   4  231.18   15.76
   3   6  -3    7.29    3.69
  -3  -6   3    8.27    5.87
   3   6  -2  182.26    9.81
  -3  -6   2  194.49   12.91
   3   6  -1  658.02   29.64
  -3  -6   1  682.21   25.51
   3   6   0  475.20   21.25
  -3  -6   0  445.17   20.05
  -3  -6   0  502.00   17.12
   3   6   1 2674.15  163.63
  -3  -6  -1 2801.12  161.23
   3   6   2  175.84   11.65
  -3  -6  -2  174.72    6.96
   3   6   3 3947.74  303.46
  -3  -6  -3 4107.46  290.82
   3   6   4  797.85   34.17
  -3  -6  -4  759.91   27.72
   3   6   5 1017.29   59.99
  -3  -6  -5  950.95   47.87
   3   6   6  765.23   40.28
  -3  -6  -6  784.91   33.99
   3   6   7   18.16    8.53
  -3  -6  -7    1.96    3.52
   3   6   8  274.96   19.98
  -3  -6  -8  244.05   14.11
   3   6   9   51.81   11.37
  -3  -6  -9   63.17    7.40
   3   6  10   39.28   10.38
  -3  -6 -10   28.60   11.08
   3   6  11   19.41   17.06
  -3  -6 -11   19.85   11.89
   3   6  12   90.76   25.12
  -3  -6 -12   58.24   11.17
   3   6  13   29.44   20.68
  -3  -6 -13   11.96   13.40
  -3  -7   8   41.12   15.11
  -3  -7   7   44.98   14.07
  -3  -7   6  272.99   19.47
  -3  -7   5   -5.05    7.90
   3   7  -4   22.41    5.84
  -3  -7   4   35.92    8.55
   3   7  -3   28.59    5.80
  -3  -7   3   31.86    8.00
   3   7  -2  133.99   10.85
  -3  -7   2  144.39    8.64
   3   7  -1  163.09   12.61
  -3  -7   1  184.58   12.95
   3   7   0  104.26    9.36
  -3  -7   0   97.24    8.83
   3   7   1   98.45    9.98
  -3  -7  -1  119.85    9.40
   3   7   2    5.66    5.53
  -3  -7  -2    6.47    2.88
   3   7   3  342.18   23.12
  -3  -7  -3  335.26   13.09
   3   7   4  370.12   17.93
  -3  -7  -4  336.23   17.99
   3   7   5 1801.66  124.39
  -3  -7  -5 1774.07  108.51
   3   7   6  619.77   34.91
  -3  -7  -6  607.72   35.84
   3   7   7  749.89   57.46
  -3  -7  -7  646.50   42.39
   3   7   8  454.84   30.80
  -3  -7  -8  443.80   33.28
   3   7   9    9.11    8.08
  -3  -7  -9   20.49    8.34
   3   7  10  318.04   42.37
  -3  -7 -10  266.48   19.96
   3   7  11   29.73   18.33
  -3  -7 -11   27.00   13.35
   3   7  12  234.17   30.10
  -3  -7 -12  198.47   32.32
   3   7  13  -11.87   12.21
  -3  -7 -13   13.22    8.60
  -3  -8   6  244.60   28.65
  -3  -8   5   10.84    9.45
  -3  -8   4  770.19   59.50
   3   8  -3   41.05    8.68
  -3  -8   3   57.79    9.89
   3   8  -2  701.47   50.72
  -3  -8   2  836.17   40.98
   3   8  -1  112.30    8.57
  -3  -8   1  123.89   11.47
   3   8   0  383.78   27.71
  -3  -8   0  398.28   17.89
   3   8   1    4.88    6.58
  -3  -8  -1    6.97    3.36
   3   8   2   14.31    4.86
  -3  -8  -2   20.76    4.00
   3   8   3  127.47   14.90
  -3  -8  -3  130.72    7.55
   3   8   4   15.65    7.87
  -3  -8  -4    2.15    3.59
   3   8   5  361.39   22.36
  -3  -8  -5  375.64   17.47
   3   8   6   92.63   16.45
  -3  -8  -6  108.01    7.66
   3   8   7   36.52    8.71
  -3  -8  -7   40.63    8.88
   3   8   8  330.77   37.62
  -3  -8  -8  324.66   27.90
   3   8   9   84.92   21.92
  -3  -8  -9   95.76    9.91
   3   8  10   46.92   12.33
  -3  -8 -10   46.48   13.57
   3   8  11   81.36   23.61
  -3  -8 -11   51.34   16.39
   3   8  12   90.56   28.89
  -3  -8 -12   65.52   13.09
   3   8  13   19.19   24.87
  -3  -8 -13   33.08   16.42
  -3  -9   5   11.41    6.21
  -3  -9   4    7.43    8.86
  -3  -9   3  168.05   18.41
   3   9  -2   22.65    9.24
  -3  -9   2   24.10    8.54
   3   9  -1   87.01    8.85
  -3  -9   1   83.12    7.73
   3   9   0   46.99   11.70
  -3  -9   0   68.75    9.80
   3   9   1   95.41   14.02
  -3  -9  -1   86.91   11.08
   3   9   2  263.01   24.44
  -3  -9  -2  254.57   13.11
   3   9   3  130.89   12.29
  -3  -9  -3  143.87   12.53
   3   9   4  450.20   39.63
  -3  -9  -4  425.81   29.12
   3   9   5  839.75   73.30
  -3  -9  -5  847.33   55.88
   3   9   6   45.29   16.03
  -3  -9  -6   66.39    6.80
   3   9   7  107.54   21.17
  -3  -9  -7  119.93   14.43
   3   9   8  768.08   60.57
  -3  -9  -8  833.48   63.58
   3   9   9   11.27   13.25
  -3  -9  -9    3.00    5.68
   3   9  10  235.58   42.86
  -3  -9 -10  243.14   30.73
   3   9  11   11.72   10.51
  -3  -9 -11    1.15    7.28
   3   9  12   35.46   23.94
  -3  -9 -12   27.59   16.78
  -3 -10   3    8.53    9.03
  -3 -10   2  214.49   24.71
   3  10  -1  133.43   19.95
  -3 -10   1  131.92   10.99
   3  10   0   20.36   11.80
  -3 -10   0   39.09    9.46
   3  10   1  221.82   26.60
  -3 -10  -1  211.25   20.39
   3  10   2   13.24    7.01
  -3 -10  -2   16.75    5.06
   3  10   3   14.53   10.51
  -3 -10  -3    6.80    7.93
   3  10   4   67.85   16.88
  -3 -10  -4   67.55   11.65
   3  10   5   26.05    8.49
  -3 -10  -5   15.49    5.32
   3  10   6  134.08   24.01
  -3 -10  -6  125.70   16.21
   3  10   7  112.15   22.26
  -3 -10  -7   77.06    9.27
   3  10   8   -2.82    8.71
  -3 -10  -8   17.56    9.45
   3  10   9   18.16   16.18
  -3 -10  -9   10.13    6.71
   3  10  10   51.33   22.24
  -3 -10 -10   33.89   15.02
   3  10  11    4.70   11.46
  -3 -10 -11   -6.82    7.65
   3  10  12   30.77   14.85
  -3 -10 -12   21.30   10.72
   3  11  -1   26.96   12.64
  -3 -11   1   14.74   10.33
   3  11   0   15.86   13.42
  -3 -11   0   22.98    9.96
   3  11   1  111.74   21.56
  -3 -11  -1  103.74   10.54
   3  11   2   12.40   12.90
  -3 -11  -2   19.76    8.91
   3  11   3  294.58   26.85
  -3 -11  -3  276.42   28.75
   3  11   4   17.52    9.15
  -3 -11  -4   24.12   10.39
   3  11   5  334.99   45.65
  -3 -11  -5  323.43   32.74
   3  11   6   29.21   15.37
  -3 -11  -6   14.67    6.58
   3  11   7  511.75   49.68
  -3 -11  -7  503.66   48.72
   3  11   8   76.54   27.18
  -3 -11  -8   87.49   11.71
   3  11   9   69.89   27.86
  -3 -11  -9   91.42   12.13
   3  11  10   58.54   26.94
  -3 -11 -10   63.16   18.35
   3  11  11   26.04   13.65
  -3 -11 -11    5.31    8.96
   3  12   0   15.28    9.11
   3  12   1    9.71   13.19
  -3 -12  -1    1.18   10.33
   3  12   2   29.68   16.22
  -3 -12  -2   22.37   11.89
   3  12   3   11.97   14.71
  -3 -12  -3    8.57    6.87
   3  12   4    1.95   10.00
  -3 -12  -4   20.42   10.52
   3  12   5   31.83   12.12
  -3 -12  -5   28.65   13.00
   3  12   6    2.43   10.99
  -3 -12  -6   18.84   11.18
   3  12   7  113.17   31.54
  -3 -12  -7  108.18   14.22
   3  12   8   39.40   23.11
  -3 -12  -8   26.05   14.89
   3  12   9  200.95   29.52
  -3 -12  -9  181.25   32.15
   3  12  10   19.81   17.58
  -3 -12 -10   72.82   18.50
   3  13   2   54.45   14.32
   3  13   3   60.42   16.20
  -3 -13  -3   83.09   17.35
   3  13   4   10.69   11.08
  -3 -13  -4    6.49   12.40
   3  13   5   13.93   12.62
  -3 -13  -5   24.69   13.73
   3  13   6   -3.44   11.30
  -3 -13  -6    5.89   12.32
   3  13   7    6.00   12.53
  -3 -13  -7   12.54   13.49
   3  13   8    1.47   11.97
  -3 -13  -8    0.18    7.75
  -4   9   6   24.40   18.33
  -4   9   5   22.71   10.93
  -4   9   4   46.00   18.87
  -4   9   3   27.85   10.80
  -4   9   2   11.30   14.86
  -4   9   1   77.56   23.58
  -4   9   0   17.09   16.69
   4  -8  -8   97.58   24.75
  -4   8   8   94.88   27.75
  -4   8   7   36.91   18.73
  -4   8   6  174.78   32.55
  -4   8   5   33.34   16.03
  -4   8   4  156.51   17.42
  -4   8   3    6.34   11.78
  -4   8   2  126.52   15.50
  -4   8   1    0.43   11.72
  -4   8   0  188.08   30.91
  -4   8  -1    3.74   13.38
  -4   8  -2   16.68   15.18
  -4   8  -3   42.97   19.77
   4  -7  -9   26.71   16.38
  -4   7   9   32.05   19.84
   4  -7  -8   57.25   17.42
  -4   7   8   38.90   12.97
   4  -7  -7   19.10   12.93
  -4   7   7   11.21    9.15
   4  -7  -6  278.97   23.97
  -4   7   6  279.49   37.16
   4  -7  -5  157.31   21.04
  -4   7   5  184.22   25.46
  -4   7   4   23.91   12.19
  -4   7   3  680.69   46.63
  -4   7   2   35.70   12.88
  -4   7   1  336.11   37.53
  -4   7   0    6.01   11.22
  -4   7  -1   36.48   14.80
  -4   7  -2   96.25   20.95
  -4   7  -3  207.93   32.22
  -4   7  -4   20.04   15.52
   4  -6 -10    2.92   13.63
   4  -6  -9  135.25   26.14
  -4   6   9  141.20   32.48
   4  -6  -8    0.61   11.65
  -4   6   8   12.67    8.90
   4  -6  -7  207.48   29.72
  -4   6   7  254.40   33.41
   4  -6  -6   49.26    8.11
  -4   6   6   25.83    9.00
   4  -6  -5   51.36   11.92
  -4   6   5   55.19    8.79
   4  -6  -4   48.86   10.03
  -4   6   4   64.14   12.59
   4  -6  -3   22.86    6.68
  -4   6   3   42.85   10.40
  -4   6   2  223.23   23.34
  -4   6   1   81.65    9.12
  -4   6   0    5.57    8.96
  -4   6  -1  172.04   14.82
  -4   6  -2   11.76    6.83
  -4   6  -3  674.04   46.44
  -4   6  -4   48.67   16.36
  -4   6  -5  117.21   24.46
  -4   6  -6   84.59   23.79
   4  -5 -10   63.58   13.49
   4  -5  -9   67.28   18.82
  -4   5   9   64.00   21.36
   4  -5  -8  142.62   23.25
  -4   5   8  160.62   26.82
   4  -5  -7  113.39   12.64
  -4   5   7  116.85   20.29
   4  -5  -6  289.66   28.73
  -4   5   6  279.55   31.49
   4  -5  -5   26.35    6.00
  -4   5   5   30.63   10.28
   4  -5  -4  639.01   31.59
  -4   5   4  598.10   44.41
   4  -5  -3   51.56    7.70
  -4   5   3   66.00   10.40
  -4   5   2   94.78    8.28
  -4   5   1  177.06    8.94
  -4   5   1   72.56    5.37
  -4   5   0   24.80    8.82
  -4   5  -1  187.15   12.97
  -4   5  -2   35.93   11.48
  -4   5  -3  493.79   43.87
  -4   5  -4  508.13   33.99
  -4   5  -5  727.97   49.79
  -4   5  -6   11.39   13.38
  -4   5  -7  487.43   60.78
   4  -4 -11   18.11   16.66
   4  -4 -10   50.65   18.81
   4  -4  -9   43.19   15.98
   4  -4  -8   10.55    7.04
  -4   4   8   13.36    7.28
   4  -4  -7  304.35   30.65
  -4   4   7  284.50   22.54
   4  -4  -6   23.74    9.78
  -4   4   6   29.34    6.65
   4  -4  -5  412.47   29.64
  -4   4   5  387.65   22.88
   4  -4  -4 1204.02   72.59
  -4   4   4 1156.94   62.01
   4  -4  -3   57.80    7.34
  -4   4   3   50.06    5.62
  -4   4   2  831.32   48.40
  -4   4   1  323.99   18.39
  -4   4   1  259.63   10.30
  -4   4   1  243.74   13.37
  -4   4   0   27.69    2.68
  -4   4   0   36.89    7.41
  -4   4  -1  248.44   20.19
  -4   4  -2  327.07   17.68
  -4   4  -3   22.00    5.95
  -4   4  -4   61.03    8.75
  -4   4  -5   49.70   14.37
  -4   4  -6  373.18   28.35
  -4   4  -7  166.01   27.84
  -4   4  -8  303.54   43.82
   4  -3 -11   82.20   24.76
   4  -3 -10   15.60    9.33
   4  -3  -9   23.71    8.47
   4  -3  -8   58.91    9.75
  -4   3   8   63.82   14.33
   4  -3  -7    7.98    5.48
  -4   3   7   -2.44    8.53
   4  -3  -6  164.28   18.15
  -4   3   6  167.74   16.76
   4  -3  -5   42.58    9.20
  -4   3   5   47.96    8.84
   4  -3  -4  895.58   50.69
  -4   3   4  849.00   49.27
   4  -3  -3   37.48    4.15
  -4   3   3   41.22    6.46
  -4   3   2 2298.98  118.59
  -4   3   1   21.69    5.36
  -4   3   1   16.83    2.24
  -4   3   0 1889.09   81.96
  -4   3   0 1991.88   93.93
  -4   3   0 1876.27   83.13
  -4   3  -1  203.14    6.01
  -4   3  -1  189.39    9.28
  -4   3  -1  170.57    5.20
  -4   3  -2 1304.87   76.54
  -4   3  -3   85.60   11.99
  -4   3  -4  939.66   62.79
  -4   3  -5  351.06   30.82
  -4   3  -6   45.05    7.73
  -4   3  -7  281.95   20.26
  -4   3  -8  264.20   21.27
  -4   3  -9   24.16    9.00
   4  -2 -11  154.86   21.51
   4  -2 -10   20.02    9.34
   4  -2  -9  233.55   31.56
   4  -2  -8   79.33   16.11
   4  -2  -7  108.01   15.16
  -4   2   7   89.26   12.64
   4  -2  -6   46.37    6.45
  -4   2   6   40.33    8.29
   4  -2  -5   38.79    8.17
  -4   2   5   28.57    6.76
   4  -2  -4   21.52    6.74
  -4   2   4   24.17    3.68
   4  -2  -3   24.40    6.00
  -4   2   3   26.71    4.97
  -4   2   2 1178.54   43.90
  -4   2   2 1175.11   49.92
  -4   2   1  543.29   23.34
  -4   2   1  573.26   21.05
  -4   2   0  282.49   13.51
  -4   2   0  284.49    9.92
  -4   2   0  276.13   10.60
  -4   2  -1 2867.79  137.57
  -4   2  -1 2700.28  161.30
  -4   2  -1 2663.57  127.75
  -4   2  -2   12.00    2.16
  -4   2  -2    5.33    5.63
  -4   2  -2    6.18    2.63
  -4   2  -3  299.91   17.27
  -4   2  -3  267.43    6.59
  -4   2  -4   12.97    1.90
   4  -2   5    4.98    6.03
   4  -2   6  188.70   17.48
   4  -2   7  375.08   44.76
   4  -2   8   27.73   16.95
   4  -2   9  449.19   63.27
   4  -2  10   63.20   25.66
   4  -1 -11  212.70   27.05
   4  -1 -10   36.34   16.83
   4  -1  -9  445.30   50.08
   4  -1  -8   47.51   13.41
   4  -1  -7   41.95   11.39
  -4   1   7   32.86    7.05
   4  -1  -6  112.68    9.29
  -4   1   6   94.58    8.74
   4  -1  -5  415.70   26.41
  -4   1   5  373.27   18.89
   4  -1  -4  200.49   14.22
  -4   1   4  198.69   10.66
   4  -1  -3  220.68    9.87
  -4   1   3  212.21    8.17
  -4   1   2  921.22   29.22
  -4   1   2  942.50   32.79
  -4   1   1 1056.99   38.96
  -4   1   1 1053.90   42.74
  -4   1   0 2774.52  141.07
  -4   1   0 2750.94  144.26
  -4   1  -1 1160.91   50.44
  -4   1  -1 1150.83   42.33
  -4   1  -1 1170.37   37.17
  -4   1  -2 1725.29   70.23
  -4   1  -2 1746.05   70.98
   4  -1   3 1089.15   43.67
   4  -1   3 1318.67   58.53
  -4   1  -3 1368.33   46.65
   4  -1   4   30.16    3.49
   4  -1   4   34.79    6.07
  -4   1  -4   31.86    3.19
   4  -1   5  477.70   25.56
  -4   1  -5  449.87   16.60
   4  -1   6  172.37   14.23
  -4   1  -6  159.10    8.46
   4  -1   7  685.07   52.20
  -4   1  -7  466.14   27.65
   4  -1   8  111.77   23.57
   4  -1   9   71.44   21.74
   4  -1  10   -2.58    9.65
   4   0 -11   14.01   10.23
   4   0 -10  130.43   26.53
   4   0  -9  147.07   24.92
   4   0  -8   19.42   11.45
   4   0  -7  114.44   16.35
   4   0  -6  908.75   40.29
  -4   0   6  655.32   31.99
   4   0  -5  344.63   20.92
  -4   0   5  268.31   11.10
   4   0  -4  346.78   14.65
  -4   0   4  299.16   11.15
  -4   0   3  249.06   13.91
  -4   0   3  294.82    9.33
  -4   0   3  232.87    8.44
  -4   0   2  305.90    9.54
  -4   0   2  268.70    9.65
  -4   0   2  280.54   10.27
  -4   0   1  106.23    4.85
  -4   0   1  111.42    7.03
  -4   0   1  111.79    7.18
  -4   0   0  322.42   12.53
  -4   0   0  342.37   11.31
  -4   0  -1  196.40    8.00
   4   0   2   70.98    4.96
   4   0   2   88.09    5.42
  -4   0  -2   76.57    4.82
   4   0   3  517.27   19.42
   4   0   3  549.44   31.44
  -4   0  -3  545.60   18.11
   4   0   4    3.27    3.30
   4   0   4    5.79    6.84
  -4   0  -4    7.03    2.98
   4   0   5  638.98   30.34
  -4   0  -5  549.87   22.84
   4   0   6   85.46   14.38
  -4   0  -6   65.39    6.36
   4   0   7 1242.96  101.16
  -4   0  -7 1174.39   64.14
   4   0   8  122.53   20.19
  -4   0  -8   82.29    9.83
   4   0   9 1163.98  120.56
   4   0  10  209.43   25.67
   4   0  11  414.47   66.53
   4   1 -10   66.24   21.17
   4   1  -9   56.25   17.49
   4   1  -8   45.06   14.51
   4   1  -7  514.07   31.49
   4   1  -6  454.97   24.51
   4   1  -5    6.21    4.41
  -4  -1   4  229.63   15.11
  -4  -1   3 1177.78   30.69
  -4  -1   3 1059.97   29.24
  -4  -1   3 1296.34   58.71
  -4  -1   2  415.00   13.46
  -4  -1   2  427.13   15.60
  -4  -1   2  506.74   12.55
  -4  -1   1 2271.08  105.92
  -4  -1   1 2188.52   82.41
  -4  -1   1 2106.33  108.87
  -4  -1   0 6751.81  542.81
  -4  -1   0 6578.38  479.39
  -4  -1   0 6521.80  524.83
   4   1   1  999.64   32.84
  -4  -1  -1 1036.10   38.62
   4   1   2 3885.41  237.77
  -4  -1  -2 3941.25  238.87
   4   1   3  630.23   33.10
  -4  -1  -3  669.26   23.95
   4   1   4   51.59    5.75
  -4  -1  -4   39.13    4.63
   4   1   5  143.80   16.41
  -4  -1  -5  134.43    7.97
   4   1   6  209.07   15.55
  -4  -1  -6  201.74   11.79
   4   1   7   73.89   10.51
  -4  -1  -7   68.91    8.17
   4   1   8   14.33   12.58
  -4  -1  -8    9.98    6.50
   4   1   9    6.77   14.07
  -4  -1  -9    7.28    7.18
   4   1  10   -0.27   10.17
  -4  -1 -10   14.60    8.47
   4   1  11  120.56   31.10
   4   1  12   12.03   12.52
  -4  -2   7  225.66   15.36
  -4  -2   6   33.25    6.01
  -4  -2   5    0.35    6.14
  -4  -2   4   94.35   10.30
  -4  -2   3  386.10   22.01
  -4  -2   2   58.59    7.08
  -4  -2   1   28.08    2.71
  -4  -2   1   28.10    5.18
  -4  -2   1   35.02    1.47
   4   2   0  466.20   12.73
  -4  -2   0  450.94   14.28
  -4  -2   0  494.44   15.37
   4   2   1  532.96   19.52
  -4  -2  -1  484.07   14.97
  -4  -2  -1  532.52   20.55
   4   2   2 5421.51  392.85
  -4  -2  -2 4750.64  343.51
   4   2   3  564.04   27.62
  -4  -2  -3  537.93   20.72
   4   2   4 2783.47  159.67
  -4  -2  -4 2876.92  161.01
   4   2   5  401.67   26.29
  -4  -2  -5  379.95   13.47
   4   2   6  681.53   46.28
  -4  -2  -6  655.10   31.85
   4   2   7  242.45   16.00
  -4  -2  -7  188.08   14.81
   4   2   8   24.49    7.44
  -4  -2  -8   11.70    4.37
   4   2   9  455.90   46.12
  -4  -2  -9  393.93   32.34
   4   2  10    6.16    9.01
  -4  -2 -10   10.88    8.45
   4   2  11  226.98   38.59
  -4  -2 -11  154.30   21.69
   4   2  12   96.87   33.70
  -4  -3  10   42.49   11.77
  -4  -3   9   82.95   12.95
  -4  -3   8  258.79   20.97
  -4  -3   7 1061.87   64.79
  -4  -3   6  406.62   32.55
  -4  -3   5 1918.78  109.13
  -4  -3   4   21.47    4.77
  -4  -3   3  328.55   14.43
  -4  -3   2  276.94   16.31
  -4  -3   1   15.04    4.59
  -4  -3   1   10.02    0.70
   4   3   0   97.09    5.48
  -4  -3   0   98.28    5.03
  -4  -3   0   88.39    4.80
   4   3   1   69.79    5.33
  -4  -3  -1   60.78    4.78
  -4  -3  -1   58.89    5.80
   4   3   2 2774.92  151.71
  -4  -3  -2 2664.62  146.04
   4   3   3   14.17    3.35
  -4  -3  -3    7.48    2.40
   4   3   4  737.03   38.73
  -4  -3  -4  666.07   28.70
   4   3   5   32.02    5.71
  -4  -3  -5   35.05    5.22
   4   3   6   55.64    7.01
  -4  -3  -6   26.62    6.21
   4   3   7   20.23   11.59
  -4  -3  -7   28.56    6.47
   4   3   8   68.23    9.76
  -4  -3  -8   42.65    5.47
   4   3   9   54.78   17.24
  -4  -3  -9   45.26   10.21
   4   3  10  237.05   25.26
  -4  -3 -10  185.41   24.26
   4   3  11   58.48   21.06
  -4  -3 -11   40.95   13.75
   4   3  12   19.94   20.70
  -4  -3 -12   27.42   12.42
  -4  -4   9   32.14   15.54
  -4  -4   8   18.96   12.28
  -4  -4   7   84.52   16.83
  -4  -4   6   33.18    7.09
  -4  -4   5  465.00   35.46
  -4  -4   4   86.16   11.78
  -4  -4   3   25.72    6.95
  -4  -4   2   30.67    4.46
  -4  -4   1  126.56    2.38
  -4  -4   1  166.45    6.99
   4   4   0    7.43    3.19
  -4  -4   0    3.34    2.98
  -4  -4   0    1.80    1.97
   4   4   1 1165.80   46.67
  -4  -4  -1 1244.83   55.99
  -4  -4  -1 1238.87   46.87
   4   4   2 1372.74   61.85
  -4  -4  -2 1310.29   52.64
  -4  -4  -2 1442.28   63.54
   4   4   3  475.03   23.35
  -4  -4  -3  461.90   15.38
   4   4   4 2537.05  153.54
  -4  -4  -4 2270.96  119.88
   4   4   5 2160.81  120.42
  -4  -4  -5 2186.04  117.86
   4   4   6  718.34   45.02
  -4  -4  -6  632.82   25.88
   4   4   7 2095.57  128.55
  -4  -4  -7 1829.72  124.60
   4   4   8  226.11   26.25
  -4  -4  -8  217.59   12.64
   4   4   9  258.90   32.86
  -4  -4  -9  256.33   16.10
   4   4  10   43.19   12.98
  -4  -4 -10   49.01    7.78
   4   4  11   32.05   11.50
  -4  -4 -11   19.74    8.11
   4   4  12   60.31   27.09
  -4  -4 -12   53.47   11.37
   4   4  13   52.06   30.55
  -4  -4 -13   58.69   19.10
  -4  -5   9    7.99    9.00
  -4  -5   8   88.89   14.06
  -4  -5   7   87.36   18.02
  -4  -5   6  180.15   21.75
  -4  -5   5 1166.72   84.34
  -4  -5   4   11.00    4.92
  -4  -5   3 1195.47   57.40
  -4  -5   2  572.68   32.05
   4   5  -1  250.72    8.50
  -4  -5   1  177.55    5.70
   4   5   0   16.55    3.42
  -4  -5   0   21.25    3.66
  -4  -5   0   28.32    3.91
   4   5   1  656.25   26.51
  -4  -5  -1  619.45   25.73
  -4  -5  -1  696.45   32.39
   4   5   2  341.67   16.55
  -4  -5  -2  328.25   17.15
   4   5   3  919.86   45.47
  -4  -5  -3  872.77   40.84
   4   5   4   17.44    6.61
  -4  -5  -4   16.61    3.06
   4   5   5   -0.87    4.05
  -4  -5  -5    7.76    4.81
   4   5   6   87.96    8.56
  -4  -5  -6   73.74    5.93
   4   5   7  125.05   16.89
  -4  -5  -7   95.82   10.88
   4   5   8  111.65   18.09
  -4  -5  -8   87.09    7.74
   4   5   9  201.08   28.15
  -4  -5  -9  181.34   12.57
   4   5  10   15.01    9.65
  -4  -5 -10   14.12    6.26
   4   5  11  305.15   32.48
  -4  -5 -11  317.63   24.95
   4   5  12    0.44   11.20
  -4  -5 -12    5.92   11.55
   4   5  13  166.90   25.97
  -4  -5 -13  102.50   28.54
  -4  -6   8   13.54   13.71
  -4  -6   7   42.38    9.74
  -4  -6   6   92.11   17.14
  -4  -6   5    2.40    5.00
  -4  -6   4   10.89    7.91
  -4  -6   3  771.49   50.38
   4   6  -2  622.75   44.39
  -4  -6   2 1032.05   42.65
   4   6  -1  507.88   24.30
  -4  -6   1  553.77   32.29
   4   6   0 1329.74   61.94
  -4  -6   0  966.55   53.77
  -4  -6   0 1297.31   67.76
   4   6   1  911.78   46.52
  -4  -6  -1  938.91   47.50
   4   6   2  598.35   31.12
  -4  -6  -2  569.55   30.12
   4   6   3  347.78   19.48
  -4  -6  -3  278.57   12.44
   4   6   4 1159.37   69.34
  -4  -6  -4 1111.60   50.13
   4   6   5   58.81    9.74
  -4  -6  -5   30.80    7.24
   4   6   6 1069.12   73.69
  -4  -6  -6  922.65   44.90
   4   6   7   70.96   15.23
  -4  -6  -7   83.20    6.87
   4   6   8  152.02   22.40
  -4  -6  -8  146.65   10.18
   4   6   9   24.74   14.21
  -4  -6  -9   19.59    9.45
   4   6  10   10.46   14.03
  -4  -6 -10    3.84    5.94
   4   6  11   36.68   18.19
  -4  -6 -11   20.49    7.90
   4   6  12   -3.11   11.67
  -4  -6 -12   20.17   12.89
   4   6  13   41.29   23.46
  -4  -6 -13   25.86   16.47
  -4  -7   7    8.48   12.12
  -4  -7   6  213.53   19.05
  -4  -7   5   17.33   10.53
  -4  -7   4  114.62   16.75
  -4  -7   3  250.88   22.64
   4   7  -2    8.16    5.30
  -4  -7   2   26.59    7.85
   4   7  -1   12.49    5.33
  -4  -7   1    1.12    4.07
   4   7   0    9.85    5.48
  -4  -7   0    2.82    6.19
   4   7   1   17.64    6.63
  -4  -7  -1   21.29    6.45
   4   7   2  106.51   10.73
  -4  -7  -2   89.75   10.16
   4   7   3   67.61    6.70
  -4  -7  -3   64.86    8.29
   4   7   4  178.29   17.76
  -4  -7  -4  195.93   13.83
   4   7   5  406.89   32.32
  -4  -7  -5  390.79   25.62
   4   7   6 1504.22  108.06
  -4  -7  -6 1284.87   89.76
   4   7   7   13.71   10.29
  -4  -7  -7    9.00    4.53
   4   7   8  380.12   40.89
  -4  -7  -8  329.03   19.48
   4   7   9   82.72   23.37
  -4  -7  -9  115.23   16.00
   4   7  10    0.67   14.73
  -4  -7 -10   -6.26    9.11
   4   7  11   92.77   30.48
  -4  -7 -11  110.07   20.51
   4   7  12   85.59   29.06
  -4  -7 -12   81.42   14.13
   4   7  13   20.03   22.89
  -4  -7 -13   19.73   15.84
  -4  -8   6   28.74    8.89
  -4  -8   5   41.92   13.96
  -4  -8   4  243.81   19.28
  -4  -8   3  450.66   28.38
  -4  -8   2   94.33    8.94
   4   8  -1  606.40   50.36
  -4  -8   1  863.95   53.62
   4   8   0  212.11   21.94
  -4  -8   0  287.95   15.02
   4   8   1   29.72    8.90
  -4  -8  -1   27.60    7.98
   4   8   2  358.27   30.58
  -4  -8  -2  419.90   25.99
   4   8   3   14.54    7.56
  -4  -8  -3   -0.83    3.82
   4   8   4  232.04   22.50
  -4  -8  -4  229.91   12.02
   4   8   5   19.52    9.35
  -4  -8  -5   11.08    4.44
   4   8   6  415.38   41.65
  -4  -8  -6  414.77   22.31
   4   8   7   79.72   12.11
  -4  -8  -7  107.73   13.17
   4   8   8  313.92   26.25
  -4  -8  -8  294.41   27.64
   4   8   9   14.31    8.93
  -4  -8  -9    5.05    9.34
   4   8  10  264.44   29.78
  -4  -8 -10  247.35   19.84
   4   8  11    3.64   12.45
  -4  -8 -11   42.58   13.29
   4   8  12   76.84   32.38
  -4  -8 -12   84.08   20.77
  -4  -9   5    2.03   10.49
  -4  -9   4   91.02   11.98
  -4  -9   3   10.82   10.00
  -4  -9   2  195.43   21.57
  -4  -9   1  285.95   18.93
   4   9   0   62.23    8.28
  -4  -9   0   64.10    7.46
   4   9   1   81.78   16.50
  -4  -9  -1  125.49   13.44
   4   9   2   47.17   12.30
  -4  -9  -2   38.89    9.41
   4   9   3   16.61   10.13
  -4  -9  -3   14.62    4.78
   4   9   4    5.27    6.29
  -4  -9  -4    5.64    6.37
   4   9   5    4.88    6.42
  -4  -9  -5   11.74    7.63
   4   9   6  137.37   20.51
  -4  -9  -6   98.08    9.62
   4   9   7   -9.44   11.28
  -4  -9  -7    5.27    5.07
   4   9   8  149.55   28.35
  -4  -9  -8  147.58   19.22
   4   9   9  155.89   33.49
  -4  -9  -9  192.07   24.07
   4   9  10   59.01   15.29
  -4  -9 -10   54.07    9.93
   4   9  11  210.82   31.36
  -4  -9 -11  208.51   31.47
   4   9  12   40.52   14.20
  -4  -9 -12   10.85    9.76
  -4 -10   4   16.23   11.25
  -4 -10   3  114.73   19.40
  -4 -10   2   12.12   10.07
  -4 -10   1  422.82   41.06
   4  10   0   19.96   11.48
  -4 -10   0   22.89    9.91
   4  10   1  248.79   35.30
  -4 -10  -1  320.07   19.41
   4  10   2   98.31   19.04
  -4 -10  -2   90.60   14.88
   4  10   3   62.47   16.38
  -4 -10  -3   56.65    7.50
   4  10   4   29.13   13.25
  -4 -10  -4   16.42    8.64
   4  10   5  309.63   28.82
  -4 -10  -5  307.99   20.43
   4  10   6   15.88    8.87
  -4 -10  -6   23.52    9.43
   4  10   7  341.65   42.99
  -4 -10  -7  280.09   20.13
   4  10   8    2.22   13.98
  -4 -10  -8    3.36    9.20
   4  10   9    7.92   16.89
  -4 -10  -9   12.14   11.24
   4  10  10  120.10   34.87
  -4 -10 -10  135.19   15.17
   4  10  11   87.49   20.60
  -4 -10 -11   81.47   21.24
  -4 -10 -12   35.86   18.11
  -4 -11   2   38.49    9.13
  -4 -11   1   -1.42    5.88
  -4 -11   0   31.33    7.80
   4  11   1  100.63   16.31
  -4 -11  -1  154.75   19.35
   4  11   2   71.33   13.61
  -4 -11  -2   79.37   15.15
   4  11   3  122.61   17.43
  -4 -11  -3  122.11   11.69
   4  11   4  183.40   22.98
  -4 -11  -4  213.27   24.79
   4  11   5   71.00   15.18
  -4 -11  -5   95.27   16.19
   4  11   6   46.36   19.10
  -4 -11  -6   27.91    7.46
   4  11   7   36.71   18.41
  -4 -11  -7   26.22   12.64
   4  11   8   20.58   17.68
  -4 -11  -8   11.97    7.25
   4  11   9   15.32   17.87
  -4 -11  -9    1.91   11.70
   4  11  10   26.56   25.74
  -4 -11 -10   44.79   10.50
   4  11  11   18.47   22.49
  -4 -11 -11   19.20   15.39
  -4 -12   0   23.55   12.18
  -4 -12  -1   21.40   12.21
   4  12   2   11.17   15.67
  -4 -12  -2   12.23   10.63
   4  12   3   49.81   22.47
  -4 -12  -3   50.45   10.19
   4  12   4   23.60   17.18
  -4 -12  -4    9.57   11.49
   4  12   5   38.13   23.23
  -4 -12  -5   52.20   15.49
   4  12   6   10.76   18.29
  -4 -12  -6    7.24   11.62
   4  12   7   20.00   21.40
  -4 -12  -7   32.64    9.16
   4  12   8   55.61   25.18
  -4 -12  -8   35.69   16.06
   4  12   9   60.47   18.48
  -4 -12  -9   64.54   19.82
   4  13   3   53.28   22.03
  -4 -13  -3   40.80   10.16
   4  13   4   12.89   19.85
  -4 -13  -4   18.59   13.69
   4  13   5   14.09   19.48
  -4 -13  -5    9.67   12.65
   4  13   6   30.31   14.75
  -4 -13  -6   20.32   15.31
   4  13   7   22.42   23.25
  -4 -13  -7   17.91   14.69
  -5   8   5   58.06   13.49
  -5   8   4   30.84   10.83
  -5   8   3  132.02   28.23
  -5   8   2    7.27    8.78
  -5   8   1   95.01   16.26
  -5   7   7   -2.86   13.76
  -5   7   6   17.11   15.48
  -5   7   5   45.48   17.79
  -5   7   4   -2.66    7.40
  -5   7   3  219.24   21.32
  -5   7   2   63.71   17.86
  -5   7   1   51.97   11.30
  -5   7   0   13.02    8.36
  -5   7  -1    8.42   14.08
  -5   7  -2    2.03   13.45
   5  -6  -8   21.34   15.94
   5  -6  -7   31.63   10.73
  -5   6   7   32.56   16.53
   5  -6  -6   26.04   14.04
  -5   6   6   29.61    9.50
  -5   6   5   33.35   14.16
  -5   6   4  205.25   27.70
  -5   6   3  621.61   58.17
  -5   6   2   15.73    7.10
  -5   6   1  749.34   68.08
  -5   6   0  113.01   13.42
  -5   6  -1  239.70   31.90
  -5   6  -2   82.12   19.80
  -5   6  -3   64.30   19.12
  -5   6  -4   27.60   10.89
   5  -5  -9    7.07   14.48
   5  -5  -8   47.49   18.57
   5  -5  -7    4.25    7.59
  -5   5   7   -3.25   11.39
   5  -5  -6   28.43   12.73
  -5   5   6   15.83   12.99
   5  -5  -5   32.62   12.08
  -5   5   5   35.11    8.18
   5  -5  -4   -1.78    5.28
  -5   5   4   24.35    8.97
  -5   5   3    3.15    5.58
  -5   5   3    3.11    8.18
  -5   5   2    4.11    8.44
  -5   5   1   48.09   11.97
  -5   5   0  123.34   11.73
  -5   5  -1   22.76   11.00
  -5   5  -2   77.12   17.06
  -5   5  -3  130.58   21.92
  -5   5  -4  337.62   42.29
  -5   5  -5  264.43   26.64
  -5   5  -6  366.17   53.13
   5  -4  -9   25.51   16.10
   5  -4  -8  244.48   24.47
   5  -4  -7  108.28   13.45
  -5   4   7   79.98   21.11
   5  -4  -6  319.86   36.35
  -5   4   6  334.52   35.38
   5  -4  -5   14.25    9.37
  -5   4   5    3.27    9.27
  -5   4   4  495.26   39.96
  -5   4   3  215.09   11.60
  -5   4   3  211.68   13.49
  -5   4   2  984.49   61.62
  -5   4   2  845.78   48.33
  -5   4   1  552.56   31.48
  -5   4   1  341.46   19.56
  -5   4   0   22.54    5.59
  -5   4  -1   58.18   11.86
  -5   4  -2  201.81   14.69
  -5   4  -3   11.68    6.84
  -5   4  -4  135.50   14.63
  -5   4  -5   14.33   13.20
  -5   4  -6   15.10    9.25
  -5   4  -7   47.42   19.36
   5  -3 -10    3.99    9.61
   5  -3  -9   -1.47    8.17
   5  -3  -8   73.44   19.47
   5  -3  -7  166.69   24.88
   5  -3  -6   37.42    7.50
  -5   3   6   21.14    6.65
   5  -3  -5   -0.95    8.73
  -5   3   5    4.86    7.66
  -5   3   4   30.86    8.51
  -5   3   3    1.95    3.61
  -5   3   3    7.25    5.87
  -5   3   2  785.52   44.62
  -5   3   2  770.15   40.33
  -5   3   1  165.06    9.25
  -5   3   1  154.43    9.69
  -5   3   0  212.92   16.42
  -5   3   0  210.06   10.11
  -5   3  -1  906.92   39.08
  -5   3  -1  677.59   34.30
  -5   3  -2  354.62   28.71
  -5   3  -3  952.75   69.41
  -5   3  -4  175.91   22.77
  -5   3  -5   80.69   11.58
  -5   3  -6  198.10   28.25
  -5   3  -7   46.07   11.10
  -5   3  -8  278.59   27.90
   5  -2 -10   40.07   12.71
   5  -2  -9  212.42   24.04
   5  -2  -8  445.86   35.60
   5  -2  -7   45.44    9.25
   5  -2  -6  235.51   25.61
  -5   2   6  185.33   20.15
   5  -2  -5  281.00   17.65
  -5   2   5  213.02   21.02
  -5   2   4  168.45   10.78
  -5   2   4  170.95   14.46
  -5   2   3  152.10   12.73
  -5   2   3  134.41   11.27
  -5   2   2  256.25   10.75
  -5   2   2  269.81   16.28
  -5   2   1  241.38   10.09
  -5   2   1  221.51    9.00
  -5   2   0  140.32    8.44
  -5   2   0  158.71   11.77
  -5   2  -1  796.77   39.22
  -5   2  -1  854.50   45.95
  -5   2  -2   38.92    4.35
  -5   2  -2   44.51    5.69
  -5   2  -3  385.44   16.11
  -5   2  -3  501.17   32.13
  -5   2  -4  556.85   29.61
  -5   2  -5   17.52    6.10
   5  -2   8   26.35   12.78
   5  -2   9    5.32   11.24
   5  -1 -10    2.34   15.05
   5  -1  -9  193.06   32.66
   5  -1  -8   45.49   17.05
   5  -1  -7  100.57   12.75
   5  -1  -6   61.07    9.17
  -5   1   5   76.37    8.68
  -5   1   4   23.60    8.43
  -5   1   4   35.82    6.33
  -5   1   3   86.98    6.42
  -5   1   3   71.33    7.34
  -5   1   2   67.91    4.18
  -5   1   2   76.19    8.44
  -5   1   1  138.61    8.52
  -5   1   1  140.97    6.82
  -5   1   0   79.98    7.39
  -5   1   0   84.97    4.54
  -5   1  -1 2974.13  183.85
  -5   1  -1 3145.86  178.77
  -5   1  -2   11.47    3.91
  -5   1  -2   16.58    6.02
  -5   1  -3 2909.98  188.21
  -5   1  -3 2908.05  171.87
   5  -1   4   65.25   13.87
  -5   1  -4  224.80    9.62
   5  -1   5  646.59   40.85
   5  -1   6  520.25   54.52
   5  -1   7  117.29   16.48
   5  -1   8   46.43   13.24
   5  -1   9  109.10   20.11
   5  -1  10   11.71   12.43
   5   0 -10    9.70   10.18
   5   0  -9  254.66   26.93
   5   0  -8  215.65   21.83
   5   0  -7   -0.60    6.54
  -5   0   6 1159.91   69.37
  -5   0   5   10.71    7.65
  -5   0   4  322.66   21.91
  -5   0   4  259.79   15.76
  -5   0   3  112.41   11.25
  -5   0   3  100.71    6.85
  -5   0   2   23.28    3.69
  -5   0   2   17.70    3.97
  -5   0   2   17.77    4.95
  -5   0   1  231.66    9.70
  -5   0   1  223.78   13.93
  -5   0   0  222.11    9.08
  -5   0   0  248.45    8.02
  -5   0  -1    9.04    4.36
  -5   0  -1   12.73    4.30
  -5   0  -2  981.52   43.31
   5   0   3  140.57   15.42
  -5   0  -3  143.27    9.09
   5   0   4   12.18    9.14
  -5   0  -4   13.67    4.54
   5   0   5  300.87   19.00
  -5   0  -5  265.48   14.78
   5   0   6  378.86   36.57
  -5   0  -6  280.95   17.42
   5   0   7  216.30   21.71
   5   0   8  434.20   39.64
   5   0   9   24.47   12.39
   5   0  10   59.24   27.10
  -5  -1  10   30.03   10.97
  -5  -1   9   17.13    9.01
  -5  -1   8   34.61    8.95
  -5  -1   7   64.90   15.00
  -5  -1   6  445.07   38.47
  -5  -1   5   14.95    8.54
  -5  -1   4 1298.52   66.65
  -5  -1   3  500.94   28.12
  -5  -1   3  385.63   15.51
  -5  -1   3  415.56   12.90
  -5  -1   2 1100.90   41.22
  -5  -1   2  973.03   48.07
  -5  -1   2 1139.13   48.34
  -5  -1   1  417.27   17.81
  -5  -1   1  382.85   12.87
  -5  -1   1  424.47   15.90
  -5  -1   0 1049.89   53.00
  -5  -1   0 1170.63   42.63
  -5  -1  -1  525.35   24.49
   5   1   2  397.10   22.93
  -5  -1  -2  387.78   18.37
   5   1   3  284.13   21.17
  -5  -1  -3  241.56   13.30
   5   1   4   22.37    8.80
  -5  -1  -4   13.03    4.84
   5   1   5  582.37   44.09
  -5  -1  -5  514.93   21.53
   5   1   6  239.87   25.63
  -5  -1  -6  197.49   13.84
   5   1   7  517.30   31.76
  -5  -1  -7  350.76   26.23
   5   1   8  123.53   15.17
  -5  -1  -8   82.97   12.26
   5   1   9  248.11   41.54
   5   1  10   32.45   21.30
   5   1  11  205.05   31.00
  -5  -2   9   64.67   13.00
  -5  -2   8   44.10   10.26
  -5  -2   7  132.81   21.12
  -5  -2   6  150.38   13.22
  -5  -2   5   77.05   13.11
  -5  -2   4  506.36   26.08
  -5  -2   3   28.62    8.11
  -5  -2   2   44.75    2.16
  -5  -2   2   74.27    8.28
  -5  -2   1   66.78    3.11
  -5  -2   1   70.53    8.15
  -5  -2   1   72.41    4.99
  -5  -2   0  480.82   24.30
  -5  -2   0  476.91   13.53
  -5  -2   0  564.02   22.79
   5   2   1   64.79    6.14
  -5  -2  -1   57.57    6.78
   5   2   2 1233.56   59.19
  -5  -2  -2 1010.88   50.89
   5   2   3   47.42    8.23
  -5  -2  -3   32.65    5.72
   5   2   4 1021.63   50.32
  -5  -2  -4  930.06   38.84
   5   2   5  815.46   59.70
  -5  -2  -5  757.31   41.70
   5   2   6   90.48   10.96
  -5  -2  -6   75.92    9.29
   5   2   7  303.09   23.11
  -5  -2  -7  233.01   20.13
   5   2   8  375.34   30.07
  -5  -2  -8  317.38   25.64
   5   2   9   84.49   19.77
  -5  -2  -9   36.67    7.24
   5   2  10  160.38   22.23
  -5  -2 -10  108.34   20.98
   5   2  11   74.45   19.49
  -5  -3   9   19.74   15.31
  -5  -3   8   36.59   15.21
  -5  -3   7  243.10   31.05
  -5  -3   6  126.19   12.92
  -5  -3   5  295.70   28.69
  -5  -3   4  796.18   56.43
  -5  -3   3   13.87    7.66
  -5  -3   2  452.94   29.65
  -5  -3   1 1443.79   44.45
  -5  -3   1 1391.53   80.65
  -5  -3   1 1532.45   54.24
   5   3   0  377.38   12.54
  -5  -3   0  412.10   17.75
  -5  -3   0  403.85   21.47
   5   3   1  814.37   32.47
  -5  -3  -1  790.96   35.35
  -5  -3  -1  741.67   37.49
   5   3   2  504.70   26.20
  -5  -3  -2  429.26   22.86
   5   3   3  453.22   18.93
  -5  -3  -3  377.53   22.45
   5   3   4  726.22   44.21
  -5  -3  -4  679.38   36.12
   5   3   5  810.32   38.39
  -5  -3  -5  667.25   37.80
   5   3   6  433.30   24.52
  -5  -3  -6  393.02   26.27
   5   3   7 1458.56   85.19
  -5  -3  -7 1238.14   73.67
   5   3   8   53.84   11.40
  -5  -3  -8   68.43   11.52
   5   3   9  282.92   33.92
  -5  -3  -9  188.71   15.46
   5   3  10   21.01   10.25
  -5  -3 -10    1.74   10.03
   5   3  11   11.93   18.96
  -5  -3 -11   17.59   11.64
   5   3  12   24.98   15.40
  -5  -4   8   -2.65   12.64
  -5  -4   7  120.70   14.97
  -5  -4   6   17.55    7.54
  -5  -4   5  924.35   72.35
  -5  -4   4    1.75    7.94
  -5  -4   3 1195.25   81.55
  -5  -4   2  141.86    9.47
  -5  -4   1   58.20    9.02
   5   4   0  174.85    6.76
  -5  -4   0  178.94    9.64
  -5  -4   0  197.09    7.05
   5   4   1    4.96    3.85
  -5  -4  -1    9.84    5.13
  -5  -4  -1   -1.99    3.85
   5   4   2    6.08    5.50
  -5  -4  -2    5.71    4.95
   5   4   3  385.12   16.62
  -5  -4  -3  334.90   21.33
   5   4   4   61.25    9.44
  -5  -4  -4   45.43    4.89
   5   4   5  728.19   46.15
  -5  -4  -5  546.51   31.85
   5   4   6   84.16   14.39
  -5  -4  -6   79.82    9.65
   5   4   7  741.17   41.62
  -5  -4  -7  587.52   33.29
   5   4   8   54.38   10.21
  -5  -4  -8   38.31   10.00
   5   4   9  104.16   22.15
  -5  -4  -9   52.77   13.20
   5   4  10   74.96   16.72
  -5  -4 -10   72.63   10.43
   5   4  11   -9.62   16.19
  -5  -4 -11    5.26    7.34
   5   4  12   34.79   21.74
  -5  -4 -12   19.85    9.07
  -5  -5   8   83.34   14.95
  -5  -5   7   51.21   11.02
  -5  -5   6  114.49   20.62
  -5  -5   5  441.81   29.87
  -5  -5   4  490.07   29.74
  -5  -5   3   93.64   13.69
  -5  -5   2 1227.71   63.14
  -5  -5   1    6.96    6.44
  -5  -5   0  640.80   26.35
  -5  -5   0  494.84   20.32
   5   5   1    7.56    4.32
  -5  -5  -1   10.14    3.91
  -5  -5  -1    4.10    3.91
   5   5   2  180.53   12.14
  -5  -5  -2  142.24    8.46
   5   5   3   19.32    6.59
  -5  -5  -3   13.59    6.25
   5   5   4  474.49   29.37
  -5  -5  -4  395.50   18.55
   5   5   5    4.38    4.79
  -5  -5  -5    4.60    5.59
   5   5   6  975.95   52.26
  -5  -5  -6  787.36   54.34
   5   5   7  453.27   36.52
  -5  -5  -7  332.10   18.49
   5   5   8   -1.59    7.00
  -5  -5  -8   14.91    7.65
   5   5   9  933.01   95.18
  -5  -5  -9  771.15   68.49
   5   5  10  278.36   42.40
  -5  -5 -10  195.21   27.79
   5   5  11  109.54   19.97
  -5  -5 -11  100.35   21.72
   5   5  12   74.88   30.85
  -5  -5 -12   61.59   21.05
  -5  -6   7   16.12   14.39
  -5  -6   6  133.88   15.97
  -5  -6   5   67.56   16.26
  -5  -6   4   22.05    6.73
  -5  -6   3  103.99    9.95
  -5  -6   2  386.54   21.10
  -5  -6   1  305.64   24.89
   5   6   0  554.38   39.17
  -5  -6   0  920.26   39.99
   5   6   1   59.39    7.25
  -5  -6  -1   51.80    5.79
  -5  -6  -1   31.77    5.93
   5   6   2  355.76   23.62
  -5  -6  -2  371.95   25.35
   5   6   3   50.08    9.20
  -5  -6  -3   48.35    5.37
   5   6   4   10.41    4.97
  -5  -6  -4   13.06    4.14
   5   6   5   -8.58    8.20
  -5  -6  -5   10.09    5.75
   5   6   6    6.99    5.90
  -5  -6  -6    4.51    6.65
   5   6   7   13.41   10.34
  -5  -6  -7    5.76    7.08
   5   6   8   10.46    7.65
  -5  -6  -8   11.61    5.26
   5   6   9  318.19   28.49
  -5  -6  -9  292.27   20.61
   5   6  10   62.72   20.08
  -5  -6 -10   44.68    8.72
   5   6  11   85.24   27.92
  -5  -6 -11   92.66   20.40
   5   6  12   60.70   18.08
  -5  -6 -12   32.83   19.82
  -5  -7   6   16.56   13.41
  -5  -7   5    7.10    6.96
  -5  -7   4   -2.94    9.47
  -5  -7   3   67.85   13.97
  -5  -7   2   73.22   14.15
  -5  -7   1  186.13   20.00
   5   7   0  317.17   37.23
  -5  -7   0  542.50   26.78
   5   7   1   12.73    7.10
  -5  -7  -1   20.26    7.62
   5   7   2 1279.81   91.06
  -5  -7  -2 1273.85   88.62
   5   7   3   45.90   10.08
  -5  -7  -3   32.40    8.36
   5   7   4  702.88   54.25
  -5  -7  -4  670.43   45.69
   5   7   5   10.04    9.17
  -5  -7  -5    1.85    6.49
   5   7   6  268.11   20.17
  -5  -7  -6  251.80   22.20
   5   7   7   12.00   12.39
  -5  -7  -7   16.66    8.38
   5   7   8  362.79   43.61
  -5  -7  -8  323.27   30.16
   5   7   9   70.46   14.00
  -5  -7  -9   66.31   13.98
   5   7  10    3.43    9.53
  -5  -7 -10    6.84    6.68
   5   7  11   44.08   20.57
  -5  -7 -11   19.47    9.09
   5   7  12   51.20   27.01
  -5  -7 -12   57.42   19.39
  -5  -8   5   52.11   16.55
  -5  -8   4   72.29   11.49
  -5  -8   3  139.40   21.79
  -5  -8   2   15.29   10.01
  -5  -8   1   13.94    6.18
  -5  -8   0  108.86   10.07
   5   8   1    0.68    9.20
  -5  -8  -1   13.44    8.12
   5   8   2  203.22   23.03
  -5  -8  -2  172.99   19.45
   5   8   3  267.58   19.30
  -5  -8  -3  252.50   15.87
   5   8   4    8.29   10.00
  -5  -8  -4    9.79    4.59
   5   8   5  110.34   18.35
  -5  -8  -5   94.11   12.42
   5   8   6   23.29    8.15
  -5  -8  -6   11.49    8.90
   5   8   7   58.99   12.03
  -5  -8  -7   61.10   12.30
   5   8   8  477.46   54.72
  -5  -8  -8  421.74   27.56
   5   8   9  150.57   30.42
  -5  -8  -9  121.13   13.04
   5   8  10  150.30   36.46
  -5  -8 -10  156.98   23.69
   5   8  11  380.55   65.56
  -5  -8 -11  363.53   45.02
   5   8  12   17.74   13.66
  -5  -8 -12   15.81    9.57
  -5  -9   4   17.68   13.37
  -5  -9   3  108.02   20.90
  -5  -9   2   18.99    7.55
  -5  -9   1  348.67   25.58
  -5  -9   0   12.97    9.69
  -5  -9  -1  844.77   69.65
   5   9   2   80.62   20.72
  -5  -9  -2  117.40   10.19
   5   9   3   18.18   11.15
  -5  -9  -3    3.45    8.50
   5   9   4  149.04   16.33
  -5  -9  -4  145.13   16.79
   5   9   5  206.98   29.03
  -5  -9  -5  185.20   13.40
   5   9   6   52.32   16.18
  -5  -9  -6   35.71   10.98
   5   9   7   45.05   16.84
  -5  -9  -7   39.03   11.95
   5   9   8   28.73   14.65
  -5  -9  -8    2.13    6.13
   5   9   9    3.94   10.30
  -5  -9  -9    6.58    6.56
   5   9  10   27.53   13.26
  -5  -9 -10   26.20   13.95
   5   9  11   58.40   17.45
  -5  -9 -11   48.75   11.23
  -5 -10   3    9.74   12.01
  -5 -10   2    8.17   11.52
  -5 -10   1   18.54   12.06
  -5 -10   0   -6.85   10.37
  -5 -10  -1   71.69    9.63
   5  10   2   28.87    9.91
  -5 -10  -2   28.29    7.31
   5  10   3   36.25   17.14
  -5 -10  -3   41.83   11.63
   5  10   4  229.71   34.18
  -5 -10  -4  213.64   16.48
   5  10   5   14.74   15.00
  -5 -10  -5   21.54   10.64
   5  10   6   52.58   18.55
  -5 -10  -6   37.40    7.68
   5  10   7    4.98    8.75
  -5 -10  -7   -7.72    8.82
   5  10   8    0.35    9.45
  -5 -10  -8   -5.21    9.90
   5  10   9   42.07   14.64
  -5 -10  -9   40.48    9.73
   5  10  10   22.05   13.70
  -5 -10 -10   10.74   13.73
   5  10  11  132.19   24.77
  -5 -10 -11  109.42   16.89
  -5 -11   1   51.02   11.07
  -5 -11   0   -4.86    6.94
  -5 -11  -1   83.85   11.94
  -5 -11  -2  113.03   20.05
   5  11   3   87.04   24.14
  -5 -11  -3   79.45   16.79
   5  11   4  205.34   37.08
  -5 -11  -4  176.26   16.12
   5  11   5   18.18   16.88
  -5 -11  -5   12.75   11.56
   5  11   6   30.14   19.27
  -5 -11  -6   27.63   12.93
   5  11   7    9.77   11.68
  -5 -11  -7   15.86    7.13
   5  11   8   11.33   12.12
  -5 -11  -8   13.84   12.23
   5  11   9   31.63   13.61
  -5 -11  -9   15.34    8.82
   5  11  10   14.16   14.80
  -5 -11 -10   28.58   14.85
  -5 -12  -1    2.05   11.40
  -5 -12  -2    0.61   10.53
  -5 -12  -3   32.42   13.38
   5  12   4  133.33   36.67
  -5 -12  -4  160.72   26.29
   5  12   5   27.53   20.10
  -5 -12  -5   13.78    8.06
   5  12   6  249.78   57.61
  -5 -12  -6  301.54   39.07
   5  12   7   33.40   22.84
  -5 -12  -7   25.83   14.98
   5  12   8   72.22   18.76
  -5 -12  -8   52.56   12.23
  -5 -12  -9    6.72   13.13
  -6   6   5   13.32    8.16
  -6   6   4    8.54    7.58
  -6   6   3   33.29    9.47
  -6   6   2  111.45   22.17
  -6   6   1   35.82   10.16
  -6   6   0  312.37   41.69
  -6   6  -1   26.22   16.15
   6  -5  -7   13.38   10.32
  -6   5   6   -2.85   10.58
  -6   5   5   -6.42   11.30
  -6   5   4   16.90    7.50
  -6   5   3    5.12   10.02
  -6   5   2    0.44    6.02
  -6   5   1  157.50   15.18
  -6   5   0   19.56   12.76
  -6   5  -1  318.92   38.83
  -6   5  -2  195.79   20.11
  -6   5  -3   27.53   16.38
  -6   4   6   37.56   14.34
  -6   4   5  159.99   23.58
  -6   4   4   41.48   10.80
  -6   4   4   28.16    7.36
  -6   4   3   94.36   15.28
  -6   4   2   53.63   12.76
  -6   4   1   83.02   15.08
  -6   4   0    8.54    9.53
  -6   4  -1   12.55   10.24
  -6   4  -2  239.01   20.46
  -6   4  -3   32.39    9.37
  -6   4  -4  482.22   39.40
  -6   4  -5   12.57   15.58
   6  -3  -8  -14.28   10.60
  -6   3   7   38.61   10.29
  -6   3   6   67.66   17.31
  -6   3   5  181.81   24.95
  -6   3   4    7.77    8.99
  -6   3   4   12.43    8.51
  -6   3   3  236.00   14.67
  -6   3   3  204.42   20.75
  -6   3   2  175.34   11.76
  -6   3   2  161.24   14.79
  -6   3   1  124.58   11.71
  -6   3   1  156.02   15.99
  -6   3   0  150.06   17.08
  -6   3  -1  193.51   14.48
  -6   3  -2    5.47    9.21
  -6   3  -3   60.83   15.93
  -6   3  -4  365.34   42.57
  -6   3  -5  140.13   17.42
  -6   3  -6   35.73   17.49
  -6   2   8   42.19   11.46
  -6   2   7   50.57   11.14
  -6   2   6   12.64   12.12
  -6   2   5  481.69   46.82
  -6   2   4  169.61   19.26
  -6   2   4  126.07   16.14
  -6   2   3  744.33   38.90
  -6   2   3  604.56   43.93
  -6   2   2  126.15   12.61
  -6   2   2  118.14    8.73
  -6   2   1  107.97    7.69
  -6   2   1  105.88   10.04
  -6   2   0    0.92    6.42
  -6   2   0    8.21    4.81
  -6   2  -1  291.15   18.54
  -6   2  -1  349.69   17.86
  -6   2  -2    2.48    8.04
  -6   2  -3  845.00   50.13
  -6   2  -4  608.33   56.79
  -6   2  -5  206.80   28.86
  -6   2  -6  321.52   27.35
  -6   2  -7    9.20   14.02
  -6   1   8   31.12   16.02
  -6   1   7   53.43   17.46
  -6   1   6  318.51   37.47
  -6   1   5    4.70    6.18
  -6   1   4  416.59   26.28
  -6   1   3  250.78   23.42
  -6   1   3  248.18   17.29
  -6   1   2    5.90    5.08
  -6   1   2    3.17    4.17
  -6   1   1   51.11    6.84
  -6   1   1   40.39    4.94
  -6   1   0   67.34    8.94
  -6   1   0   71.31    8.30
  -6   1  -1   21.38    3.79
  -6   1  -1   31.33    7.51
  -6   1  -2  291.61   17.75
  -6   1  -2  316.13   17.04
  -6   1  -3  269.88   25.59
  -6   1  -4  234.96   25.59
  -6   1  -5  109.04   11.34
   6  -1   7   10.78   10.66
   6  -1   8   14.15   12.16
  -6   0   8   57.19   12.77
  -6   0   7   21.77   13.81
  -6   0   6  247.24   21.49
  -6   0   5  158.63   21.62
  -6   0   4  281.67   28.14
  -6   0   3  338.83   28.47
  -6   0   2    5.49    4.25
  -6   0   2    3.49    6.82
  -6   0   1  179.84    9.98
  -6   0   1  180.58    7.43
  -6   0   0   70.91    7.56
  -6   0   0   85.14    9.28
  -6   0  -1   42.65    7.28
  -6   0  -1   52.64    7.56
  -6   0  -2   56.03    8.06
  -6   0  -2   86.48    9.89
  -6   0  -3 1136.99   69.43
  -6   0  -3 1310.60   61.42
   6   0   4   38.89    9.65
  -6   0  -4   58.45    7.25
   6   0   5 1165.95  107.65
   6   0   6  933.88   68.85
   6   0   7    9.22    9.65
   6   0   8  414.10   62.71
   6   0   9   16.81   19.83
  -6  -1   8   44.83   11.53
  -6  -1   7   90.71   13.42
  -6  -1   6  210.83   28.50
  -6  -1   5   17.02    7.06
  -6  -1   4  910.40   54.49
  -6  -1   3  182.38   12.87
  -6  -1   2  343.70   15.64
  -6  -1   2  379.34   27.24
  -6  -1   1  212.24   10.02
  -6  -1   1  216.41   16.97
  -6  -1   0  176.22   14.94
  -6  -1   0  194.37   10.31
  -6  -1  -1   29.25    4.52
  -6  -1  -1   33.71    6.06
  -6  -1  -2   23.85    4.11
   6   1   3   25.24   10.05
  -6  -1  -3   25.65    6.48
   6   1   4   30.65   12.51
  -6  -1  -4   35.77    7.31
   6   1   5   51.33    8.52
  -6  -1  -5   26.52    4.71
   6   1   6  264.46   32.63
  -6  -1  -6  192.49   17.80
   6   1   7    6.09    9.03
   6   1   8  915.39   77.50
   6   1   9   19.42   12.56
   6   1  10  193.98   30.62
  -6  -2   8   21.27   15.95
  -6  -2   7   49.27   11.23
  -6  -2   6    7.03   11.32
  -6  -2   5   38.72    8.61
  -6  -2   4  452.17   28.42
  -6  -2   3   79.73    8.75
  -6  -2   2  713.80   36.59
  -6  -2   1 1023.61   39.80
  -6  -2   1 1019.59   52.30
  -6  -2   0   -4.19    6.32
  -6  -2   0    6.49    3.10
  -6  -2  -1 2160.11  130.93
  -6  -2  -1 2428.89  109.97
   6   2   2  135.55   13.46
  -6  -2  -2  123.57   11.86
   6   2   3  764.74   48.78
  -6  -2  -3  625.71   40.26
   6   2   4  198.24   22.36
  -6  -2  -4  159.01   15.06
   6   2   5  129.89   13.43
  -6  -2  -5  115.09   13.32
   6   2   6   59.00   14.87
  -6  -2  -6   31.20    8.69
   6   2   7   41.47   14.72
  -6  -2  -7   17.03    8.78
   6   2   8  248.31   24.37
  -6  -2  -8  178.99   23.03
   6   2   9   -0.53   14.93
   6   2  10    3.26   17.51
  -6  -3   8   18.06   16.20
  -6  -3   7   19.75    9.60
  -6  -3   6   14.12   12.98
  -6  -3   5  112.45   12.87
  -6  -3   4   72.11   14.89
  -6  -3   3   14.67    9.13
  -6  -3   2   27.58    5.96
  -6  -3   1  630.60   43.34
  -6  -3   0   39.14    6.25
  -6  -3   0   60.33    4.98
   6   3   1 1272.18   62.64
  -6  -3  -1 1196.14   74.76
   6   3   2   15.30    4.59
  -6  -3  -2   12.59    6.54
   6   3   3   25.68    9.33
  -6  -3  -3   27.22    4.84
   6   3   4   28.01   11.30
  -6  -3  -4   23.22    7.60
   6   3   5  212.18   16.50
  -6  -3  -5  170.62   15.74
   6   3   6  109.66   20.03
  -6  -3  -6   82.36   12.38
   6   3   7  777.94   69.73
  -6  -3  -7  577.64   35.74
   6   3   8  407.43   45.94
  -6  -3  -8  251.45   30.70
   6   3   9   61.45   21.99
  -6  -3  -9   39.44   13.38
   6   3  10  258.80   34.32
  -6  -4   7    6.44    8.42
  -6  -4   6  176.67   28.83
  -6  -4   5   55.18   10.43
  -6  -4   4  161.53   22.53
  -6  -4   3  110.50   16.88
  -6  -4   2  638.49   48.34
  -6  -4   1  254.44   15.65
  -6  -4   0  640.83   43.97
   6   4   1 1113.56   53.13
  -6  -4  -1  974.18   65.54
   6   4   2   25.32    7.23
  -6  -4  -2   22.81    7.31
   6   4   3  124.34   10.20
  -6  -4  -3  109.43    8.43
   6   4   4   94.59   14.10
  -6  -4  -4   77.39   10.84
   6   4   5  210.70   22.13
  -6  -4  -5  176.11   11.34
   6   4   6    4.11   10.44
  -6  -4  -6    7.14    7.55
   6   4   7  428.46   40.16
  -6  -4  -7  313.27   20.87
   6   4   8   29.11   15.12
  -6  -4  -8   23.58   10.67
   6   4   9  121.39   17.80
  -6  -4  -9  103.80   19.76
   6   4  10   21.13   11.43
  -6  -4 -10   13.59    8.18
   6   4  11   30.99   20.94
  -6  -4 -11    8.38    8.37
  -6  -5   7    9.16    9.32
  -6  -5   6  104.74   23.35
  -6  -5   5    9.00    7.60
  -6  -5   4   19.75   11.91
  -6  -5   3   88.00   16.72
  -6  -5   2   83.40   14.73
  -6  -5   1   11.23    5.73
  -6  -5   0  594.33   43.20
   6   5   1   74.73    9.88
  -6  -5  -1   60.96    7.14
   6   5   2   16.04    6.58
  -6  -5  -2    4.74    4.38
   6   5   3  353.90   26.56
  -6  -5  -3  307.24   17.49
   6   5   4  293.42   26.44
  -6  -5  -4  211.24   20.16
   6   5   5  174.81   21.57
  -6  -5  -5  132.67   15.60
   6   5   6  273.88   29.36
  -6  -5  -6  227.43   15.58
   6   5   7  449.31   45.20
  -6  -5  -7  316.07   32.30
   6   5   8  412.20   50.76
  -6  -5  -8  334.12   34.94
   6   5   9  122.36   18.94
  -6  -5  -9   87.94   19.78
   6   5  10  340.41   55.57
  -6  -5 -10  263.94   36.17
   6   5  11   11.68   12.08
  -6  -5 -11    7.25   13.15
  -6  -6   6   47.12   18.38
  -6  -6   5    2.93    7.46
  -6  -6   4  155.67   16.49
  -6  -6   3   17.85   10.93
  -6  -6   2  531.90   49.35
  -6  -6   1   -4.04    5.51
  -6  -6   0 1244.34   77.20
  -6  -6  -1   79.61   12.33
   6   6   2  232.00   20.06
  -6  -6  -2  209.92   20.91
   6   6   3  181.14   13.87
  -6  -6  -3  163.19   18.61
   6   6   4   30.70   10.45
  -6  -6  -4   27.38    8.60
   6   6   5   26.30   10.67
  -6  -6  -5   18.14    8.42
   6   6   6   83.60   15.67
  -6  -6  -6   58.19   12.70
   6   6   7   12.64   13.71
  -6  -6  -7   19.60    9.74
   6   6   8   78.35   14.46
  -6  -6  -8   73.48    9.65
   6   6   9   74.55   24.29
  -6  -6  -9   62.76   10.40
   6   6  10   17.62   11.47
  -6  -6 -10    9.50    8.11
   6   6  11   36.59   24.61
  -6  -6 -11   36.11   11.16
  -6  -7   5   -8.22   13.35
  -6  -7   4   -4.28    7.33
  -6  -7   3   51.62   15.53
  -6  -7   2   22.93   11.62
  -6  -7   1   -1.51    5.70
  -6  -7   0  227.29   17.20
  -6  -7  -1  160.67   20.00
   6   7   2  277.47   30.85
  -6  -7  -2  340.35   20.92
   6   7   3  851.37   66.23
  -6  -7  -3  750.73   44.97
   6   7   4   28.13   11.48
  -6  -7  -4   28.98    9.90
   6   7   5  677.16   60.62
  -6  -7  -5  639.51   48.85
   6   7   6    6.01   10.78
  -6  -7  -6    1.58    7.57
   6   7   7   95.77   19.88
  -6  -7  -7   65.39   13.92
   6   7   8    9.01    9.20
  -6  -7  -8    7.86    9.55
   6   7   9  -19.79   14.86
  -6  -7  -9    2.80   10.27
   6   7  10   14.14   19.81
  -6  -7 -10   30.27   14.40
   6   7  11   -3.64   12.21
  -6  -7 -11   -2.08    8.04
  -6  -8   4   47.24   17.62
  -6  -8   3   -1.11    7.05
  -6  -8   2    4.81    6.81
  -6  -8   1   38.04    9.06
  -6  -8   0   37.97    7.99
  -6  -8  -1   32.80   11.59
  -6  -8  -2  182.76   15.89
   6   8   3   29.07    8.73
  -6  -8  -3   27.83   10.75
   6   8   4  135.80   14.69
  -6  -8  -4  108.58   11.52
   6   8   5  285.86   35.95
  -6  -8  -5  238.68   17.97
   6   8   6   39.31   15.78
  -6  -8  -6   19.70   11.16
   6   8   7   55.58   13.12
  -6  -8  -7   50.74   13.35
   6   8   8   31.55   17.61
  -6  -8  -8   22.45    7.36
   6   8   9   76.13   15.39
  -6  -8  -9   52.12   10.62
   6   8  10   10.12   11.58
  -6  -8 -10    3.85   12.51
   6   8  11   25.20   24.22
  -6  -8 -11   32.83   16.83
  -6  -9   3   -7.27    8.23
  -6  -9   2   61.30   11.76
  -6  -9   1    9.66    7.30
  -6  -9   0   21.27    8.04
  -6  -9  -1   14.77   11.29
  -6  -9  -2  112.77   18.76
  -6  -9  -3  268.55   20.73
   6   9   4   27.95   16.20
  -6  -9  -4    8.99   10.00
   6   9   5  400.85   51.03
  -6  -9  -5  319.50   23.94
   6   9   6   44.45   11.68
  -6  -9  -6   23.04    8.04
   6   9   7   86.28   26.46
  -6  -9  -7   72.36   15.92
   6   9   8   43.10   13.07
  -6  -9  -8   18.21    8.01
   6   9   9   23.75   19.71
  -6  -9  -9   12.38    7.87
   6   9  10   19.07   20.68
  -6  -9 -10    8.80   12.87
  -6 -10   2   53.61   18.57
  -6 -10   1   11.18    8.33
  -6 -10   0    4.61    7.36
  -6 -10  -1   99.20   20.73
  -6 -10  -2   81.73   17.73
  -6 -10  -3   70.45   10.93
   6  10   4  210.24   42.79
  -6 -10  -4  177.23   16.78
   6  10   5   20.20   12.70
  -6 -10  -5   20.23   11.28
   6  10   6   23.02   19.67
  -6 -10  -6   15.27    7.78
   6  10   7  123.20   33.60
  -6 -10  -7  104.99   21.10
   6  10   8   26.86   13.94
  -6 -10  -8   25.92   13.21
   6  10   9  103.88   29.81
  -6 -10  -9   56.45   11.74
   6  10  10   77.63   29.37
  -6 -10 -10   42.40   18.21
  -6 -11   0   51.37   19.02
  -6 -11  -1   17.26   13.63
  -6 -11  -2   52.72   17.03
  -6 -11  -3    1.62   10.75
  -6 -11  -4   63.25   10.73
   6  11   5   17.44   12.73
  -6 -11  -5    8.28   11.49
   6  11   6   11.29   25.02
  -6 -11  -6   52.84   15.25
   6  11   7   49.35   16.43
  -6 -11  -7   35.18   10.16
   6  11   8   42.24   25.76
  -6 -11  -8   29.30   14.74
   6  11   9   27.92   22.90
  -6 -11  -9   10.96    8.74
  -6 -12  -3   -2.30   12.11
  -6 -12  -4   40.32   15.73
  -6 -12  -5   31.53   10.56
   6  12   6   76.77   32.52
  -6 -12  -6   74.11   19.85
  -7   4   2    8.54   10.01
  -7   4   1   40.91   13.30
  -7   4   0   59.23   16.86
  -7   4  -1   10.45   12.69
  -7   4  -2   49.06   11.47
  -7   3   5  174.88   20.25
  -7   3   4   25.29    8.11
  -7   3   2  116.16   11.59
  -7   3   1   21.68   10.14
  -7   3   0   91.20   11.00
  -7   3  -1   38.71   13.45
  -7   3  -2  171.97   18.09
  -7   3  -3    6.13    8.03
  -7   3  -4   28.85   11.33
  -7   2   6   16.60    9.82
  -7   2   5  101.98   14.98
  -7   2   4   11.26    7.06
  -7   2   3   83.26   15.12
  -7   2   2  140.11   16.54
  -7   2   1   22.71    8.94
  -7   2   0   74.70   13.01
  -7   2  -1   22.85   10.98
  -7   2  -2    1.78    6.24
  -7   2  -3   17.50   13.22
  -7   2  -4  115.56   24.85
  -7   2  -5   79.07   14.78
  -7   1   6   59.40   20.65
  -7   1   5  101.87   15.16
  -7   1   4    1.65    6.53
  -7   1   3  381.24   37.64
  -7   1   2  398.63   23.69
  -7   1   1  136.09   13.41
  -7   1   1  112.91    9.63
  -7   1   0  408.48   27.57
  -7   1   0  370.49   27.52
  -7   1  -1   16.20    8.40
  -7   1  -2   55.38   13.37
  -7   1  -3   60.60   15.55
  -7   1  -4  209.44   31.50
  -7   1  -5  217.25   34.73
  -7   1  -6   68.16   13.66
  -7   0   7    8.84   15.11
  -7   0   6   20.73   10.29
  -7   0   5   47.44   17.06
  -7   0   4   54.49   15.87
  -7   0   3  158.17   21.91
  -7   0   2   -3.76    5.18
  -7   0   1   62.22    7.41
  -7   0   0   93.04    9.71
  -7   0   0   81.44    7.90
  -7   0  -1   14.30    6.60
  -7   0  -1    7.14    7.25
  -7   0  -2  313.02   25.87
  -7   0  -2  410.88   30.27
  -7   0  -3  110.82   11.78
  -7   0  -4  680.40   43.33
  -7   0  -5   83.62   11.60
   7   0   7    3.77   10.83
  -7  -1   7   32.76   12.38
  -7  -1   6   14.85   15.06
  -7  -1   5  103.19   14.54
  -7  -1   4  123.41   14.29
  -7  -1   3  755.11   49.36
  -7  -1   2  120.87   17.17
  -7  -1   1  385.16   22.39
  -7  -1   0    1.74    4.78
  -7  -1   0    3.41    4.59
  -7  -1  -1   15.61    4.95
  -7  -1  -1   15.97    4.12
  -7  -1  -2  102.20   15.10
  -7  -1  -2  169.62   10.66
  -7  -1  -3   14.49    7.24
  -7  -1  -3    8.31    8.30
  -7  -1  -4    4.03    6.90
   7   1   5   76.83   14.41
   7   1   6  107.94   27.95
   7   1   7   18.71   11.67
   7   1   8  251.07   32.88
  -7  -2   6   31.28   10.72
  -7  -2   5    5.55   12.32
  -7  -2   4   23.19   13.25
  -7  -2   3   93.39   17.67
  -7  -2   2   40.45   12.21
  -7  -2   1  424.40   25.83
  -7  -2   0  202.65   14.30
  -7  -2  -1  147.02   11.60
  -7  -2  -1  185.42   11.91
  -7  -2  -2  571.10   47.25
  -7  -2  -2  831.09   43.52
   7   2   3   22.68    7.51
  -7  -2  -3   24.56    8.32
   7   2   4  166.78   22.98
  -7  -2  -4  103.09   15.22
   7   2   5  113.90   23.23
  -7  -2  -5   97.73   13.39
   7   2   6   30.70   15.86
  -7  -2  -6   14.71    9.91
   7   2   7   63.03   24.65
   7   2   8   63.66   26.17
   7   2   9   30.60   15.05
  -7  -3   6    6.95   13.95
  -7  -3   5  112.20   23.53
  -7  -3   4   17.31    8.10
  -7  -3   3   22.68    7.65
  -7  -3   2   82.22   10.51
  -7  -3   1  241.00   25.55
  -7  -3   0   26.40    6.55
  -7  -3  -1  417.06   28.61
  -7  -3  -1  570.81   25.02
   7   3   2   13.02    5.30
  -7  -3  -2   15.96    5.41
   7   3   3  917.23   63.82
  -7  -3  -3  636.16   55.60
   7   3   4  148.60   21.84
  -7  -3  -4   91.75   15.16
   7   3   5  148.06   22.63
  -7  -3  -5   82.39   14.93
   7   3   6   62.45   11.81
  -7  -3  -6   37.58    7.37
   7   3   7   23.71   16.77
  -7  -3  -7   16.10   10.65
   7   3   8   50.49   22.44
   7   3   9   32.22   21.86
  -7  -4   6    5.22   13.96
  -7  -4   5   17.15    9.15
  -7  -4   4   14.47    8.22
  -7  -4   3   17.68   12.13
  -7  -4   2   -1.63    5.85
  -7  -4   1   19.82    6.85
  -7  -4   0  123.25   17.52
  -7  -4  -1  341.54   31.42
   7   4   2  611.29   40.79
  -7  -4  -2  568.87   33.58
   7   4   3  292.68   26.24
  -7  -4  -3  204.97   15.73
   7   4   4  608.28   52.36
  -7  -4  -4  438.52   39.65
   7   4   5   19.11   12.83
  -7  -4  -5    9.53    8.94
   7   4   6   80.72   20.91
  -7  -4  -6   58.90    9.38
   7   4   7    3.88    9.24
  -7  -4  -7    6.38    9.88
   7   4   8   46.10   14.12
  -7  -4  -8   44.32    9.36
   7   4   9   71.34   17.38
  -7  -4  -9   57.69   17.70
  -7  -5   5   27.70   10.28
  -7  -5   4  124.50   24.63
  -7  -5   3    6.29   11.81
  -7  -5   2  141.81   22.70
  -7  -5   1   11.54   10.87
  -7  -5   0  123.37   12.31
  -7  -5  -1  363.20   33.32
  -7  -5  -2   63.87   12.84
   7   5   3  276.78   25.61
  -7  -5  -3  211.18   16.33
   7   5   4   36.72   14.24
  -7  -5  -4   24.66   10.34
   7   5   5    5.18    8.42
  -7  -5  -5    9.60    8.78
   7   5   6  495.94   52.54
  -7  -5  -6  373.91   37.69
   7   5   7  107.12   24.25
  -7  -5  -7   86.57   18.42
   7   5   8  146.18   27.35
  -7  -5  -8   94.83   13.35
   7   5   9   -0.93   16.60
  -7  -5  -9    7.03    7.39
   7   5  10   25.58   23.49
  -7  -5 -10   32.77   15.61
  -7  -6   5   99.09   16.64
  -7  -6   4   11.14   13.84
  -7  -6   3  111.59   23.16
  -7  -6   2   26.80   14.06
  -7  -6   1  105.07   20.36
  -7  -6   0    3.24    9.87
  -7  -6  -1  110.59   11.71
  -7  -6  -2  119.16   17.57
  -7  -6  -3   61.41   13.66
   7   6   4   -3.07   11.42
  -7  -6  -4   14.40    9.09
   7   6   5  103.93   13.35
  -7  -6  -5   66.20    9.61
   7   6   6  303.63   35.60
  -7  -6  -6  210.10   18.31
   7   6   7   46.76   18.33
  -7  -6  -7   39.32    8.76
   7   6   8  101.98   25.70
  -7  -6  -8   80.54   18.75
   7   6   9   -4.68   10.04
  -7  -6  -9   11.20   11.85
   7   6  10   47.46   16.59
  -7  -6 -10   53.51   18.84
  -7  -7   4   59.20   21.12
  -7  -7   3    4.88   13.08
  -7  -7   2    4.46    7.92
  -7  -7   1  119.19   14.75
  -7  -7   0   90.01   18.94
  -7  -7  -1  110.67   18.64
  -7  -7  -2  187.68   16.69
  -7  -7  -3  163.19   21.83
   7   7   4   23.52   14.77
  -7  -7  -4    9.16   10.26
   7   7   5   98.79   14.07
  -7  -7  -5   55.32    9.87
   7   7   6  148.78   19.67
  -7  -7  -6  136.02   13.68
   7   7   7   -3.81    9.20
  -7  -7  -7    5.61    6.41
   7   7   8   26.23   12.08
  -7  -7  -8   17.74   13.00
   7   7   9   94.57   31.15
  -7  -7  -9   91.77   22.11
   7   7  10   11.59   21.22
  -7  -7 -10    9.53   14.60
  -7  -8   3   35.14   17.82
  -7  -8   2    3.72    7.92
  -7  -8   1  165.22   18.13
  -7  -8   0   14.98    7.65
  -7  -8  -1   17.18   12.28
  -7  -8  -2   22.62   12.97
  -7  -8  -3   44.81    9.16
  -7  -8  -4   10.60   11.16
   7   8   5  501.24   68.33
  -7  -8  -5  453.43   47.69
   7   8   6   30.25   15.41
  -7  -8  -6    4.32    6.65
   7   8   7  463.86   61.76
  -7  -8  -7  385.36   31.50
   7   8   8   92.97   30.98
  -7  -8  -8   82.22   19.66
   7   8   9   21.53   13.89
  -7  -8  -9   13.65   14.30
  -7  -9   1   23.50    9.34
  -7  -9   0   14.18    8.65
  -7  -9  -1   12.67    8.34
  -7  -9  -2   68.11   19.33
  -7  -9  -3   16.64   12.72
  -7  -9  -4   16.44    8.28
  -7  -9  -5   45.39   15.02
   7   9   6   10.45   19.28
  -7  -9  -6   16.44   11.67
   7   9   7   42.77   23.77
  -7  -9  -7   31.25    9.46
   7   9   8   61.00   17.86
  -7  -9  -8   44.92   18.02
   7   9   9   19.80   18.77
  -7  -9  -9   -1.15    7.84
  -7 -10   0   47.74   12.26
  -7 -10  -1    9.51    9.17
  -7 -10  -2   37.64   10.77
  -7 -10  -3   28.15   14.86
  -7 -10  -4   26.43   14.45
  -7 -10  -5   69.43   12.43
  -7 -10  -6    8.96   12.95
   7  10   7  132.29   38.74
  -7 -10  -7   86.36   14.21
   7  10   8   61.59   31.41
  -7 -10  -8   60.05   18.34
  -7 -11  -3    6.93    8.88
  -7 -11  -4   -0.65   12.21
  -7 -11  -5   17.88   13.41
  -7 -11  -6   26.18   10.38
  -8   1   3    1.63    9.86
  -8   1  -2  146.28   22.22
  -8   1  -3  108.15   14.81
  -8   0   4   -0.37   12.01
  -8   0   3   55.00   16.53
  -8   0   2    5.38    6.32
  -8   0   1  109.85   17.48
  -8   0   0  200.38   23.50
  -8   0  -2  336.18   34.87
  -8   0  -3  150.77   15.97
  -8   0  -4   17.10    9.10
  -8  -1   4   26.30   15.75
  -8  -1   3   11.12   12.59
  -8  -1   2   -2.04    6.47
  -8  -1   1   10.88   10.29
  -8  -1   0   13.16    9.69
  -8  -1  -1   10.65    8.58
  -8  -1  -2  146.95   19.84
  -8  -1  -3   66.31   15.27
  -8  -1  -4  288.30   37.61
  -8  -1  -5  190.93   31.80
  -8  -2   4   34.11   10.85
  -8  -2   3   66.09   12.64
  -8  -2   2   24.30    8.63
  -8  -2   1  101.41   18.94
  -8  -2   0   21.40   10.99
  -8  -2  -1  244.97   17.81
  -8  -2  -2   61.05    8.57
  -8  -2  -3   27.17   10.56
  -8  -2  -3   39.20   11.58
  -8  -2  -4    7.17    6.27
   8   2   5   -8.64   10.48
   8   2   6   71.09   17.23
  -8  -3   4  110.08   25.98
  -8  -3   3   17.79   14.26
  -8  -3   1   45.00   15.08
  -8  -3   0    7.01   10.40
  -8  -3  -1  156.44   14.56
  -8  -3  -2  242.23   19.38
  -8  -3  -3   33.63    7.36
   8   3   4  817.52   55.74
  -8  -3  -4  510.97   60.16
   8   3   5   49.75   19.45
  -8  -3  -5   27.51   11.57
   8   3   6  186.70   39.69
   8   3   7  118.39   21.00
  -8  -4   3   65.67   13.14
  -8  -4   2   41.14   10.68
  -8  -4   1    3.23    7.25
  -8  -4   0   20.72   12.39
  -8  -4  -1   50.19    9.14
  -8  -4  -2   11.23   10.76
  -8  -4  -3   48.61   13.78
  -8  -4  -4   93.41   17.89
   8   4   5    7.15   14.00
  -8  -4  -5    2.06    6.16
   8   4   6   38.70   12.86
  -8  -4  -6   16.49    8.05
   8   4   7   49.81   20.97
  -8  -4  -7    7.96   12.90
  -8  -5   3  155.70   30.73
  -8  -5   2    8.63   13.78
  -8  -5   1   33.00   15.17
  -8  -5   0   25.03    8.80
  -8  -5  -1    4.73   10.56
  -8  -5  -2   62.28   10.62
  -8  -5  -3  145.58   22.25
  -8  -5  -4  280.68   34.17
   8   5   5   27.45   11.43
  -8  -5  -5   22.74   12.69
   8   5   6  413.81   54.89
  -8  -5  -6  251.64   35.09
   8   5   7  150.81   22.18
  -8  -5  -7   92.75   23.01
  -8  -6   2   13.01    9.36
  -8  -6   1    8.90    8.48
  -8  -6   0    6.21   12.57
  -8  -6  -1   20.58   13.26
  -8  -6  -2   14.81    7.94
  -8  -6  -3    7.41   10.94
  -8  -6  -4   -0.14   10.02
  -8  -6  -5   15.82   11.95
   8   6   6  104.24   19.90
  -8  -6  -6   75.89   11.97
   8   6   7   57.18   23.65
  -8  -6  -7   25.52    9.41
  -8  -7   1  264.92   28.13
  -8  -7   0  134.76   18.04
  -8  -7  -1  105.76   15.49
  -8  -7  -2   42.91   16.09
  -8  -7  -3   22.54    8.53
  -8  -7  -4    5.85   11.21
  -8  -7  -5   55.19   10.52
  -8  -7  -6   29.56    8.90
   8   7   7    9.85   11.68
  -8  -7  -7    5.69   12.70
  -8  -8   0   54.23   19.29
  -8  -8  -1   18.18   14.73
  -8  -8  -2    7.96    8.33
  -8  -8  -3   19.22   13.13
  -8  -8  -4    0.78   11.42
  -8  -8  -5   52.99   16.98
  -8  -8  -6   64.93   12.04
  -8  -8  -7   31.69   15.93
  -8  -9  -2   38.43   17.97
  -8  -9  -3   20.72   14.89
  -8  -9  -4   11.68    8.99
  -8  -9  -5    3.97   12.50
  -8  -9  -6    8.64    8.18
;
_shelx_hkl_checksum              22521
_shelx_res_file
;
    shelxl.res created by SHELXL-2014/7
TITL payel23
REM  Yadorkari-X generated
CELL 0.71075 6.9072 10.3199 10.7073 68.3307 81.9362 71.9172
ZERR 2.0 0.0043 0.0066 0.0073 0.0135 0.0147 0.0123
LATT 1
REM  SPGR P-1 triclinic
SFAC C H N S Cl Zn O
UNIT 12 32 4 4 4 2 4
SIZE 0.20 0.10 0.10
TEMP -73.0
L.S. 10
FMAP 2
PLAN -47
ACTA
CONF
HTAB
WPDB -1
BOND $H
OMIT  -4  -1   5
OMIT   3  -3   7
OMIT   3  -3  10
OMIT  -4   1   3
OMIT  -5   0   7
OMIT 7 0 7
EQIV $1 -1-X, 2-Y, 1-Z
EQIV $2 -1+X, 1+Y, -1+Z
EQIV $3 -X, 2-Y, 1-Z
EQIV $4 -1+X, +Y, +Z
EQIV $5 -X, 1-Y, 1-Z
EQIV $6 1-X, 1-Y, 1-Z
LIST 4
HTAB N1 Cl2_$6
HTAB N1 Cl2_$4
HTAB N1 O2
HTAB N2 O2_$1
HTAB N2 Cl1_$2
HTAB N2 S2
HTAB N2 O1_$3
HTAB C2 Cl2_$4
HTAB C3 Cl1_$5
HTAB C4 S1
HTAB C6 S1_$3
HTAB N1 Cl2_$6
HTAB N1 Cl2_$4
HTAB N1 O2
HTAB N2 O2_$1
HTAB N2 Cl1_$2
HTAB N2 S2
HTAB N2 O1_$3
HTAB C2 Cl2_$4
HTAB C3 Cl1_$5
HTAB C4 S1
HTAB C6 S1_$3
HTAB N1 Cl2_$6
HTAB N1 Cl2_$4
HTAB N1 O2
HTAB N2 O2_$1
HTAB N2 Cl1_$2
HTAB N2 S2
HTAB N2 O1_$3
HTAB C2 Cl2_$4
HTAB C3 Cl1_$5
HTAB C4 S1
HTAB C6 S1_$3
HTAB N1 Cl2_$6
HTAB N1 Cl2_$4
HTAB N1 O2
HTAB N2 O2_$1
HTAB N2 Cl1_$2
HTAB N2 S2
HTAB N2 O1_$3
HTAB C2 Cl2_$4
HTAB C3 Cl1_$5
HTAB C4 S1
HTAB C6 S1_$3
WGHT    0.057300    0.149000
FVAR       1.00565
ZN1   6    0.376285    0.527697    0.718255    11.00000    0.03149    0.03880 =
         0.03090   -0.00555   -0.00581   -0.00430
CL1   5    0.466852    0.281474    0.792714    11.00000    0.05308    0.03915 =
         0.04164   -0.00874   -0.00492   -0.00566
CL2   5    0.642552    0.618744    0.622645    11.00000    0.03610    0.05103 =
         0.04403   -0.01609    0.00226   -0.01305
N1    3    0.167636    0.588794    0.578373    11.00000    0.02993    0.03597 =
         0.03206   -0.00411   -0.00488   -0.00498
AFIX  23
H1A   2    0.209449    0.527834    0.530344    11.00000   -1.20000
H1B   2    0.048485    0.575462    0.621792    11.00000   -1.20000
AFIX   0
N2    3   -0.582676    1.255815    0.100981    11.00000    0.03500    0.04512 =
         0.03390   -0.00709   -0.00672   -0.00575
AFIX 137
H2A   2   -0.708479    1.294021    0.132548    11.00000   -1.50000
H2B   2   -0.581454    1.288460    0.009536    11.00000   -1.50000
H2C   2   -0.488418    1.283628    0.128759    11.00000   -1.50000
AFIX   0
S1    4   -0.037391    0.944371    0.245459    11.00000    0.04191    0.04636 =
         0.04091    0.00207   -0.00618   -0.00778
S2    4   -0.261161    1.058573    0.341544    11.00000    0.05193    0.03954 =
         0.04378   -0.00865   -0.01636   -0.00476
C1    1    0.125338    0.738314    0.483188    11.00000    0.03647    0.03431 =
         0.03994   -0.00312   -0.01267   -0.00600
AFIX  23
H1    2    0.255615    0.762893    0.452127    11.00000   -1.20000
H2    2    0.043273    0.805366    0.529711    11.00000   -1.20000
AFIX   0
C2    1    0.011210    0.760455    0.361724    11.00000    0.03957    0.03865 =
         0.03398   -0.00681   -0.00784   -0.00569
AFIX  23
H3    2   -0.119850    0.736983    0.392445    11.00000   -1.20000
H4    2    0.092615    0.693122    0.315308    11.00000   -1.20000
AFIX   0
O1    7    0.311539    0.584511    0.879909    11.00000    0.03505    0.04935 =
         0.03650   -0.01105   -0.00472   -0.00556
C3    1   -0.492617    1.033846    0.300642    11.00000    0.04340    0.04639 =
         0.04574   -0.01070    0.00208   -0.01149
AFIX  23
H5    2   -0.481109    0.928677    0.333823    11.00000   -1.20000
H6    2   -0.610277    1.080631    0.348632    11.00000   -1.20000
AFIX   0
C5    1    0.126072    0.634009    0.903526    11.00000    0.02715    0.03675 =
         0.03216    0.00526   -0.00937   -0.00802
O2    7   -0.013552    0.643682    0.839592    11.00000    0.03883    0.07065 =
         0.04705   -0.02247   -0.00171   -0.01102
C4    1   -0.533419    1.095539    0.153126    11.00000    0.04077    0.04209 =
         0.04253   -0.01096   -0.00958   -0.00659
AFIX  23
H7    2   -0.411900    1.055093    0.103678    11.00000   -1.20000
H8    2   -0.648585    1.066165    0.137150    11.00000   -1.20000
AFIX   0
C6    1    0.079861    0.689295    1.023405    11.00000    0.04021    0.05884 =
         0.04123   -0.01538   -0.00096   -0.00994
AFIX 137
H9    2    0.099327    0.786360    0.994580    11.00000   -1.50000
H10   2    0.172308    0.622638    1.096272    11.00000   -1.50000
H11   2   -0.061357    0.693948    1.055391    11.00000   -1.50000
AFIX   0
HKLF 4 1 1 0 0 0 1 0 0 0 1
REM  payel23
REM R1 =  0.0486 for    2471 Fo > 4sig(Fo)  and  0.0639 for all    3039 data
REM    138 parameters refined using      0 restraints
END
WGHT      0.0582      0.1228
REM Instructions for potential hydrogen bonds
HTAB N1 Cl2_$6
HTAB N1 Cl2_$4
HTAB N1 O2
HTAB N2 O2_$1
HTAB N2 Cl1_$2
HTAB N2 S2
HTAB N2 O1_$3
HTAB C2 Cl2_$4
HTAB C3 Cl1_$5
HTAB C4 S1
HTAB C6 S1_$3
REM Highest difference peak  1.197,  deepest hole -0.518,  1-sigma level  0.101
Q1    1   0.3638  0.5889  0.7688  11.00000  0.05    1.20
Q2    1   0.3885  0.4638  0.6791  11.00000  0.05    0.87
Q3    1  -0.0613  0.9984  0.2940  11.00000  0.05    0.71
Q4    1   0.6383  0.5610  0.5807  11.00000  0.05    0.64
Q5    1   0.4434  0.3548  0.8368  11.00000  0.05    0.64
Q6    1   0.4436  0.4746  0.7876  11.00000  0.05    0.41
Q7    1   0.2950  0.5839  0.6556  11.00000  0.05    0.41
Q8    1  -0.2801  1.1241  0.3893  11.00000  0.05    0.40
Q9    1   0.6343  0.6770  0.6614  11.00000  0.05    0.40
Q10   1   0.1592  0.5778  0.8598  11.00000  0.05    0.39
Q11   1  -0.1779  1.0014  0.4263  11.00000  0.05    0.38
Q12   1   0.7066  0.5639  0.6804  11.00000  0.05    0.37
Q13   1   0.4915  0.2904  0.6722  11.00000  0.05    0.37
Q14   1   0.4325  0.6533  0.6443  11.00000  0.05    0.37
Q15   1   0.3672  0.3941  0.8000  11.00000  0.05    0.36
Q16   1   0.1415  0.6047  0.9546  11.00000  0.05    0.36
Q17   1  -0.3333  0.9971  0.2939  11.00000  0.05    0.35
Q18   1   0.1341  0.5537  0.5767  11.00000  0.05    0.32
Q19   1   0.4893  0.2124  0.7364  11.00000  0.05    0.32
Q20   1   0.6088  0.2024  0.8168  11.00000  0.05    0.32
Q21   1   0.4741  0.5729  0.6078  11.00000  0.05    0.31
Q22   1   0.0362  0.9040  0.3422  11.00000  0.05    0.30
Q23   1   0.1337  0.6937  0.9036  11.00000  0.05    0.30
Q24   1  -0.0033  1.0232  0.4062  11.00000  0.05    0.30
Q25   1  -0.5329  1.0663  0.2270  11.00000  0.05    0.29
Q26   1   0.1070  0.6849  0.8829  11.00000  0.05    0.28
Q27   1  -0.2985  1.3387  0.0955  11.00000  0.05    0.28
Q28   1   0.5798  0.4947  0.7029  11.00000  0.05    0.28
Q29   1   0.5237  0.2297  0.8753  11.00000  0.05    0.28
Q30   1  -0.2064  1.0181  0.2557  11.00000  0.05    0.28
Q31   1  -0.1226  0.9980  0.1822  11.00000  0.05    0.28
Q32   1   0.1210  0.9097  0.4284  11.00000  0.05    0.27
Q33   1   0.4735  0.6592  0.7855  11.00000  0.05    0.27
Q34   1  -0.0534  0.7940  0.9876  11.00000  0.05    0.27
Q35   1   0.2322  0.7780  0.5120  11.00000  0.05    0.27
Q36   1   0.0847  0.9869  0.2792  11.00000  0.05    0.27
Q37   1   0.2422  0.4789  0.6944  11.00000  0.05    0.26
Q38   1   0.1967  0.3977  0.8812  11.00000  0.05    0.26
Q39   1   0.5353  0.5635  0.7226  11.00000  0.05    0.26
Q40   1  -0.9344  1.3543  0.1393  11.00000  0.05    0.26
Q41   1   0.2957  0.6621  1.0620  11.00000  0.05    0.26
Q42   1   0.0062  0.7086  0.3214  11.00000  0.05    0.26
Q43   1   0.3041  0.8246  0.3743  11.00000  0.05    0.26
Q44   1  -0.6130  0.9472  0.3949  11.00000  0.05    0.26
Q45   1   0.5660  0.6181  0.6215  11.00000  0.05    0.26
Q46   1  -0.0574  0.8776  0.1935  11.00000  0.05    0.26
Q47   1  -0.9169  1.3278  0.1219  11.00000  0.05    0.25
;
_shelx_res_checksum              54897
loop_
_space_group_symop_operation_xyz
'x, y, z'
'-x, -y, -z'
loop_
_atom_site_type_symbol
_atom_site_label
_atom_site_fract_x
_atom_site_fract_y
_atom_site_fract_z
_atom_site_U_iso_or_equiv
_atom_site_adp_type
_atom_site_calc_flag
_atom_site_occupancy
Zn Zn1 0.37629(6) 0.52770(4) 0.71825(4) 0.03651(17) Uani d 1
Cl Cl1 0.46685(15) 0.28147(10) 0.79271(10) 0.0476(3) Uani d 1
Cl Cl2 0.64255(14) 0.61874(10) 0.62265(10) 0.0440(3) Uani d 1
N N1 0.1676(4) 0.5888(3) 0.5784(3) 0.0355(7) Uani d 1
H H1A 0.2094 0.5278 0.5303 0.043 Uiso calc 1
H H1B 0.0485 0.5755 0.6218 0.043 Uiso calc 1
N N2 -0.5827(5) 1.2558(3) 0.1010(3) 0.0407(7) Uani d 1
H H2A -0.7085 1.2940 0.1325 0.061 Uiso calc 1
H H2B -0.5815 1.2885 0.0095 0.061 Uiso calc 1
H H2C -0.4884 1.2836 0.1288 0.061 Uiso calc 1
S S1 -0.03739(16) 0.94437(11) 0.24546(10) 0.0488(3) Uani d 1
S S2 -0.26116(16) 1.05857(11) 0.34154(11) 0.0472(3) Uani d 1
C C1 0.1253(6) 0.7383(4) 0.4832(4) 0.0395(9) Uani d 1
H H1 0.2556 0.7629 0.4521 0.047 Uiso calc 1
H H2 0.0433 0.8054 0.5297 0.047 Uiso calc 1
C C2 0.0112(6) 0.7605(4) 0.3617(4) 0.0397(9) Uani d 1
H H3 -0.1198 0.7370 0.3924 0.048 Uiso calc 1
H H4 0.0926 0.6931 0.3153 0.048 Uiso calc 1
O O1 0.3115(4) 0.5845(3) 0.8799(2) 0.0426(6) Uani d 1
C C3 -0.4926(6) 1.0338(4) 0.3006(4) 0.0474(10) Uani d 1
H H5 -0.4811 0.9287 0.3338 0.057 Uiso calc 1
H H6 -0.6103 1.0806 0.3486 0.057 Uiso calc 1
C C5 0.1261(5) 0.6340(4) 0.9035(4) 0.0365(8) Uani d 1
O O2 -0.0136(4) 0.6437(3) 0.8396(3) 0.0526(7) Uani d 1
C C4 -0.5334(6) 1.0955(4) 0.1531(4) 0.0432(9) Uani d 1
H H7 -0.4119 1.0551 0.1037 0.052 Uiso calc 1
H H8 -0.6486 1.0662 0.1372 0.052 Uiso calc 1
C C6 0.0799(6) 0.6893(5) 1.0234(4) 0.0483(10) Uani d 1
H H9 0.0993 0.7864 0.9946 0.072 Uiso calc 1
H H10 0.1723 0.6226 1.0963 0.072 Uiso calc 1
H H11 -0.0614 0.6939 1.0554 0.072 Uiso calc 1
loop_
_atom_site_aniso_label
_atom_site_aniso_U_11
_atom_site_aniso_U_22
_atom_site_aniso_U_33
_atom_site_aniso_U_12
_atom_site_aniso_U_13
_atom_site_aniso_U_23
Zn1 0.0315(3) 0.0388(3) 0.0309(3) -0.00430(19) -0.00581(19) -0.0056(2)
Cl1 0.0531(6) 0.0391(5) 0.0416(5) -0.0057(5) -0.0049(5) -0.0087(4)
Cl2 0.0361(5) 0.0510(6) 0.0440(6) -0.0130(4) 0.0023(4) -0.0161(5)
N1 0.0299(15) 0.0360(16) 0.0321(16) -0.0050(13) -0.0049(13) -0.0041(13)
N2 0.0350(16) 0.0451(18) 0.0339(17) -0.0058(14) -0.0067(14) -0.0071(14)
S1 0.0419(5) 0.0464(6) 0.0409(6) -0.0078(5) -0.0062(5) 0.0021(5)
S2 0.0519(6) 0.0395(5) 0.0438(6) -0.0048(5) -0.0164(5) -0.0087(4)
C1 0.0365(19) 0.0343(19) 0.040(2) -0.0060(16) -0.0127(17) -0.0031(17)
C2 0.040(2) 0.039(2) 0.034(2) -0.0057(17) -0.0078(16) -0.0068(16)
O1 0.0351(14) 0.0494(16) 0.0365(15) -0.0056(12) -0.0047(12) -0.0111(13)
C3 0.043(2) 0.046(2) 0.046(2) -0.0115(18) 0.0021(19) -0.0107(19)
C5 0.0272(18) 0.0367(19) 0.0322(19) -0.0080(15) -0.0094(16) 0.0053(15)
O2 0.0388(15) 0.0707(19) 0.0471(17) -0.0110(14) -0.0017(13) -0.0225(15)
C4 0.041(2) 0.042(2) 0.043(2) -0.0066(17) -0.0096(18) -0.0110(18)
C6 0.040(2) 0.059(2) 0.041(2) -0.0099(19) -0.0010(18) -0.0154(19)
loop_
_atom_type_symbol
_atom_type_description
_atom_type_scat_dispersion_real
_atom_type_scat_dispersion_imag
_atom_type_scat_source
C C 0.0033 0.0016 'International Tables Vol C Tables 4.2.6.8 and 6.1.1.4'
H H 0.0000 0.0000 'International Tables Vol C Tables 4.2.6.8 and 6.1.1.4'
N N 0.0061 0.0033 'International Tables Vol C Tables 4.2.6.8 and 6.1.1.4'
S S 0.1246 0.1234 'International Tables Vol C Tables 4.2.6.8 and 6.1.1.4'
Cl Cl 0.1484 0.1585 'International Tables Vol C Tables 4.2.6.8 and 6.1.1.4'
Zn Zn 0.2839 1.4301 'International Tables Vol C Tables 4.2.6.8 and 6.1.1.4'
O O 0.0106 0.0060 'International Tables Vol C Tables 4.2.6.8 and 6.1.1.4'
loop_
_geom_angle_atom_site_label_1
_geom_angle_atom_site_label_2
_geom_angle_atom_site_label_3
_geom_angle
O1 Zn1 N1 121.89(12)
O1 Zn1 Cl1 106.49(8)
N1 Zn1 Cl1 104.45(9)
O1 Zn1 Cl2 102.22(8)
N1 Zn1 Cl2 109.45(10)
Cl1 Zn1 Cl2 112.50(5)
C1 N1 Zn1 117.2(2)
C1 N1 H1A 108.0
Zn1 N1 H1A 108.0
C1 N1 H1B 108.0
Zn1 N1 H1B 108.0
H1A N1 H1B 107.2
C4 N2 H2A 109.5
C4 N2 H2B 109.5
H2A N2 H2B 109.5
C4 N2 H2C 109.5
H2A N2 H2C 109.5
H2B N2 H2C 109.5
C2 S1 S2 103.27(14)
C3 S2 S1 102.93(14)
N1 C1 C2 112.4(3)
N1 C1 H1 109.1
C2 C1 H1 109.1
N1 C1 H2 109.1
C2 C1 H2 109.1
H1 C1 H2 107.9
C1 C2 S1 111.6(2)
C1 C2 H3 109.3
S1 C2 H3 109.3
C1 C2 H4 109.3
S1 C2 H4 109.3
H3 C2 H4 108.0
C5 O1 Zn1 115.4(2)
C4 C3 S2 113.7(3)
C4 C3 H5 108.8
S2 C3 H5 108.8
C4 C3 H6 108.8
S2 C3 H6 108.8
H5 C3 H6 107.7
O2 C5 O1 125.7(4)
O2 C5 C6 119.8(3)
O1 C5 C6 114.5(3)
N2 C4 C3 111.7(3)
N2 C4 H7 109.3
C3 C4 H7 109.3
N2 C4 H8 109.3
C3 C4 H8 109.3
H7 C4 H8 107.9
C5 C6 H9 109.5
C5 C6 H10 109.5
H9 C6 H10 109.5
C5 C6 H11 109.5
H9 C6 H11 109.5
H10 C6 H11 109.5
loop_
_geom_bond_atom_site_label_1
_geom_bond_atom_site_label_2
_geom_bond_distance
Zn1 O1 1.977(3)
Zn1 N1 2.015(3)
Zn1 Cl1 2.2673(18)
Zn1 Cl2 2.2688(15)
N1 C1 1.465(4)
N1 H1A 0.9100
N1 H1B 0.9100
N2 C4 1.478(5)
N2 H2A 0.9100
N2 H2B 0.9100
N2 H2C 0.9100
S1 C2 1.800(4)
S1 S2 2.0384(17)
S2 C3 1.829(4)
C1 C2 1.524(5)
C1 H1 0.9900
C1 H2 0.9900
C2 H3 0.9900
C2 H4 0.9900
O1 C5 1.251(4)
C3 C4 1.500(5)
C3 H5 0.9900
C3 H6 0.9900
C5 O2 1.218(4)
C5 C6 1.545(5)
C4 H7 0.9900
C4 H8 0.9900
C6 H9 0.9800
C6 H10 0.9800
C6 H11 0.9800
loop_
_geom_hbond_atom_site_label_D
_geom_hbond_atom_site_label_H
_geom_hbond_atom_site_label_A
_geom_hbond_site_symmetry_A
_geom_hbond_distance_DH
_geom_hbond_distance_HA
_geom_hbond_distance_DA
_geom_hbond_angle_DHA
N1 H1A Cl2 2_666 0.91 2.53 3.436(4) 171.8
N1 H1B Cl2 1_455 0.91 2.70 3.522(4) 151.0
N1 H1B O2 . 0.91 2.62 3.075(4) 111.8
N2 H2A O2 2_476 0.91 1.84 2.730(4) 163.6
N2 H2B Cl1 1_464 0.91 2.32 3.190(4) 159.1
N2 H2C S2 . 0.91 2.81 3.261(3) 112.2
N2 H2C O1 2_576 0.91 2.06 2.922(4) 156.6
C2 H3 Cl2 1_455 0.99 2.85 3.705(4) 144.5
C3 H5 Cl1 2_566 0.99 2.92 3.690(5) 134.9
C4 H7 S1 . 0.99 2.88 3.412(4) 114.6
C6 H9 S1 2_576 0.98 2.97 3.765(5) 139.3
loop_
_geom_torsion_atom_site_label_1
_geom_torsion_atom_site_label_2
_geom_torsion_atom_site_label_3
_geom_torsion_atom_site_label_4
_geom_torsion
Zn1 N1 C1 C2 164.8(2)
N1 C1 C2 S1 -179.5(3)
S2 S1 C2 C1 -73.0(3)
S1 S2 C3 C4 -62.3(3)
Zn1 O1 C5 O2 3.3(5)
Zn1 O1 C5 C6 -175.2(2)
S2 C3 C4 N2 -67.0(4)
