#------------------------------------------------------------------------------
#$Date: 2016-05-04 19:23:38 +0300 (Wed, 04 May 2016) $
#$Revision: 182522 $
#$URL: svn://www.crystallography.net/cod/cif/1/54/29/1542950.cif $
#------------------------------------------------------------------------------
#
# This file is available in the Crystallography Open Database (COD),
# http://www.crystallography.net/
#
# All data on this site have been placed in the public domain by the
# contributors.
#
data_1542950
loop_
_publ_author_name
'Kelley, Brandon T.'
'Walters, Jennifer C.'
'Wengryniuk, Sarah E.'
_publ_section_title
;
 Access to Diverse Oxygen Heterocycles via Oxidative Rearrangement of
 Benzylic Tertiary Alcohols.
;
_journal_issue                   8
_journal_name_full               'Organic letters'
_journal_page_first              1896
_journal_page_last               1899
_journal_paper_doi               10.1021/acs.orglett.6b00672
_journal_volume                  18
_journal_year                    2016
_chemical_formula_sum            'C22 H22 F6 I N3 O8 S2'
_chemical_formula_weight         761.44
_space_group_crystal_system      triclinic
_space_group_IT_number           2
_space_group_name_Hall           '-P 1'
_space_group_name_H-M_alt        'P -1'
_symmetry_space_group_name_Hall  '-P 1'
_symmetry_space_group_name_H-M   'P -1'
_atom_sites_solution_hydrogens   geom
_audit_creation_method           SHELXL-2014/7
_cell_angle_alpha                71.6570(10)
_cell_angle_beta                 70.4240(10)
_cell_angle_gamma                72.9050(10)
_cell_formula_units_Z            2
_cell_length_a                   11.2415(7)
_cell_length_b                   12.0721(7)
_cell_length_c                   12.4456(7)
_cell_measurement_temperature    100(2)
_cell_volume                     1476.55(15)
_computing_structure_refinement  'SHELXL-2014/7 (Sheldrick, 2014)'
_diffrn_ambient_temperature      100(2)
_diffrn_measured_fraction_theta_full 0.999
_diffrn_measured_fraction_theta_max 0.998
_diffrn_radiation_type           MoK\a
_diffrn_radiation_wavelength     0.71073
_diffrn_reflns_av_unetI/netI     0.0459
_diffrn_reflns_Laue_measured_fraction_full 0.999
_diffrn_reflns_Laue_measured_fraction_max 0.998
_diffrn_reflns_limit_h_max       14
_diffrn_reflns_limit_h_min       -13
_diffrn_reflns_limit_k_max       15
_diffrn_reflns_limit_k_min       -14
_diffrn_reflns_limit_l_max       16
_diffrn_reflns_limit_l_min       0
_diffrn_reflns_number            7030
_diffrn_reflns_point_group_measured_fraction_full 0.999
_diffrn_reflns_point_group_measured_fraction_max 0.998
_diffrn_reflns_theta_full        25.242
_diffrn_reflns_theta_max         27.886
_diffrn_reflns_theta_min         1.789
_exptl_absorpt_coefficient_mu    1.312
_exptl_crystal_density_diffrn    1.713
_exptl_crystal_F_000             756
_refine_diff_density_max         1.019
_refine_diff_density_min         -0.480
_refine_diff_density_rms         0.103
_refine_ls_extinction_method     none
_refine_ls_goodness_of_fit_ref   1.043
_refine_ls_hydrogen_treatment    constr
_refine_ls_matrix_type           full
_refine_ls_number_parameters     383
_refine_ls_number_reflns         7030
_refine_ls_number_restraints     0
_refine_ls_restrained_S_all      1.043
_refine_ls_R_factor_all          0.0433
_refine_ls_R_factor_gt           0.0299
_refine_ls_shift/su_max          0.002
_refine_ls_shift/su_mean         0.000
_refine_ls_structure_factor_coef Fsqd
_refine_ls_weighting_details
'w=1/[\s^2^(Fo^2^)+(0.0372P)^2^] where P=(Fo^2^+2Fc^2^)/3'
_refine_ls_weighting_scheme      calc
_refine_ls_wR_factor_gt          0.0652
_refine_ls_wR_factor_ref         0.0683
_reflns_Friedel_coverage         0.000
_reflns_number_gt                5904
_reflns_number_total             7030
_reflns_threshold_expression     'I > 2\s(I)'
_cod_data_source_file            ol6b00672_si_002.cif
_cod_data_source_block           solvefin
_cod_depositor_comments
'Adding full bibliography for 1542950--1542951.cif.'
_cod_database_code               1542950
_shelx_shelxl_version_number     2014/7
_shelx_space_group_comment
;
The symmetry employed for this shelxl refinement is uniquely defined
by the following loop, which should always be used as a source of
symmetry information in preference to the above space-group names.
They are only intended as comments.
;
_shelx_res_file
;

    solvefin.res created by SHELXL-2014/7


TITL solvefin.res in P-1
CELL 0.71073 11.2415 12.0721 12.4456 71.657 70.424 72.905
ZERR 2 0.0007 0.0007 0.0007 0.001 0.001 0.001
LATT 1
SFAC C H N O F S I
UNIT 44.00 44.00  6.00 16.00  12.00 4.00  2.00

L.S. 16
PLAN  20
TEMP -173.11
BOND $H
ACTA
CONF
LIST 6
fmap 2
REM <olex2.extras>
REM <HklSrc "%.\\twin5.hkl">
REM </olex2.extras></olex2.extras></olex2.extras></olex2.extras></olex2.extras><

WGHT    0.037200
BASF   0.49116
FVAR       0.28771
I1    7    0.475928    0.605290    0.725432    11.00000    0.01188    0.01701 =
         0.01056   -0.00365   -0.00291   -0.00495
N1    3    0.609399    0.627450    0.545622    11.00000    0.01237    0.01549 =
         0.01327   -0.00527   -0.00401   -0.00424
N2    3    0.332685    0.626829    0.895605    11.00000    0.01392    0.01625 =
         0.01097   -0.00419   -0.00189   -0.00589
N3    3   -0.079066    0.860808    1.155426    11.00000    0.03899    0.05197 =
         0.07256    0.00572    0.00240    0.00689
S1    6    0.771725    0.324356    0.592400    11.00000    0.01481    0.02180 =
         0.01187   -0.00463   -0.00239   -0.00611
S2    6    0.312197    0.324580    0.986325    11.00000    0.01531    0.01867 =
         0.01244   -0.00440   -0.00390   -0.00466
O1    4    0.752480    0.636378    0.627576    11.00000    0.01158    0.04000 =
         0.01586   -0.01117   -0.00390   -0.00675
O2    4    0.185737    0.636670    0.809497    11.00000    0.00966    0.03657 =
         0.01291   -0.00707   -0.00420   -0.00732
O3    4    0.872801    0.361985    0.609791    11.00000    0.01451    0.03085 =
         0.02580   -0.00886   -0.00389   -0.00736
O4    4    0.779323    0.332430    0.472463    11.00000    0.04102    0.03603 =
         0.01270   -0.00711   -0.00806   -0.00788
O5    4    0.643950    0.365933    0.661989    11.00000    0.01357    0.03290 =
         0.01884   -0.00839   -0.00364   -0.00614
O6    4    0.415283    0.375116    0.895220    11.00000    0.01598    0.02205 =
         0.01795   -0.00359   -0.00337   -0.00862
O7    4    0.193106    0.351869    0.954762    11.00000    0.01198    0.03984 =
         0.02514   -0.01070   -0.00559   -0.00452
O8    4    0.300026    0.334742    1.102764    11.00000    0.02551    0.02814 =
         0.01414   -0.00991   -0.00172   -0.00324
F1    5    0.921955    0.111698    0.602530    11.00000    0.05339    0.03323 =
         0.06653   -0.01935   -0.01651    0.01571
F2    5    0.794802    0.138762    0.769597    11.00000    0.07254    0.03196 =
         0.03079    0.00709   -0.02581   -0.01399
F3    5    0.719974    0.113015    0.643572    11.00000    0.07629    0.03546 =
         0.05958   -0.00333   -0.03205   -0.03087
F4    5    0.483222    0.127141    1.023568    11.00000    0.05848    0.02762 =
         0.05800   -0.01639   -0.04013    0.01571
F5    5    0.388911    0.139316    0.894206    11.00000    0.05710    0.02736 =
         0.03086   -0.01557   -0.01646   -0.00700
F6    5    0.288375    0.102399    1.078448    11.00000    0.08840    0.03500 =
         0.03473    0.00401   -0.00254   -0.03510
C1    1    0.567769    0.629362    0.454107    11.00000    0.01326    0.01993 =
         0.01528   -0.00472   -0.00813   -0.00577
AFIX  43
H1    2    0.481063    0.624099    0.467556    11.00000   -1.20000
AFIX   0
C2    1    0.648076    0.638661    0.343980    11.00000    0.02015    0.01865 =
         0.01498   -0.00246   -0.00703   -0.00582
AFIX  43
H2    2    0.618327    0.640103    0.280446    11.00000   -1.20000
AFIX   0
C3    1    0.775380    0.646081    0.325729    11.00000    0.02229    0.02019 =
         0.01595   -0.00494   -0.00405   -0.00246
AFIX  43
H3    2    0.833145    0.651692    0.249297    11.00000   -1.20000
AFIX   0
C4    1    0.817749    0.645304    0.418218    11.00000    0.01722    0.01766 =
         0.01593   -0.00574   -0.00421   -0.00462
AFIX  43
H4    2    0.903999    0.650967    0.406205    11.00000   -1.20000
AFIX   0
C5    1    0.731419    0.636059    0.529091    11.00000    0.01493    0.01761 =
         0.02099   -0.00670   -0.00808   -0.00199
C6    1    0.880574    0.639949    0.625961    11.00000    0.01275    0.06405 =
         0.02197   -0.01721   -0.00675   -0.01005
AFIX 137
H6A   2    0.901502    0.716482    0.576544    11.00000   -1.50000
H6B   2    0.943563    0.574639    0.594123    11.00000   -1.50000
H6C   2    0.883443    0.631144    0.706120    11.00000   -1.50000
AFIX   0
C7    1    0.374852    0.627910    0.985339    11.00000    0.01617    0.01821 =
         0.01916   -0.00427   -0.00831   -0.00276
AFIX  43
H7    2    0.464033    0.623108    0.973534    11.00000   -1.20000
AFIX   0
C8    1    0.290197    0.635858    1.092928    11.00000    0.02047    0.02352 =
         0.01099   -0.00726   -0.00551   -0.00367
AFIX  43
H8    2    0.319562    0.636732    1.155836    11.00000   -1.20000
AFIX   0
C9    1    0.159390    0.642649    1.107677    11.00000    0.01991    0.02955 =
         0.01198   -0.00575   -0.00213   -0.00448
AFIX  43
H9    2    0.099480    0.646210    1.182051    11.00000   -1.20000
AFIX   0
C10   1    0.116797    0.644217    1.015882    11.00000    0.00979    0.02957 =
         0.01904   -0.00777    0.00104   -0.00687
AFIX  43
H10   2    0.027746    0.651094    1.025073    11.00000   -1.20000
AFIX   0
C11   1    0.207880    0.635428    0.908437    11.00000    0.01436    0.02021 =
         0.01186   -0.00622   -0.00250   -0.00540
C12   1    0.056655    0.638790    0.810866    11.00000    0.01082    0.06574 =
         0.02451   -0.01146   -0.00707   -0.01321
AFIX 137
H12A  2    0.055063    0.640421    0.732128    11.00000   -1.50000
H12B  2   -0.001969    0.710116    0.834762    11.00000   -1.50000
H12C  2    0.028916    0.567278    0.866640    11.00000   -1.50000
AFIX   0
C13   1    0.435783    0.791986    0.682159    11.00000    0.01485    0.01633 =
         0.01145   -0.00458   -0.00056   -0.00076
C14   1    0.338739    0.851938    0.627245    11.00000    0.01942    0.02765 =
         0.01752   -0.00461   -0.00318   -0.00509
AFIX  43
H14   2    0.292707    0.810341    0.607050    11.00000   -1.20000
AFIX   0
C15   1    0.310883    0.978125    0.602375    11.00000    0.02740    0.02258 =
         0.02469   -0.00312   -0.00857    0.00283
AFIX  43
H15   2    0.244473    1.023126    0.565114    11.00000   -1.20000
AFIX   0
C16   1    0.379312    1.035244    0.631858    11.00000    0.04066    0.01825 =
         0.02723   -0.00636    0.00324   -0.00426
AFIX  43
H16   2    0.360719    1.120019    0.613794    11.00000   -1.20000
AFIX   0
C17   1    0.476659    0.970895    0.688395    11.00000    0.03818    0.03078 =
         0.01884   -0.00913    0.00067   -0.01646
AFIX  43
H17   2    0.522870    1.012056    0.708914    11.00000   -1.20000
AFIX   0
C18   1    0.504754    0.849746    0.713752    11.00000    0.02305    0.01946 =
         0.01695   -0.00516   -0.00432   -0.00962
AFIX  43
H18   2    0.570225    0.805264    0.752314    11.00000   -1.20000
AFIX   0
C19   1    0.804120    0.164285    0.654324    11.00000    0.04049    0.02691 =
         0.02945   -0.00501   -0.01341   -0.01076
C20   1    0.371277    0.165286    0.995684    11.00000    0.04130    0.02172 =
         0.02072   -0.00504   -0.00899   -0.00831
C21   1   -0.134136    0.950972    1.112713    11.00000    0.03236    0.03327 =
         0.04706   -0.00514    0.00187   -0.00038
C22   1   -0.205550    1.063059    1.057612    11.00000    0.03965    0.04408 =
         0.04713   -0.01085   -0.00213   -0.01339
AFIX 137
H22A  2   -0.149324    1.098093    0.982789    11.00000   -1.50000
H22B  2   -0.235832    1.117968    1.109427    11.00000   -1.50000
H22C  2   -0.279884    1.049063    1.043286    11.00000   -1.50000

AFIX   0
HKLF 5

REM  solvefin.res in P-1
REM R1 =  0.0299 for    5904 Fo > 4sig(Fo)  and  0.0433 for all    7030 data
REM    383 parameters refined using      0 restraints

END

WGHT      0.0372      0.0000

REM Highest difference peak  1.019,  deepest hole -0.480,  1-sigma level  0.103
Q1    1   0.5646  0.1783  0.8281  11.00000  0.05    1.02
Q2    1   0.4286  0.6823  0.7164  11.00000  0.05    0.68
Q3    1   0.2784  0.4631  0.9516  11.00000  0.05    0.63
Q4    1   0.7336  0.4629  0.5644  11.00000  0.05    0.61
Q5    1  -0.0845  1.0200  1.1025  11.00000  0.05    0.53
Q6    1   0.9423  0.6082  0.2085  11.00000  0.05    0.52
Q7    1   0.0177  0.6029  1.2387  11.00000  0.05    0.51
Q8    1   0.3407  0.2439  0.9958  11.00000  0.05    0.51
Q9    1   0.8628  0.6497  0.4174  11.00000  0.05    0.51
Q10   1   0.6602  0.6430  0.5440  11.00000  0.05    0.50
Q11   1   0.6241  0.4004  0.6624  11.00000  0.05    0.47
Q12   1   0.7726  0.2396  0.6260  11.00000  0.05    0.45
Q13   1   0.3598  1.1180  0.5340  11.00000  0.05    0.44
Q14   1   0.5000  0.0000  1.0000  10.50000  0.05    0.43
Q15   1  -0.1810  1.1174  1.1383  11.00000  0.05    0.41
Q16   1   0.5974  0.5829  0.4698  11.00000  0.05    0.41
Q17   1   0.4866  0.5209  0.7536  11.00000  0.05    0.39
Q18   1   0.2428  0.3403  0.9556  11.00000  0.05    0.39
Q19   1   0.2322  0.6149  1.0971  11.00000  0.05    0.39
Q20   1   0.5761  0.6521  0.4936  11.00000  0.05    0.39
;
_shelx_res_checksum              43183
_shelx_hkl_file
;
   1   0   0 1064.00 15.7415   1
   2   0   0 125.789 1.36853   1
   3   0   0 322.416 3.17449   1
   4   0   0 148.245 1.75750   1
   5   0   0 108.856 1.75237   1
   6   0   0 79.6856 1.67657   1
   7   3   0 339.779 8.76483  -2
   7   0   0 339.779 8.76483   1
   8   0   0 4.15769 0.98050   1
   9   4   0 5.24956 2.25643  -2
   9   0   0 5.24956 2.25643   1
  10   0   0 17.4162 1.71971   1
  11   5   0 15.1988 2.74921  -2
  11   0   0 15.1988 2.74921   1
  12   0   0 12.2817 2.11535   1
  13   6   0 20.2644 4.55626  -2
  13   0   0 20.2644 4.55626   1
  13   7   0 10.2750 4.80894  -2
 -13   1   0 10.2750 4.80894   1
 -12   1   0 28.7030 2.44577   1
  11   6   0 16.9371 2.88181  -2
 -11   1   0 16.9371 2.88181   1
 -10   1   0 16.1810 1.75930   1
   9   5   0 158.091 3.43135  -2
  -9   1   0 158.091 3.43135   1
  -8   1   0 85.5539 2.05899   1
   7   4   0 11.6126 2.44551  -2
  -7   1   0 11.6126 2.44551   1
  -6   1   0 23.7463 0.91024   1
  -5   1   0 23.9748 0.81383   1
  -4   1   0 8.04962 0.65429   1
  -3   1   0 147.068 1.66644   1
   2   2   0 422.360 8.96191  -2
  -2   1   0 422.360 8.96191   1
  -1   1   0 15.6926 0.40121   1
   0   1   0 1475.92 15.9119  -2
   0   1   0 1475.92 15.9119   1
   1   1   0 264.316 2.96150   1
   2   1   0 106.789 1.47996   1
   3   1   0 135.463 1.71301   1
   4   1   0 292.310 3.27139   1
   5   1   0 84.6536 1.54695   1
   6   1   0 52.1316 1.36596   1
   7   2   0 190.033 6.02979  -2
   7   1   0 190.033 6.02979   1
   8   1   0 232.835 3.76830   1
   9   3   0 219.562 4.77252  -2
   9   1   0 219.562 4.77252   1
  10   1   0 13.9592 1.63942   1
  11   4   0 41.4624 2.84572  -2
  11   1   0 41.4624 2.84572   1
  12   1   0 3.20080 1.89927   1
  13   5   0 1.61921 3.99022  -2
  13   1   0 1.61921 3.99022   1
  13   8   0 29.4042 5.17327  -2
 -13   2   0 29.4042 5.17327   1
 -12   2   0 74.9533 3.61874   1
  11   7   0 187.897 4.53838  -2
 -11   2   0 187.897 4.53838   1
 -10   2   0 95.6144 3.18124   1
   9   6   0 288.059 5.22837  -2
  -9   2   0 288.059 5.22837   1
  -8   2   0 100.428 2.48612   1
   7   5   0 88.0272 2.35498  -2
  -7   2   0 88.0272 2.35498   1
  -6   2   0 14.6508 0.85435   1
  -5   2   0 -0.1424 0.60030   1
   4   4   0 114.775 3.01928  -2
  -4   2   0 114.775 3.01928   1
  -3   2   0 110.589 1.45001   1
   2   3   0 301.004 2.99041  -2
  -2   2   0 301.004 2.99041   1
  -1   2   0 42.5384 0.86552   1
   0   2   0 140.142 1.79192  -2
   0   2   0 140.142 1.79192   1
   1   2   0 12.9343 0.49299   1
  -2   1   0 408.462 6.42552  -2
   2   2   0 408.462 6.42552   1
   3   2   0 352.208 4.17058   1
   4   2   0 104.158 1.59077   1
   5   2   0 106.059 1.72754   1
   6   2   0 82.0110 1.68066   1
   7   1   0 202.140 6.33424  -2
   7   2   0 202.140 6.33424   1
   8   2   0 297.322 4.37300   1
   9   2   0 856.210 14.4008  -2
   9   2   0 856.210 14.4008   1
  10   2   0 99.4640 2.96312   1
  11   3   0 78.1676 3.14897  -2
  11   2   0 78.1676 3.14897   1
  12   2   0 75.2912 2.90816   1
  13   4   0 31.6038 3.77756  -2
  13   2   0 31.6038 3.77756   1
 -12   3   0 12.0089 2.70823   1
  11   8   0 237.587 5.91535  -2
 -11   3   0 237.587 5.91535   1
 -10   3   0 91.0913 3.12483   1
   9   7   0 105.807 3.58601  -2
  -9   3   0 105.807 3.58601   1
  -8   3   0 120.609 2.78351   1
   7   6   0 357.170 5.12554  -2
  -7   3   0 357.170 5.12554   1
   6   6   0 311.044 8.28152  -2
  -6   3   0 311.044 8.28152   1
  -5   3   0 44.6179 1.15077   1
   4   5   0 53.1066 1.85653  -2
  -4   3   0 53.1066 1.85653   1
  -3   3   0 75.2450 1.35608   1
   2   4   0 389.062 4.24188  -2
  -2   3   0 389.062 4.24188   1
  -1   3   0 73.0309 1.36520   1
   0   3   0 4082.12 43.6373  -2
   0   3   0 4082.12 43.6373   1
   1   3   0 1.50994 0.51044   1
  -2   2   0 303.957 3.72040  -2
   2   3   0 303.957 3.72040   1
   3   3   0 10.0578 0.68563   1
   4   3   0 3.19475 0.60978   1
   5   3   0 9.51008 0.75603   1
   6   3   0 24.0778 1.01688   1
   7   0   0 333.471 5.47616  -2
   7   3   0 333.471 5.47616   1
   8   3   0 154.462 2.97457   1
   9   1   0 235.602 5.70949  -2
   9   3   0 235.602 5.70949   1
  10   3   0 72.0485 3.29885   1
  11   2   0 71.8706 3.09570  -2
  11   3   0 71.8706 3.09570   1
  12   3   0 111.127 3.69950   1
  13   3   0 137.105 4.60627  -2
  13   3   0 137.105 4.60627   1
 -12   4   0 -0.3018 2.59799   1
  11   9   0 23.2650 3.89689  -2
 -11   4   0 23.2650 3.89689   1
 -10   4   0 27.4291 2.30867   1
   9   8   0 10.8586 3.18634  -2
  -9   4   0 10.8586 3.18634   1
   8   8   0 32.0904 5.85320  -2
  -8   4   0 32.0904 5.85320   1
   7   7   0 585.239 7.48096  -2
  -7   4   0 585.239 7.48096   1
   6   7   0 411.977 10.4115  -2
  -6   4   0 411.977 10.4115   1
  -5   4   0 50.7536 1.30185   1
   4   6   0 100.323 2.13829  -2
  -4   4   0 100.323 2.13829   1
  -3   4   0 224.980 2.61644   1
   2   5   0 172.652 2.42224  -2
  -2   4   0 172.652 2.42224   1
  -1   4   0 410.842 4.90918   1
   0   4   0 9999.99 95.6016  -2
   0   4   0 9999.99 95.6016   1
   1   4   0 226.766 2.65182   1
  -2   3   0 384.533 4.66076  -2
   2   4   0 384.533 4.66076   1
   3   4   0 121.966 1.96924   1
  -4   2   0 120.279 2.59952  -2
   4   4   0 120.279 2.59952   1
   5   4   0 52.9298 1.36963   1
   6   4   0 24.7163 1.07390   1
  -7   1   0 15.9098 2.28968  -2
   7   4   0 15.9098 2.28968   1
   8   4   0 4.31433 1.19034   1
   9   0   0 -0.8338 3.28230  -2
   9   4   0 -0.8338 3.28230   1
  10   4   0 3.99573 2.05056   1
  11   1   0 37.9682 3.90566  -2
  11   4   0 37.9682 3.90566   1
  12   4   0 20.1324 2.12892   1
  13   2   0 31.3329 3.78956  -2
  13   4   0 31.3329 3.78956   1
  11  10   0 17.2195 4.17950  -2
 -11   5   0 17.2195 4.17950   1
 -10   5   0 2.14526 2.16506   1
   9   9   0 1.96777 3.71134  -2
  -9   5   0 1.96777 3.71134   1
   8   9   0 15.5467 5.67662  -2
  -8   5   0 15.5467 5.67662   1
   7   8   0 92.6902 3.22740  -2
  -7   5   0 92.6902 3.22740   1
   6   8   0 137.102 3.81037  -2
  -6   5   0 137.102 3.81037   1
   5   7   0 51.2921 3.66049  -2
  -5   5   0 51.2921 3.66049   1
   4   7   0 9.30797 1.95915  -2
  -4   5   0 9.30797 1.95915   1
  -3   5   0 192.247 2.69318   1
   2   6   0 1461.76 14.5651  -2
  -2   5   0 1461.76 14.5651   1
  -1   5   0 313.788 3.63226   1
   0   5   0 415.368 4.54355  -2
   0   5   0 415.368 4.54355   1
   1   5   0 529.646 5.59437   1
  -2   4   0 184.023 2.77057  -2
   2   5   0 184.023 2.77057   1
   3   5   0 178.577 2.46908   1
  -4   3   0 55.0040 1.99217  -2
   4   5   0 55.0040 1.99217   1
   5   5   0 0.65657 0.81193   1
   6   5   0 36.3253 1.40791   1
  -7   2   0 96.2193 2.96127  -2
   7   5   0 96.2193 2.96127   1
   8   5   0 109.305 2.69656   1
  -9   1   0 167.262 5.12024  -2
   9   5   0 167.262 5.12024   1
  10   5   0 0.75028 1.97430   1
  11   0   0 15.1006 3.72848  -2
  11   5   0 15.1006 3.72848   1
  12   5   0 0.13458 2.65875   1
  13   1   0 0.06890 3.52181  -2
  13   5   0 0.06890 3.52181   1
  11  11   0 154.700 7.99065  -2
 -11   6   0 154.700 7.99065   1
 -10   6   0 47.6032 4.40975   1
   9  10   0 4.95450 5.81710  -2
  -9   6   0 4.95450 5.81710   1
   8  10   0 18.0627 6.15315  -2
  -8   6   0 18.0627 6.15315   1
   7   9   0 164.112 4.86303  -2
  -7   6   0 164.112 4.86303   1
   6   9   0 95.2439 4.14631  -2
  -6   6   0 95.2439 4.14631   1
   5   8   0 17.9789 4.76835  -2
  -5   6   0 17.9789 4.76835   1
   4   8   0 14.9643 2.43283  -2
  -4   6   0 14.9643 2.43283   1
  -3   6   0 -0.4029 0.85480   1
   2   7   0 406.558 4.79261  -2
  -2   6   0 406.558 4.79261   1
  -1   6   0 30.2822 1.20855   1
   0   6   0 409.499 4.62374  -2
   0   6   0 409.499 4.62374   1
   1   6   0 61.7681 1.48577   1
  -2   5   0 1465.98 16.2764  -2
   2   6   0 1465.98 16.2764   1
   3   6   0 218.191 2.91020   1
  -4   4   0 100.164 2.47436  -2
   4   6   0 100.164 2.47436   1
   5   6   0 110.306 2.27237   1
  -6   3   0 344.022 8.90106  -2
   6   6   0 344.022 8.90106   1
  -7   3   0 355.178 5.40771  -2
   7   6   0 355.178 5.40771   1
   8   6   0 166.136 3.74415   1
  -9   2   0 284.825 6.68110  -2
   9   6   0 284.825 6.68110   1
  10   6   0 37.6010 2.82468   1
 -11   1   0 20.7024 3.73247  -2
  11   6   0 20.7024 3.73247   1
  12   6   0 33.3247 3.36278   1
  13   0   0 25.5429 3.68481  -2
  13   6   0 25.5429 3.68481   1
 -10   7   0 50.5559 4.78517   1
   9  11   0 29.0755 6.70110  -2
  -9   7   0 29.0755 6.70110   1
   8  11   0 57.3701 7.26269  -2
  -8   7   0 57.3701 7.26269   1
   7  10   0 111.653 5.43224  -2
  -7   7   0 111.653 5.43224   1
   6  10   0 114.567 4.67913  -2
  -6   7   0 114.567 4.67913   1
   5   9   0 19.3263 4.25574  -2
  -5   7   0 19.3263 4.25574   1
   4   9   0 46.6685 3.30306  -2
  -4   7   0 46.6685 3.30306   1
  -3   7   0 46.4692 1.92226   1
   2   8   0 18.7674 1.99330  -2
  -2   7   0 18.7674 1.99330   1
  -1   7   0 0.21913 0.86205   1
   0   7   0 300.103 3.76391  -2
   0   7   0 300.103 3.76391   1
   1   7   0 37.9621 1.28421   1
  -2   6   0 399.611 4.69678  -2
   2   7   0 399.611 4.69678   1
   3   7   0 52.9132 1.49981   1
  -4   5   0 6.35838 2.05653  -2
   4   7   0 6.35838 2.05653   1
  -5   5   0 47.0875 3.52649  -2
   5   7   0 47.0875 3.52649   1
  -6   4   0 426.883 6.00222  -2
   6   7   0 426.883 6.00222   1
  -7   4   0 575.003 8.69661  -2
   7   7   0 575.003 8.69661   1
   8   7   0 84.3388 3.51321   1
  -9   3   0 114.071 4.88573  -2
   9   7   0 114.071 4.88573   1
  10   7   0 134.580 4.76857   1
 -11   2   0 184.788 5.79211  -2
  11   7   0 184.788 5.79211   1
  12   7   0 74.8085 4.15416   1
 -13   1   0 22.8300 5.98099  -2
  13   7   0 22.8300 5.98099   1
   9  12   0 70.7064 7.86572  -2
  -9   8   0 70.7064 7.86572   1
   8  12   0 102.521 9.27099  -2
  -8   8   0 102.521 9.27099   1
   7  11   0 301.748 10.3030  -2
  -7   8   0 301.748 10.3030   1
   6  11   0 229.168 7.24899  -2
  -6   8   0 229.168 7.24899   1
   5  10   0 84.9855 4.53729  -2
  -5   8   0 84.9855 4.53729   1
   4  10   0 44.7091 3.72029  -2
  -4   8   0 44.7091 3.72029   1
  -3   8   0 22.6994 1.77493   1
   2   9   0 335.746 5.06942  -2
  -2   8   0 335.746 5.06942   1
  -1   8   0 123.887 2.75163   1
   0   8   0 728.460 8.81350  -2
   0   8   0 728.460 8.81350   1
   1   8   0 42.5279 1.60389   1
  -2   7   0 21.5044 2.03686  -2
   2   8   0 21.5044 2.03686   1
  -3   7   0 108.479 6.95047  -2
   3   8   0 108.479 6.95047   1
  -4   6   0 11.1699 2.35377  -2
   4   8   0 11.1699 2.35377   1
  -5   6   0 18.9540 2.88734  -2
   5   8   0 18.9540 2.88734   1
  -6   5   0 129.449 3.96590  -2
   6   8   0 129.449 3.96590   1
  -7   5   0 103.052 4.60412  -2
   7   8   0 103.052 4.60412   1
   8   8   0 14.5781 2.19510   1
  -9   4   0 9.65155 4.03632  -2
   9   8   0 9.65155 4.03632   1
  10   8   0 54.8323 3.36726   1
 -11   3   0 230.819 6.66757  -2
  11   8   0 230.819 6.66757   1
  12   8   0 30.6488 3.53381   1
 -13   2   0 24.5884 6.31926  -2
  13   8   0 24.5884 6.31926   1
   9  13   0 68.8715 8.49860  -2
  -9   9   0 68.8715 8.49860   1
   8  13   0 39.0687 9.50322  -2
  -8   9   0 39.0687 9.50322   1
   7  12   0 39.8074 7.68245  -2
  -7   9   0 39.8074 7.68245   1
   6  12   0 37.6824 7.14261  -2
  -6   9   0 37.6824 7.14261   1
   5  11   0 134.047 6.18780  -2
  -5   9   0 134.047 6.18780   1
   4  11   0 118.733 5.44127  -2
  -4   9   0 118.733 5.44127   1
  -3   9   0 123.729 3.60401   1
   2  10   0 450.582 7.42551  -2
  -2   9   0 450.582 7.42551   1
  -1   9   0 124.134 3.07412   1
   0   9   0 41.2424 2.14533  -2
   0   9   0 41.2424 2.14533   1
   1   9   0 134.566 3.01815   1
  -2   8   0 329.338 4.98624  -2
   2   9   0 329.338 4.98624   1
  -3   8   0 72.1551 7.28236  -2
   3   9   0 72.1551 7.28236   1
  -4   7   0 45.5860 3.17156  -2
   4   9   0 45.5860 3.17156   1
  -5   7   0 22.9780 3.64969  -2
   5   9   0 22.9780 3.64969   1
  -6   6   0 86.8316 4.75804  -2
   6   9   0 86.8316 4.75804   1
  -7   6   0 162.974 5.65989  -2
   7   9   0 162.974 5.65989   1
   8   9   0 14.5156 2.35715   1
  -9   5   0 2.87719 4.46410  -2
   9   9   0 2.87719 4.46410   1
  10   9   0 7.52457 2.75420   1
 -11   4   0 15.5945 4.67068  -2
  11   9   0 15.5945 4.67068   1
  12   9   0 3.55056 3.23155   1
  -8  10   0 3.07763 3.99398   1
   7  13   0 21.6576 8.48245  -2
  -7  10   0 21.6576 8.48245   1
   6  13   0 13.7584 8.18145  -2
  -6  10   0 13.7584 8.18145   1
   5  12   0 151.797 7.01923  -2
  -5  10   0 151.797 7.01923   1
   4  12   0 195.181 6.82914  -2
  -4  10   0 195.181 6.82914   1
   3  11   0 61.9617 9.61200  -2
  -3  10   0 61.9617 9.61200   1
   2  11   0 147.516 5.25450  -2
  -2  10   0 147.516 5.25450   1
  -1  10   0 66.7875 3.17061   1
   0  10   0 1.19393 2.50228  -2
   0  10   0 1.19393 2.50228   1
   1  10   0 101.858 3.81191   1
  -2   9   0 460.327 8.97474  -2
   2  10   0 460.327 8.97474   1
  -3   9   0 172.155 9.03939  -2
   3  10   0 172.155 9.03939   1
  -4   8   0 50.1898 4.22300  -2
   4  10   0 50.1898 4.22300   1
  -5   8   0 67.1436 5.02078  -2
   5  10   0 67.1436 5.02078   1
  -6   7   0 120.991 5.35969  -2
   6  10   0 120.991 5.35969   1
  -7   7   0 108.784 5.42512  -2
   7  10   0 108.784 5.42512   1
   8  10   0 8.97807 2.48703   1
  -9   6   0 2.24630 4.95115  -2
   9  10   0 2.24630 4.95115   1
  10  10   0 11.0919 2.94704   1
 -11   5   0 23.6637 4.99232  -2
  11  10   0 23.6637 4.99232   1
  12  10   0 0.89177 3.40738   1
   7  14   0 22.4037 9.31608  -2
  -7  11   0 22.4037 9.31608   1
   6  14   0 11.3904 8.81451  -2
  -6  11   0 11.3904 8.81451   1
   5  13   0 18.2749 8.32773  -2
  -5  11   0 18.2749 8.32773   1
   4  13   0 32.9593 6.08923  -2
  -4  11   0 32.9593 6.08923   1
   3  12   0 -3.7400 5.71646  -2
  -3  11   0 -3.7400 5.71646   1
   2  12   0 7.62970 4.50621  -2
  -2  11   0 7.62970 4.50621   1
  -1  11   0 8.77852 2.35799   1
   0  11   0 18.5999 3.09095  -2
   0  11   0 18.5999 3.09095   1
   1  11   0 62.0457 3.29243   1
  -2  10   0 150.879 5.41580  -2
   2  11   0 150.879 5.41580   1
  -3  10   0 69.4182 9.08555  -2
   3  11   0 69.4182 9.08555   1
  -4   9   0 107.248 5.20266  -2
   4  11   0 107.248 5.20266   1
  -5   9   0 135.794 6.02634  -2
   5  11   0 135.794 6.02634   1
  -6   8   0 217.013 6.87386  -2
   6  11   0 217.013 6.87386   1
  -7   8   0 300.557 8.06989  -2
   7  11   0 300.557 8.06989   1
  -8   7   0 74.6296 10.6163  -2
   8  11   0 74.6296 10.6163   1
  -9   7   0 36.3032 5.59332  -2
   9  11   0 36.3032 5.59332   1
  10  11   0 64.7079 4.17405   1
 -11   6   0 157.197 6.85453  -2
  11  11   0 157.197 6.85453   1
   5  14   0 22.6496 9.55349  -2
  -5  12   0 22.6496 9.55349   1
   4  14   0 47.1470 8.34841  -2
  -4  12   0 47.1470 8.34841   1
   3  13   0 0.18453 7.89646  -2
  -3  12   0 0.18453 7.89646   1
   2  13   0 50.8396 5.31949  -2
  -2  12   0 50.8396 5.31949   1
  -1  12   0 15.8918 2.80832   1
   0  12   0 28.9198 3.02290  -2
   0  12   0 28.9198 3.02290   1
   1  12   0 0.73203 2.41689   1
  -2  11   0 0.87841 4.48568  -2
   2  12   0 0.87841 4.48568   1
  -3  11   0 0.86779 6.04240  -2
   3  12   0 0.86779 6.04240   1
  -4  10   0 204.230 6.75543  -2
   4  12   0 204.230 6.75543   1
  -5  10   0 137.274 6.60076  -2
   5  12   0 137.274 6.60076   1
  -6   9   0 30.9301 5.52700  -2
   6  12   0 30.9301 5.52700   1
  -7   9   0 42.0801 5.94627  -2
   7  12   0 42.0801 5.94627   1
  -8   8   0 95.5019 7.39016  -2
   8  12   0 95.5019 7.39016   1
  -9   8   0 66.7430 6.41381  -2
   9  12   0 66.7430 6.41381   1
  10  12   0 40.7337 4.03020   1
   4  15   0 130.863 10.1415  -2
  -4  13   0 130.863 10.1415   1
   3  14   0 20.6100 9.69599  -2
  -3  13   0 20.6100 9.69599   1
   2  14   0 30.9050 7.35750  -2
  -2  13   0 30.9050 7.35750   1
  -1  13   0 35.1541 3.56410   1
   0  13   0 28.2357 3.40195  -2
   0  13   0 28.2357 3.40195   1
   1  13   0 30.2936 3.31438   1
  -2  12   0 53.1055 5.50050  -2
   2  13   0 53.1055 5.50050   1
  -3  12   0 -4.1396 6.77909  -2
   3  13   0 -4.1396 6.77909   1
  -4  11   0 39.0330 5.84276  -2
   4  13   0 39.0330 5.84276   1
  -5  11   0 20.8142 6.34037  -2
   5  13   0 20.8142 6.34037   1
  -6  10   0 10.9201 6.17932  -2
   6  13   0 10.9201 6.17932   1
  -7  10   0 20.4943 6.52038  -2
   7  13   0 20.4943 6.52038   1
  -8   9   0 47.9204 7.63130  -2
   8  13   0 47.9204 7.63130   1
  -9   9   0 57.3732 6.98126  -2
   9  13   0 57.3732 6.98126   1
   2  15   0 29.5134 8.08339  -2
  -2  14   0 29.5134 8.08339   1
  -1  14   0 25.9083 4.56243   1
   0  14   0 42.3208 3.99880  -2
   0  14   0 42.3208 3.99880   1
   1  14   0 49.2351 3.95758   1
  -2  13   0 32.3737 5.98462  -2
   2  14   0 32.3737 5.98462   1
  -3  13   0 22.5826 7.72323  -2
   3  14   0 22.5826 7.72323   1
  -4  12   0 37.6671 6.46999  -2
   4  14   0 37.6671 6.46999   1
  -5  12   0 31.2277 7.38368  -2
   5  14   0 31.2277 7.38368   1
  -6  11   0 23.1041 7.06682  -2
   6  14   0 23.1041 7.06682   1
  -7  11   0 17.5467 7.23261  -2
   7  14   0 17.5467 7.23261   1
  -2  14   0 41.2264 8.27103  -2
   2  15   0 41.2264 8.27103   1
   3  15   0 21.9465 3.79728   1
  -4  13   0 131.792 7.99139  -2
   4  15   0 131.792 7.99139   1
  -6 -14   1 52.8790 4.34511   1
  -5  12   1 68.0932 7.14764  -2
  -5 -14   1 68.0932 7.14764   1
  -4  13   1 -1.0651 7.95690  -2
  -4 -14   1 -1.0651 7.95690   1
  -3  13   1 0.93476 6.01621  -2
  -3 -14   1 0.93476 6.01621   1
  -2 -14   1 5.07179 3.25576   1
  -1  14   1 18.1191 5.44897  -2
  -1 -14   1 18.1191 5.44897   1
   0 -14   1 2.20186 3.40887   1
   1  15   1 -1.5377 6.29653  -2
   1 -14   1 -1.5377 6.29653   1
  -8  10   1 53.4866 7.51928  -2
  -8 -13   1 53.4866 7.51928   1
  -7  10   1 82.0358 7.39437  -2
  -7 -13   1 82.0358 7.39437   1
  -6  11   1 158.819 8.03384  -2
  -6 -13   1 158.819 8.03384   1
  -5  11   1 132.155 6.77582  -2
  -5 -13   1 132.155 6.77582   1
  -4  12   1 2.66915 6.97681  -2
  -4 -13   1 2.66915 6.97681   1
  -3  12   1 1.43733 5.42369  -2
  -3 -13   1 1.43733 5.42369   1
  -2 -13   1 57.4071 3.79793   1
  -1  13   1 270.534 7.45710  -2
  -1 -13   1 270.534 7.45710   1
   0 -13   1 22.8514 3.37940   1
   1  14   1 7.31213 5.67433  -2
   1 -13   1 7.31213 5.67433   1
   2  14   1 8.00223 7.43714  -2
   2 -13   1 8.00223 7.43714   1
   3  15   1 4.06510 7.00422  -2
   3 -13   1 4.06510 7.00422   1
   4  15   1 -1.6999 10.4054  -2
   4 -13   1 -1.6999 10.4054   1
  -9   8   1 1.62478 7.83158  -2
  -9 -12   1 1.62478 7.83158   1
  -8   9   1 93.2986 7.07050  -2
  -8 -12   1 93.2986 7.07050   1
  -7   9   1 106.069 6.97283  -2
  -7 -12   1 106.069 6.97283   1
  -6  10   1 47.7455 6.30556  -2
  -6 -12   1 47.7455 6.30556   1
  -5  10   1 29.0234 5.50618  -2
  -5 -12   1 29.0234 5.50618   1
  -4  11   1 108.014 6.89721  -2
  -4 -12   1 108.014 6.89721   1
  -3  11   1 223.563 6.88248  -2
  -3 -12   1 223.563 6.88248   1
  -2 -12   1 91.7557 4.05250   1
  -1  12   1 230.551 6.53825  -2
  -1 -12   1 230.551 6.53825   1
   0 -12   1 39.7465 3.32190   1
   1  13   1 5.62610 4.97568  -2
   1 -12   1 5.62610 4.97568   1
   2  13   1 69.4548 6.96657  -2
   2 -12   1 69.4548 6.96657   1
   3  14   1 119.441 7.02037  -2
   3 -12   1 119.441 7.02037   1
   4  14   1 42.1702 7.46875  -2
   4 -12   1 42.1702 7.46875   1
   5  15   1 1.03541 9.84028  -2
   5 -12   1 1.03541 9.84028   1
 -10   7   1 8.06578 6.14858  -2
 -10 -11   1 8.06578 6.14858   1
  -9   7   1 50.9272 7.42466  -2
  -9 -11   1 50.9272 7.42466   1
  -8   8   1 7.34757 5.73218  -2
  -8 -11   1 7.34757 5.73218   1
  -7   8   1 24.7882 5.71897  -2
  -7 -11   1 24.7882 5.71897   1
  -6   9   1 2.54170 5.44446  -2
  -6 -11   1 2.54170 5.44446   1
  -5   9   1 0.44618 4.71316  -2
  -5 -11   1 0.44618 4.71316   1
  -4  10   1 143.123 6.65570  -2
  -4 -11   1 143.123 6.65570   1
  -3  10   1 104.687 4.95597  -2
  -3 -11   1 104.687 4.95597   1
  -2 -11   1 5.45235 2.24409   1
  -1  11   1 51.4715 3.83138  -2
  -1 -11   1 51.4715 3.83138   1
   0 -11   1 49.1136 3.10032   1
   1  12   1 110.404 5.26999  -2
   1 -11   1 110.404 5.26999   1
   2 -11   1 60.6534 3.48824   1
   3  13   1 258.366 7.82101  -2
   3 -11   1 258.366 7.82101   1
   4  13   1 69.5920 6.90853  -2
   4 -11   1 69.5920 6.90853   1
   5  14   1 0.65362 7.00434  -2
   5 -11   1 0.65362 7.00434   1
   6  14   1 44.3094 9.18286  -2
   6 -11   1 44.3094 9.18286   1
   7 -11   1 20.8258 4.69689   1
 -11 -10   1 38.5738 3.97456   1
 -10   6   1 3.59627 5.54394  -2
 -10 -10   1 3.59627 5.54394   1
  -9 -10   1 22.1915 3.08834   1
  -8   7   1 86.4990 5.80374  -2
  -8 -10   1 86.4990 5.80374   1
  -7   7   1 16.3095 5.11367  -2
  -7 -10   1 16.3095 5.11367   1
  -6   8   1 88.3038 5.44946  -2
  -6 -10   1 88.3038 5.44946   1
  -5   8   1 81.0254 4.12199  -2
  -5 -10   1 81.0254 4.12199   1
  -4   9   1 7.83762 8.04134  -2
  -4 -10   1 7.83762 8.04134   1
  -3   9   1 46.7810 3.33764  -2
  -3 -10   1 46.7810 3.33764   1
  -2 -10   1 2.13260 1.63832   1
  -1  10   1 105.963 3.45593  -2
  -1 -10   1 105.963 3.45593   1
   0 -10   1 47.2017 2.44022   1
   1  11   1 192.441 5.63570  -2
   1 -10   1 192.441 5.63570   1
   2 -10   1 45.7555 2.95769   1
   3  12   1 37.0337 5.02115  -2
   3 -10   1 37.0337 5.02115   1
   4  12   1 71.2885 6.17339  -2
   4 -10   1 71.2885 6.17339   1
   5  13   1 104.908 6.88710  -2
   5 -10   1 104.908 6.88710   1
   6  13   1 136.554 7.21883  -2
   6 -10   1 136.554 7.21883   1
   7  14   1 132.741 10.7208  -2
   7 -10   1 132.741 10.7208   1
   8  14   1 81.6496 9.17497  -2
   8 -10   1 81.6496 9.17497   1
 -12   4   1 88.2512 3.68219  -2
 -12  -9   1 88.2512 3.68219   1
 -11  -9   1 33.2307 3.60864   1
 -10   5   1 28.8519 5.13516  -2
 -10  -9   1 28.8519 5.13516   1
  -9  -9   1 40.2408 3.22398   1
  -8   6   1 180.561 6.31138  -2
  -8  -9   1 180.561 6.31138   1
  -7   6   1 214.479 6.41982  -2
  -7  -9   1 214.479 6.41982   1
  -6   7   1 57.7729 4.05951  -2
  -6  -9   1 57.7729 4.05951   1
  -5   7   1 27.2892 3.35651  -2
  -5  -9   1 27.2892 3.35651   1
  -4   8   1 9.07878 6.77902  -2
  -4  -9   1 9.07878 6.77902   1
  -3   8   1 56.9447 3.10317  -2
  -3  -9   1 56.9447 3.10317   1
  -2  -9   1 21.8354 1.74319   1
  -1   9   1 154.552 3.62552  -2
  -1  -9   1 154.552 3.62552   1
   0  -9   1 23.3889 1.81848   1
   1  10   1 184.620 4.34107  -2
   1  -9   1 184.620 4.34107   1
   2  -9   1 8.49197 1.76088   1
   3  11   1 2.87823 4.19812  -2
   3  -9   1 2.87823 4.19812   1
   4  11   1 24.9238 5.10865  -2
   4  -9   1 24.9238 5.10865   1
   5  12   1 210.166 7.16609  -2
   5  -9   1 210.166 7.16609   1
   6  12   1 113.787 6.34097  -2
   6  -9   1 113.787 6.34097   1
   7  13   1 11.8582 8.91799  -2
   7  -9   1 11.8582 8.91799   1
   8  13   1 27.0512 7.92309  -2
   8  -9   1 27.0512 7.92309   1
   9  -9   1 40.4130 5.01853   1
 -12   3   1 14.2526 2.45695  -2
 -12  -8   1 14.2526 2.45695   1
 -11  -8   1 19.0197 3.13123   1
 -10   4   1 75.4955 5.32579  -2
 -10  -8   1 75.4955 5.32579   1
  -9  -8   1 35.4724 2.91604   1
  -8   5   1 351.913 8.06863  -2
  -8  -8   1 351.913 8.06863   1
  -7   5   1 363.906 6.69452  -2
  -7  -8   1 363.906 6.69452   1
  -6   6   1 80.3561 3.89932  -2
  -6  -8   1 80.3561 3.89932   1
  -5   6   1 72.4755 3.34080  -2
  -5  -8   1 72.4755 3.34080   1
  -4  -8   1 303.355 5.10624   1
  -3   7   1 783.428 9.49372  -2
  -3  -8   1 783.428 9.49372   1
  -2  -8   1 147.047 2.88620   1
  -1   8   1 134.215 2.75996  -2
  -1  -8   1 134.215 2.75996   1
   0  -8   1 79.0537 2.25972   1
   1   9   1 141.029 3.18343  -2
   1  -8   1 141.029 3.18343   1
   2  -8   1 37.7167 1.72478   1
   3  10   1 70.2653 4.29645  -2
   3  -8   1 70.2653 4.29645   1
   4  10   1 20.0173 5.95143  -2
   4  -8   1 20.0173 5.95143   1
   5  11   1 6.79275 4.83163  -2
   5  -8   1 6.79275 4.83163   1
   6  11   1 25.5794 5.02400  -2
   6  -8   1 25.5794 5.02400   1
   7  12   1 -0.7100 6.06400  -2
   7  -8   1 -0.7100 6.06400   1
   8  12   1 -2.3594 6.75096  -2
   8  -8   1 -2.3594 6.75096   1
   9  -8   1 8.33413 3.96454   1
  10  13   1 30.3701 7.18911  -2
  10  -8   1 30.3701 7.18911   1
 -13  -7   1 15.2295 3.69917   1
 -12   2   1 62.9876 2.89412  -2
 -12  -7   1 62.9876 2.89412   1
 -11  -7   1 -0.8576 2.62789   1
 -10   3   1 67.7515 4.99855  -2
 -10  -7   1 67.7515 4.99855   1
  -9  -7   1 -0.6088 2.05906   1
  -8   4   1 4.90256 3.47611  -2
  -8  -7   1 4.90256 3.47611   1
  -7   4   1 125.882 4.09988  -2
  -7  -7   1 125.882 4.09988   1
  -6   5   1 98.4050 3.55791  -2
  -6  -7   1 98.4050 3.55791   1
  -5   5   1 220.005 4.42376  -2
  -5  -7   1 220.005 4.42376   1
  -4  -7   1 269.259 3.96065   1
  -3   6   1 444.250 5.79544  -2
  -3  -7   1 444.250 5.79544   1
  -2  -7   1 2.66913 0.96577   1
  -1   7   1 30.3803 1.62213  -2
  -1  -7   1 30.3803 1.62213   1
   0  -7   1 131.882 2.56408   1
   1   8   1 389.676 5.29464  -2
   1  -7   1 389.676 5.29464   1
   2  -7   1 97.8644 2.39336   1
   3   9   1 98.2271 3.08106  -2
   3  -7   1 98.2271 3.08106   1
   4   9   1 21.0989 4.10514  -2
   4  -7   1 21.0989 4.10514   1
   5  10   1 23.1151 4.25979  -2
   5  -7   1 23.1151 4.25979   1
   6  10   1 160.626 5.72588  -2
   6  -7   1 160.626 5.72588   1
   7  11   1 4.96741 6.37970  -2
   7  -7   1 4.96741 6.37970   1
   8  11   1 -4.6473 4.87594  -2
   8  -7   1 -4.6473 4.87594   1
   9  -7   1 2.01503 3.37052   1
  10  12   1 -6.8839 5.99929  -2
  10  -7   1 -6.8839 5.99929   1
 -13  -6   1 38.7847 2.66505   1
 -12   1   1 116.451 3.89983  -2
 -12  -6   1 116.451 3.89983   1
 -11  -6   1 57.6531 3.55675   1
 -10   2   1 8.61361 4.30472  -2
 -10  -6   1 8.61361 4.30472   1
  -9  -6   1 3.34982 1.72891   1
  -8   3   1 161.219 4.39805  -2
  -8  -6   1 161.219 4.39805   1
  -7   3   1 11.4922 3.63058  -2
  -7  -6   1 11.4922 3.63058   1
  -6   4   1 39.3974 2.87384  -2
  -6  -6   1 39.3974 2.87384   1
  -5   4   1 34.0342 2.29346  -2
  -5  -6   1 34.0342 2.29346   1
  -4  -6   1 18.2816 1.10653   1
  -3   5   1 80.3667 2.13214  -2
  -3  -6   1 80.3667 2.13214   1
  -2  -6   1 62.5243 1.66792   1
  -1   6   1 36.0917 1.45145  -2
  -1  -6   1 36.0917 1.45145   1
   0  -6   1 224.205 3.26363   1
   1   7   1 1058.81 12.0707  -2
   1  -6   1 1058.81 12.0707   1
   2  -6   1 214.111 3.27277   1
   3   8   1 52.0286 2.43697  -2
   3  -6   1 52.0286 2.43697   1
   4   8   1 210.284 7.12630  -2
   4  -6   1 210.284 7.12630   1
   5   9   1 422.923 7.00973  -2
   5  -6   1 422.923 7.00973   1
   6   9   1 256.542 5.39269  -2
   6  -6   1 256.542 5.39269   1
   7  10   1 37.6044 6.23573  -2
   7  -6   1 37.6044 6.23573   1
   8  10   1 22.0804 4.48455  -2
   8  -6   1 22.0804 4.48455   1
   9  -6   1 66.7091 4.66453   1
  10  11   1 89.7980 6.65061  -2
  10  -6   1 89.7980 6.65061   1
  11  -6   1 9.77819 4.17975   1
 -13  -5   1 33.6187 2.60218   1
 -12   0   1 46.8447 2.61634  -2
 -12  -5   1 46.8447 2.61634   1
 -11  -5   1 36.9030 2.19763   1
 -10   1   1 122.984 5.12163  -2
 -10  -5   1 122.984 5.12163   1
  -9  -5   1 42.2649 2.24443   1
  -8   2   1 164.039 4.30435  -2
  -8  -5   1 164.039 4.30435   1
  -7   2   1 343.290 6.94363  -2
  -7  -5   1 343.290 6.94363   1
  -6   3   1 56.7998 3.43611  -2
  -6  -5   1 56.7998 3.43611   1
  -5   3   1 5.59509 1.93135  -2
  -5  -5   1 5.59509 1.93135   1
  -4  -5   1 15.9591 0.97491   1
  -3   4   1 111.138 2.21881  -2
  -3  -5   1 111.138 2.21881   1
  -2  -5   1 24.7475 0.99610   1
  -1   5   1 89.0601 1.74923  -2
  -1  -5   1 89.0601 1.74923   1
   0  -5   1 2.01803 0.70369   1
   1   6   1 488.786 5.94046  -2
   1  -5   1 488.786 5.94046   1
   2  -5   1 84.5941 1.85838   1
   3   7   1 71.0301 2.09421  -2
   3  -5   1 71.0301 2.09421   1
   4  -5   1 150.423 2.48751   1
   5   8   1 810.148 9.84586  -2
   5  -5   1 810.148 9.84586   1
   6   8   1 406.583 6.82685  -2
   6  -5   1 406.583 6.82685   1
   7   9   1 50.1281 5.68228  -2
   7  -5   1 50.1281 5.68228   1
   8   9   1 70.6630 4.57402  -2
   8  -5   1 70.6630 4.57402   1
   9  -5   1 117.035 3.61956   1
  10  10   1 169.225 5.19936  -2
  10  -5   1 169.225 5.19936   1
  11  -5   1 31.4064 4.45440   1
 -13  -4   1 17.3284 2.36886   1
 -12  -1   1 1.01586 1.96434  -2
 -12  -4   1 1.01586 1.96434   1
 -11  -4   1 47.7592 2.35290   1
 -10   0   1 420.445 8.70908  -2
 -10  -4   1 420.445 8.70908   1
  -9  -4   1 87.2268 2.91836   1
  -8   1   1 107.450 3.66967  -2
  -8  -4   1 107.450 3.66967   1
  -7  -4   1 140.317 2.76257   1
  -6  -4   1 53.6808 1.63669   1
  -5   2   1 138.406 3.06673  -2
  -5  -4   1 138.406 3.06673   1
  -4  -4   1 293.687 3.82546   1
  -3   3   1 1012.93 11.3230  -2
  -3  -4   1 1012.93 11.3230   1
  -2  -4   1 168.209 2.38510   1
  -1   4   1 19.4042 1.01635  -2
  -1  -4   1 19.4042 1.01635   1
   0  -4   1 211.197 2.81192   1
   1   5   1 891.229 10.0032  -2
   1  -4   1 891.229 10.0032   1
   2  -4   1 1.20248 0.70965   1
   3   6   1 280.667 3.54606  -2
   3  -4   1 280.667 3.54606   1
   4  -4   1 121.167 1.90595   1
   5   7   1 13.7063 3.06576  -2
   5  -4   1 13.7063 3.06576   1
   6   7   1 44.9877 2.22422  -2
   6  -4   1 44.9877 2.22422   1
   7  -4   1 42.7939 1.69084   1
   8   8   1 162.215 3.62671  -2
   8  -4   1 162.215 3.62671   1
   9  -4   1 46.7689 2.18771   1
  10   9   1 154.245 4.76234  -2
  10  -4   1 154.245 4.76234   1
  11  -4   1 12.4725 2.54454   1
  12  10   1 9.82270 4.92586  -2
  12  -4   1 9.82270 4.92586   1
 -13  -3   1 6.50480 2.21288   1
 -12  -2   1 8.52898 2.07343  -2
 -12  -3   1 8.52898 2.07343   1
 -11  -3   1 33.6466 2.11090   1
 -10  -1   1 295.620 6.94571  -2
 -10  -3   1 295.620 6.94571   1
  -9  -3   1 23.9654 1.45602   1
  -8   0   1 13.9858 2.86693  -2
  -8  -3   1 13.9858 2.86693   1
  -7  -3   1 181.068 3.07897   1
  -6  -3   1 503.197 6.19998   1
  -5   1   1 1219.81 25.3081  -2
  -5  -3   1 1219.81 25.3081   1
  -4  -3   1 386.574 4.71197   1
  -3   2   1 287.793 3.67986  -2
  -3  -3   1 287.793 3.67986   1
  -2  -3   1 108.299 1.67417   1
  -1   3   1 318.573 3.78021  -2
  -1  -3   1 318.573 3.78021   1
   0  -3   1 34.1752 0.98388   1
   1   4   1 135.334 2.07528  -2
   1  -3   1 135.334 2.07528   1
   2  -3   1 147.679 2.15115   1
   3   5   1 7.57998 1.36572  -2
   3  -3   1 7.57998 1.36572   1
   4  -3   1 30.9241 0.88899   1
   5   6   1 108.111 4.63500  -2
   5  -3   1 108.111 4.63500   1
   6   6   1 237.760 4.18968  -2
   6  -3   1 237.760 4.18968   1
   7  -3   1 75.3925 2.06378   1
   8   7   1 238.279 4.11850  -2
   8  -3   1 238.279 4.11850   1
   9  -3   1 -0.1424 1.31078   1
  10   8   1 6.15902 3.04201  -2
  10  -3   1 6.15902 3.04201   1
  11  -3   1 20.8800 2.44228   1
  12   9   1 44.9608 4.74896  -2
  12  -3   1 44.9608 4.74896   1
 -13  -2   1 17.6000 2.41449   1
 -12  -3   1 5.27595 2.10601  -2
 -12  -2   1 5.27595 2.10601   1
 -11  -2   1 9.66906 1.80351   1
 -10  -2   1 6.87709 2.66395  -2
 -10  -2   1 6.87709 2.66395   1
  -9  -2   1 4.05088 1.18358   1
  -8  -1   1 6.93452 2.67398  -2
  -8  -2   1 6.93452 2.67398   1
  -7  -2   1 54.8580 1.69071   1
  -6  -2   1 37.9183 1.31603   1
  -5  -2   1 190.226 2.77661   1
  -4  -2   1 181.471 2.55480   1
  -3   1   1 5.75152 1.12494  -2
  -3  -2   1 5.75152 1.12494   1
  -2  -2   1 182.132 2.31038   1
  -1   2   1 62.4762 0.91049  -2
  -1  -2   1 62.4762 0.91049   1
   0  -2   1 522.961 4.69766   1
   1   3   1 1788.82 19.2749  -2
   1  -2   1 1788.82 19.2749   1
   2  -2   1 341.049 3.63264   1
   3   4   1 446.729 9.72929  -2
   3  -2   1 446.729 9.72929   1
   4  -2   1 67.9649 1.20857   1
   5  -2   1 211.451 2.47114   1
   6  -2   1 100.614 1.94015   1
   7  -2   1 7.71941 0.95340   1
   8   6   1 15.3146 2.22706  -2
   8  -2   1 15.3146 2.22706   1
   9  -2   1 113.104 2.79561   1
  10   7   1 145.370 3.80443  -2
  10  -2   1 145.370 3.80443   1
  11  -2   1 0.51932 1.97967   1
  12   8   1 21.3000 4.26410  -2
  12  -2   1 21.3000 4.26410   1
  13   8   1 1.66766 8.74296  -2
  13  -2   1 1.66766 8.74296   1
 -13  -1   1 26.5720 2.59339   1
 -12  -4   1 -0.9003 2.03421  -2
 -12  -1   1 -0.9003 2.03421   1
 -11  -1   1 26.7975 2.06248   1
 -10  -3   1 277.733 5.16074  -2
 -10  -1   1 277.733 5.16074   1
  -9  -1   1 19.5859 1.38369   1
  -8  -2   1 11.2799 2.59156  -2
  -8  -1   1 11.2799 2.59156   1
  -7  -1   1 22.2684 1.28056   1
  -6  -1   1 0.16959 0.82121   1
  -5  -1   1 1.19827 0.72396   1
  -4  -1   1 12.0501 0.73862   1
  -3   0   1 284.317 6.40933  -2
  -3  -1   1 284.317 6.40933   1
  -2  -1   1 659.431 6.39040   1
  -1   1   1 1418.77 12.3863  -2
  -1  -1   1 1418.77 12.3863   1
   0  -1   1 82.7286 0.84611   1
   1   2   1 169.972 3.09938  -2
   1  -1   1 169.972 3.09938   1
   2  -1   1 202.221 2.47513   1
   3  -1   1 499.694 5.12713   1
   4  -1   1 852.310 8.58804   1
   5  -1   1 273.274 3.25959   1
   6  -1   1 54.5619 1.39609   1
   7  -1   1 155.750 2.24169   1
   8   5   1 283.493 5.15830  -2
   8  -1   1 283.493 5.15830   1
   9  -1   1 66.8692 2.05314   1
  10   6   1 92.6964 2.89515  -2
  10  -1   1 92.6964 2.89515   1
  11  -1   1 11.8474 1.94350   1
  12   7   1 2.33051 3.84000  -2
  12  -1   1 2.33051 3.84000   1
  13   7   1 66.4095 8.53526  -2
  13  -1   1 66.4095 8.53526   1
 -13   0   1 38.1145 2.87100   1
 -12  -5   1 52.9795 2.81208  -2
 -12   0   1 52.9795 2.81208   1
 -11   0   1 55.7409 2.53508   1
 -10  -4   1 431.658 6.87099  -2
 -10   0   1 431.658 6.87099   1
  -9   0   1 92.6133 2.71929   1
  -8  -3   1 13.5358 2.09207  -2
  -8   0   1 13.5358 2.09207   1
  -7  -3   1 301.117 7.80118  -2
  -7   0   1 301.117 7.80118   1
  -6  -2   1 239.387 6.36655  -2
  -6   0   1 239.387 6.36655   1
  -5  -2   1 311.957 7.39218  -2
  -5   0   1 311.957 7.39218   1
  -4   0   1 49.3432 1.08837   1
  -3   0   1 133.578 1.91631   1
  -2   0   1 150.681 1.68710   1
  -1   0   1 4.89818 0.25396  -2
  -1   0   1 4.89818 0.25396   1
   0   0   1 1.43080 0.42152   1
   1   0   1 1.29813 0.20439   1
   2   0   1 209.673 2.28064   1
   3   0   1 774.687 7.15912   1
   4   0   1 425.505 4.18139   1
   5   0   1 26.0871 0.83876   1
   6   0   1 7.86374 0.68644   1
   7   0   1 427.970 4.53162   1
   8   4   1 750.832 10.5209  -2
   8   0   1 750.832 10.5209   1
   9   0   1 17.9215 1.36858   1
  10   5   1 98.3383 2.83174  -2
  10   0   1 98.3383 2.83174   1
  11   0   1 48.1318 2.32920   1
  12   6   1 104.872 4.58502  -2
  12   0   1 104.872 4.58502   1
  13   6   1 83.9719 8.21683  -2
  13   0   1 83.9719 8.21683   1
 -13   1   1 24.5641 2.76410   1
 -12  -6   1 113.443 3.77065  -2
 -12   1   1 113.443 3.77065   1
 -11   1   1 50.5734 2.52382   1
 -10  -5   1 138.328 3.89829  -2
 -10   1   1 138.328 3.89829   1
  -9   1   1 29.2076 1.77529   1
  -8  -4   1 105.390 2.69291  -2
  -8   1   1 105.390 2.69291   1
  -7  -4   1 324.926 8.45185  -2
  -7   1   1 324.926 8.45185   1
  -6  -3   1 743.860 16.0861  -2
  -6   1   1 743.860 16.0861   1
  -5  -3   1 1262.38 26.0659  -2
  -5   1   1 1262.38 26.0659   1
  -4   1   1 247.897 2.85330   1
  -3  -2   1 5.84620 1.31292  -2
  -3   1   1 5.84620 1.31292   1
  -2   1   1 489.270 4.84649   1
  -1  -1   1 1402.18 13.3017  -2
  -1   1   1 1402.18 13.3017   1
   0   1   1 2.20765 0.13392   1
   1   1   1 2.48958 0.20827   1
   2   1   1 70.9332 1.23418   1
   3   1   1 -0.2663 0.43604   1
   4   1   1 3.44100 0.54930   1
   5   1   1 1.52901 0.60145   1
   6   1   1 14.9965 0.74279   1
   7   1   1 304.895 3.76488   1
   8   3   1 663.456 8.26156  -2
   8   1   1 663.456 8.26156   1
   9   1   1 0.04422 1.38936   1
  10   4   1 13.8933 2.80002  -2
  10   1   1 13.8933 2.80002   1
  11   1   1 85.7243 2.81818   1
  12   5   1 191.125 5.26708  -2
  12   1   1 191.125 5.26708   1
  13   5   1 59.3447 8.07651  -2
  13   1   1 59.3447 8.07651   1
  14   6   1 116.100 9.25620  -2
  14   1   1 116.100 9.25620   1
 -12  -7   1 62.1344 3.11620  -2
 -12   2   1 62.1344 3.11620   1
 -11   2   1 7.21517 2.02740   1
 -10  -6   1 0.71710 2.98518  -2
 -10   2   1 0.71710 2.98518   1
  -9   2   1 18.3386 1.66297   1
  -8  -5   1 154.294 3.74688  -2
  -8   2   1 154.294 3.74688   1
  -7  -5   1 336.492 8.81510  -2
  -7   2   1 336.492 8.81510   1
  -6  -4   1 64.7260 3.84429  -2
  -6   2   1 64.7260 3.84429   1
  -5  -4   1 134.979 3.53279  -2
  -5   2   1 134.979 3.53279   1
  -4   2   1 471.948 4.55177   1
  -3  -3   1 283.859 3.21133  -2
  -3   2   1 283.859 3.21133   1
  -2   2   1 88.8466 1.29183   1
  -1  -2   1 68.7514 1.03746  -2
  -1   2   1 68.7514 1.03746   1
   0   2   1 387.025 4.34342   1
   1  -1   1 175.035 2.17213  -2
   1   2   1 175.035 2.17213   1
   2   2   1 187.235 2.39497   1
   3   2   1 1099.55 12.0227   1
   4   2   1 72.3098 1.28573   1
   5   2   1 2.55855 0.61807   1
   6   2   1 9.64894 0.80731   1
   7   2   1 5.79655 0.88562   1
   8   2   1 27.2535 2.31578  -2
   8   2   1 27.2535 2.31578   1
   9   2   1 -0.4913 1.37521   1
  10   3   1 2.06955 2.70397  -2
  10   2   1 2.06955 2.70397   1
  11   2   1 62.3302 3.24347   1
  12   4   1 212.470 4.84102  -2
  12   2   1 212.470 4.84102   1
  13   4   1 33.2480 7.79346  -2
  13   2   1 33.2480 7.79346   1
  14   5   1 23.0647 5.34705  -2
  14   2   1 23.0647 5.34705   1
 -12  -8   1 8.12222 2.99134  -2
 -12   3   1 8.12222 2.99134   1
 -11   3   1 14.4952 2.16867   1
 -10  -7   1 64.7662 3.68028  -2
 -10   3   1 64.7662 3.68028   1
  -9  -7   1 8.47086 5.73642  -2
  -9   3   1 8.47086 5.73642   1
  -8  -6   1 154.848 3.95035  -2
  -8   3   1 154.848 3.95035   1
  -7  -6   1 21.3700 4.30765  -2
  -7   3   1 21.3700 4.30765   1
  -6  -5   1 62.8123 4.09427  -2
  -6   3   1 62.8123 4.09427   1
  -5  -5   1 7.75461 1.95361  -2
  -5   3   1 7.75461 1.95361   1
  -4   3   1 85.0416 1.46966   1
  -3  -4   1 1010.22 9.15351  -2
  -3   3   1 1010.22 9.15351   1
  -2   3   1 267.446 2.53104   1
  -1  -3   1 309.548 3.00540  -2
  -1   3   1 309.548 3.00540   1
   0   3   1 238.229 2.63314   1
   1  -2   1 1767.63 17.1319  -2
   1   3   1 1767.63 17.1319   1
   2   3   1 301.435 3.23448   1
   3   3   1 356.768 4.24866   1
   4   3   1 1240.84 12.2784   1
   5   3   1 73.3176 1.46710   1
   6   3   1 10.3790 0.83507   1
   7   3   1 525.396 5.84271   1
   8   1   1 660.774 8.22105  -2
   8   3   1 660.774 8.22105   1
   9   3   1 -1.5218 1.36024   1
  10   2   1 4.08156 3.12356  -2
  10   3   1 4.08156 3.12356   1
  11   3   1 13.9427 2.41735   1
  12   3   1 -2.0504 4.26714  -2
  12   3   1 -2.0504 4.26714   1
  13   3   1 10.0975 8.16190  -2
  13   3   1 10.0975 8.16190   1
  14   4   1 5.94115 5.19651  -2
  14   3   1 5.94115 5.19651   1
 -12  -9   1 86.2411 4.39440  -2
 -12   4   1 86.2411 4.39440   1
 -11   4   1 23.7780 2.42536   1
 -10  -8   1 79.0203 3.92912  -2
 -10   4   1 79.0203 3.92912   1
  -9  -8   1 45.1367 6.38964  -2
  -9   4   1 45.1367 6.38964   1
  -8  -7   1 4.74225 3.06130  -2
  -8   4   1 4.74225 3.06130   1
  -7  -7   1 121.205 5.77473  -2
  -7   4   1 121.205 5.77473   1
  -6  -6   1 39.5102 4.21514  -2
  -6   4   1 39.5102 4.21514   1
  -5  -6   1 31.6840 1.95793  -2
  -5   4   1 31.6840 1.95793   1
  -4   4   1 5.07400 0.65315   1
  -3  -5   1 114.133 1.99685  -2
  -3   4   1 114.133 1.99685   1
  -2   4   1 7.67917 0.59314   1
  -1  -4   1 18.5710 0.94530  -2
  -1   4   1 18.5710 0.94530   1
   0   4   1 58.8701 1.30247   1
   1  -3   1 136.303 1.88795  -2
   1   4   1 136.303 1.88795   1
   2   4   1 230.642 2.67649   1
   3  -2   1 441.774 5.29599  -2
   3   4   1 441.774 5.29599   1
   4   4   1 151.345 2.08723   1
   5   4   1 203.070 2.64526   1
   6  -1   1 70.5606 3.02568  -2
   6   4   1 70.5606 3.02568   1
   7   4   1 380.571 4.51680   1
   8   0   1 759.979 9.28854  -2
   8   4   1 759.979 9.28854   1
   9   4   1 0.45402 1.41210   1
  10   1   1 15.2448 3.22713  -2
  10   4   1 15.2448 3.22713   1
  11   4   1 51.5122 3.11661   1
  12   2   1 218.630 6.50981  -2
  12   4   1 218.630 6.50981   1
  13   4   1 19.7227 3.87801   1
  14   3   1 13.4038 8.51120  -2
  14   4   1 13.4038 8.51120   1
 -11 -10   1 69.9830 9.02021  -2
 -11   5   1 69.9830 9.02021   1
 -10  -9   1 29.5477 3.84904  -2
 -10   5   1 29.5477 3.84904   1
  -9  -9   1 52.6269 6.82814  -2
  -9   5   1 52.6269 6.82814   1
  -8  -8   1 331.276 6.09267  -2
  -8   5   1 331.276 6.09267   1
  -7  -8   1 344.625 9.79675  -2
  -7   5   1 344.625 9.79675   1
  -6  -7   1 90.4449 5.18968  -2
  -6   5   1 90.4449 5.18968   1
  -5  -7   1 220.694 3.75203  -2
  -5   5   1 220.694 3.75203   1
  -4  -6   1 75.1950 4.30357  -2
  -4   5   1 75.1950 4.30357   1
  -3  -6   1 78.4198 1.94847  -2
  -3   5   1 78.4198 1.94847   1
  -2   5   1 131.463 2.03783   1
  -1  -5   1 83.6844 1.53869  -2
  -1   5   1 83.6844 1.53869   1
   0   5   1 134.982 2.15506   1
   1  -4   1 858.443 8.71061  -2
   1   5   1 858.443 8.71061   1
   2   5   1 56.7785 1.41190   1
   3  -3   1 6.54294 1.36945  -2
   3   5   1 6.54294 1.36945   1
   4   5   1 31.0222 1.00189   1
   5  -2   1 458.605 11.9155  -2
   5   5   1 458.605 11.9155   1
   6  -2   1 201.389 4.61490  -2
   6   5   1 201.389 4.61490   1
   7   5   1 103.274 2.38842   1
   8  -1   1 271.615 4.44529  -2
   8   5   1 271.615 4.44529   1
   9   5   1 26.3788 1.90758   1
  10   0   1 115.013 4.37768  -2
  10   5   1 115.013 4.37768   1
  11   5   1 100.182 4.15800   1
  12   1   1 198.038 6.33930  -2
  12   5   1 198.038 6.33930   1
  13   5   1 26.6707 3.58542   1
  14   2   1 37.5651 8.50209  -2
  14   5   1 37.5651 8.50209   1
 -11   6   1 17.3697 2.88894   1
 -10 -10   1 5.54719 4.51431  -2
 -10   6   1 5.54719 4.51431   1
  -9 -10   1 40.1875 7.13287  -2
  -9   6   1 40.1875 7.13287   1
  -8  -9   1 170.372 4.77464  -2
  -8   6   1 170.372 4.77464   1
  -7  -9   1 230.063 5.22993  -2
  -7   6   1 230.063 5.22993   1
  -6  -8   1 73.0469 2.91094  -2
  -6   6   1 73.0469 2.91094   1
  -5  -8   1 71.6896 3.44571  -2
  -5   6   1 71.6896 3.44571   1
  -4   6   1 452.557 5.90311   1
  -3  -7   1 446.124 5.26770  -2
  -3   6   1 446.124 5.26770   1
  -2   6   1 3.13001 0.81433   1
  -1  -6   1 34.4563 1.29562  -2
  -1   6   1 34.4563 1.29562   1
   0   6   1 190.417 2.87539   1
   1  -5   1 484.248 5.31788  -2
   1   6   1 484.248 5.31788   1
   2   6   1 33.9893 1.05009   1
   3  -4   1 281.329 3.55562  -2
   3   6   1 281.329 3.55562   1
   4  -4   1 144.071 6.19359  -2
   4   6   1 144.071 6.19359   1
   5  -3   1 91.4517 2.80086  -2
   5   6   1 91.4517 2.80086   1
   6  -3   1 240.241 3.98545  -2
   6   6   1 240.241 3.98545   1
   7   6   1 -0.8075 1.05096   1
   8  -2   1 18.6570 2.87766  -2
   8   6   1 18.6570 2.87766   1
   9   6   1 126.486 3.47645   1
  10  -1   1 99.2514 4.31518  -2
  10   6   1 99.2514 4.31518   1
  11   6   1 41.8084 3.05520   1
  12   0   1 103.720 5.35445  -2
  12   6   1 103.720 5.35445   1
  13   6   1 37.7965 3.79942   1
  14   1   1 104.003 9.37975  -2
  14   6   1 104.003 9.37975   1
 -10 -11   1 17.7759 7.04908  -2
 -10   7   1 17.7759 7.04908   1
  -9 -11   1 42.1304 7.93745  -2
  -9   7   1 42.1304 7.93745   1
  -8 -10   1 80.6688 5.70421  -2
  -8   7   1 80.6688 5.70421   1
  -7 -10   1 23.9870 5.23295  -2
  -7   7   1 23.9870 5.23295   1
  -6  -9   1 67.0641 4.20249  -2
  -6   7   1 67.0641 4.20249   1
  -5  -9   1 25.8824 3.47706  -2
  -5   7   1 25.8824 3.47706   1
  -4   7   1 54.6380 2.17550   1
  -3  -8   1 782.330 10.8898  -2
  -3   7   1 782.330 10.8898   1
  -2   7   1 119.830 2.21780   1
  -1  -7   1 29.4834 1.42349  -2
  -1   7   1 29.4834 1.42349   1
   0   7   1 154.736 2.44100   1
   1  -6   1 1010.89 10.4030  -2
   1   7   1 1010.89 10.4030   1
   2   7   1 138.190 2.23275   1
   3  -5   1 69.1612 2.02463  -2
   3   7   1 69.1612 2.02463   1
   4  -5   1 374.797 7.04128  -2
   4   7   1 374.797 7.04128   1
   5  -4   1 11.7798 2.28724  -2
   5   7   1 11.7798 2.28724   1
   6  -4   1 41.7803 2.61564  -2
   6   7   1 41.7803 2.61564   1
   7   7   1 137.974 2.91235   1
   8  -3   1 239.217 5.03893  -2
   8   7   1 239.217 5.03893   1
   9   7   1 40.8691 2.64701   1
  10  -2   1 150.213 5.12859  -2
  10   7   1 150.213 5.12859   1
  11   7   1 -1.0253 2.28876   1
  12  -1   1 -0.0389 4.69107  -2
  12   7   1 -0.0389 4.69107   1
  13  -1   1 27.0050 8.64456  -2
  13   7   1 27.0050 8.64456   1
  -9 -12   1 13.5385 8.98106  -2
  -9   8   1 13.5385 8.98106   1
  -8 -11   1 7.39744 6.87403  -2
  -8   8   1 7.39744 6.87403   1
  -7 -11   1 23.3224 7.03376  -2
  -7   8   1 23.3224 7.03376   1
  -6 -10   1 89.8660 5.64643  -2
  -6   8   1 89.8660 5.64643   1
  -5 -10   1 79.2475 4.24966  -2
  -5   8   1 79.2475 4.24966   1
  -4   8   1 14.2408 1.71517   1
  -3  -9   1 47.7513 3.05401  -2
  -3   8   1 47.7513 3.05401   1
  -2   8   1 31.6263 1.79167   1
  -1  -8   1 134.772 2.78574  -2
  -1   8   1 134.772 2.78574   1
   0   8   1 133.220 2.44567   1
   1  -7   1 377.430 4.67617  -2
   1   8   1 377.430 4.67617   1
   2   8   1 177.082 2.76226   1
   3  -6   1 51.1116 2.31451  -2
   3   8   1 51.1116 2.31451   1
   4  -6   1 214.769 4.05289  -2
   4   8   1 214.769 4.05289   1
   5  -5   1 847.013 10.2601  -2
   5   8   1 847.013 10.2601   1
   6  -5   1 380.869 5.70284  -2
   6   8   1 380.869 5.70284   1
   7  -4   1 122.775 4.94452  -2
   7   8   1 122.775 4.94452   1
   8  -4   1 165.180 5.23631  -2
   8   8   1 165.180 5.23631   1
   9   8   1 3.40511 2.03367   1
  10  -3   1 6.13838 3.54990  -2
  10   8   1 6.13838 3.54990   1
  11   8   1 12.9157 2.74488   1
  12  -2   1 37.2426 4.67860  -2
  12   8   1 37.2426 4.67860   1
  13  -2   1 12.4082 9.53464  -2
  13   8   1 12.4082 9.53464   1
  -9   9   1 10.4899 3.87380   1
  -8 -12   1 95.3300 8.46782  -2
  -8   9   1 95.3300 8.46782   1
  -7 -12   1 103.200 8.56421  -2
  -7   9   1 103.200 8.56421   1
  -6 -11   1 7.63991 6.88249  -2
  -6   9   1 7.63991 6.88249   1
  -5 -11   1 8.80337 5.85535  -2
  -5   9   1 8.80337 5.85535   1
  -4 -10   1 11.9271 4.75016  -2
  -4   9   1 11.9271 4.75016   1
  -3 -10   1 41.1276 3.36664  -2
  -3   9   1 41.1276 3.36664   1
  -2   9   1 5.08190 1.55841   1
  -1  -9   1 153.917 3.62808  -2
  -1   9   1 153.917 3.62808   1
   0   9   1 45.9212 2.07486   1
   1  -8   1 131.187 3.03252  -2
   1   9   1 131.187 3.03252   1
   2   9   1 63.9433 2.00490   1
   3  -7   1 97.3302 2.95998  -2
   3   9   1 97.3302 2.95998   1
   4  -7   1 29.7401 3.49209  -2
   4   9   1 29.7401 3.49209   1
   5  -6   1 412.944 6.91672  -2
   5   9   1 412.944 6.91672   1
   6  -6   1 267.614 6.48787  -2
   6   9   1 267.614 6.48787   1
   7  -5   1 36.5975 7.36949  -2
   7   9   1 36.5975 7.36949   1
   8  -5   1 79.2383 4.62473  -2
   8   9   1 79.2383 4.62473   1
   9   9   1 110.142 4.45266   1
  10  -4   1 160.735 5.60595  -2
  10   9   1 160.735 5.60595   1
  11   9   1 23.0217 3.06762   1
  12  -3   1 45.1919 5.06700  -2
  12   9   1 45.1919 5.06700   1
  13   9   1 22.6743 4.80567   1
  -8 -13   1 58.8887 8.79626  -2
  -8  10   1 58.8887 8.79626   1
  -7 -13   1 70.0969 9.14203  -2
  -7  10   1 70.0969 9.14203   1
  -6 -12   1 62.5409 8.11986  -2
  -6  10   1 62.5409 8.11986   1
  -5 -12   1 27.5173 6.75782  -2
  -5  10   1 27.5173 6.75782   1
  -4 -11   1 165.144 8.25290  -2
  -4  10   1 165.144 8.25290   1
  -3 -11   1 88.6685 4.84768  -2
  -3  10   1 88.6685 4.84768   1
  -2  10   1 1.26867 1.72028   1
  -1 -10   1 103.345 3.46212  -2
  -1  10   1 103.345 3.46212   1
   0  10   1 2.57444 1.65361   1
   1  -9   1 182.115 4.40773  -2
   1  10   1 182.115 4.40773   1
   2  10   1 2.64263 1.54571   1
   3  -8   1 70.9933 3.51102  -2
   3  10   1 70.9933 3.51102   1
   4  -8   1 33.3750 4.40819  -2
   4  10   1 33.3750 4.40819   1
   5  -7   1 28.6029 4.21185  -2
   5  10   1 28.6029 4.21185   1
   6  -7   1 164.422 5.66126  -2
   6  10   1 164.422 5.66126   1
   7  -6   1 35.6531 8.59819  -2
   7  10   1 35.6531 8.59819   1
   8  -6   1 17.7895 4.48799  -2
   8  10   1 17.7895 4.48799   1
   9  10   1 103.456 4.54097   1
  10  -5   1 170.845 5.93112  -2
  10  10   1 170.845 5.93112   1
  11  10   1 25.2060 3.32683   1
  12  -4   1 16.4928 6.53908  -2
  12  10   1 16.4928 6.53908   1
  -7  11   1 8.75326 3.94550   1
  -6 -13   1 167.229 10.1350  -2
  -6  11   1 167.229 10.1350   1
  -5 -13   1 131.438 8.57337  -2
  -5  11   1 131.438 8.57337   1
  -4 -12   1 105.589 8.14705  -2
  -4  11   1 105.589 8.14705   1
  -3 -12   1 228.718 8.56235  -2
  -3  11   1 228.718 8.56235   1
  -2  11   1 38.1561 2.89332   1
  -1 -11   1 54.7332 3.86507  -2
  -1  11   1 54.7332 3.86507   1
   0  11   1 75.3392 3.46435   1
   1 -10   1 194.701 5.77071  -2
   1  11   1 194.701 5.77071   1
   2  11   1 34.6554 2.58457   1
   3  -9   1 5.42166 4.04422  -2
   3  11   1 5.42166 4.04422   1
   4  -9   1 29.1710 4.76012  -2
   4  11   1 29.1710 4.76012   1
   5  -8   1 8.46427 4.53063  -2
   5  11   1 8.46427 4.53063   1
   6  -8   1 27.5506 4.87545  -2
   6  11   1 27.5506 4.87545   1
   7  -7   1 25.5985 9.24294  -2
   7  11   1 25.5985 9.24294   1
   8  -7   1 -0.7211 4.83200  -2
   8  11   1 -0.7211 4.83200   1
   9  11   1 37.6212 3.35031   1
  10  -6   1 89.7539 5.32115  -2
  10  11   1 89.7539 5.32115   1
  11  11   1 21.7796 3.61187   1
  -5 -14   1 55.4492 8.88138  -2
  -5  12   1 55.4492 8.88138   1
  -4 -13   1 5.36279 8.34778  -2
  -4  12   1 5.36279 8.34778   1
  -3 -13   1 1.94871 6.31504  -2
  -3  12   1 1.94871 6.31504   1
  -2  12   1 52.7485 3.61015   1
  -1 -12   1 234.084 6.47007  -2
  -1  12   1 234.084 6.47007   1
   0  12   1 60.7849 3.52285   1
   1 -11   1 110.893 5.27176  -2
   1  12   1 110.893 5.27176   1
   2 -11   1 142.434 6.96953  -2
   2  12   1 142.434 6.96953   1
   3 -10   1 29.3451 4.83048  -2
   3  12   1 29.3451 4.83048   1
   4 -10   1 59.0579 5.56886  -2
   4  12   1 59.0579 5.56886   1
   5  -9   1 197.927 6.75484  -2
   5  12   1 197.927 6.75484   1
   6  -9   1 109.578 6.05073  -2
   6  12   1 109.578 6.05073   1
   7  -8   1 0.14765 6.00722  -2
   7  12   1 0.14765 6.00722   1
   8  -8   1 0.69321 5.39634  -2
   8  12   1 0.69321 5.39634   1
   9  12   1 2.10740 2.96694   1
  10  -7   1 3.47455 4.98692  -2
  10  12   1 3.47455 4.98692   1
  11  12   1 8.86528 3.95770   1
  -4 -14   1 1.88714 9.60507  -2
  -4  13   1 1.88714 9.60507   1
  -3 -14   1 -5.9153 7.20883  -2
  -3  13   1 -5.9153 7.20883   1
  -2  13   1 22.5089 3.94504   1
  -1 -13   1 263.818 9.24356  -2
  -1  13   1 263.818 9.24356   1
   0  13   1 24.4928 3.24157   1
   1 -12   1 -2.4571 4.81171  -2
   1  13   1 -2.4571 4.81171   1
   2 -12   1 66.7999 7.06066  -2
   2  13   1 66.7999 7.06066   1
   3 -11   1 265.171 7.74990  -2
   3  13   1 265.171 7.74990   1
   4 -11   1 61.0926 6.55894  -2
   4  13   1 61.0926 6.55894   1
   5 -10   1 110.455 6.35835  -2
   5  13   1 110.455 6.35835   1
   6 -10   1 154.133 7.07615  -2
   6  13   1 154.133 7.07615   1
   7  -9   1 8.08217 6.64229  -2
   7  13   1 8.08217 6.64229   1
   8  -9   1 27.4713 6.22133  -2
   8  13   1 27.4713 6.22133   1
   9  13   1 37.8805 3.87544   1
  10  -8   1 43.2641 7.39486  -2
  10  13   1 43.2641 7.39486   1
  -2  14   1 -0.2054 4.00406   1
  -1 -14   1 18.1494 6.45394  -2
  -1  14   1 18.1494 6.45394   1
   0  14   1 -1.9986 3.63070   1
   1 -13   1 2.63308 6.58316  -2
   1  14   1 2.63308 6.58316   1
   2 -13   1 14.2648 9.35355  -2
   2  14   1 14.2648 9.35355   1
   3 -12   1 108.623 6.78359  -2
   3  14   1 108.623 6.78359   1
   4 -12   1 44.6655 7.07272  -2
   4  14   1 44.6655 7.07272   1
   5 -11   1 -1.6967 6.41935  -2
   5  14   1 -1.6967 6.41935   1
   6 -11   1 51.6430 6.82509  -2
   6  14   1 51.6430 6.82509   1
   7 -10   1 135.634 8.11139  -2
   7  14   1 135.634 8.11139   1
   8 -10   1 66.1592 8.94851  -2
   8  14   1 66.1592 8.94851   1
   1 -14   1 0.51855 7.74608  -2
   1  15   1 0.51855 7.74608   1
   2  15   1 -1.9731 3.95733   1
   3 -13   1 -1.1637 7.98879  -2
   3  15   1 -1.1637 7.98879   1
   4 -13   1 -7.5129 9.60739  -2
   4  15   1 -7.5129 9.60739   1
   5 -12   1 10.1379 8.86275  -2
   5  15   1 10.1379 8.86275   1
   6  15   1 11.8521 4.51319   1
  -5 -14   2 8.43709 3.62238   1
  -4  13   2 9.84600 6.82415  -2
  -4 -14   2 9.84600 6.82415   1
  -3 -14   2 67.6775 4.49735   1
  -2  14   2 106.192 6.32908  -2
  -2 -14   2 106.192 6.32908   1
  -1 -14   2 12.3141 3.68746   1
   0  15   2 22.9856 6.46122  -2
   0 -14   2 22.9856 6.46122   1
  -7  11   2 12.8223 7.55930  -2
  -7 -13   2 12.8223 7.55930   1
  -6  11   2 22.8464 6.73202  -2
  -6 -13   2 22.8464 6.73202   1
  -5  12   2 29.6568 7.35351  -2
  -5 -13   2 29.6568 7.35351   1
  -4  12   2 37.7177 6.05760  -2
  -4 -13   2 37.7177 6.05760   1
  -3 -13   2 16.9546 3.27588   1
  -2  13   2 24.0312 4.96129  -2
  -2 -13   2 24.0312 4.96129   1
  -1 -13   2 6.24305 3.14324   1
   0  14   2 24.2577 5.67100  -2
   0 -13   2 24.2577 5.67100   1
   1  14   2 88.0926 9.84180  -2
   1 -13   2 88.0926 9.84180   1
   2  15   2 164.453 7.99884  -2
   2 -13   2 164.453 7.99884   1
   3  15   2 61.1570 8.58120  -2
   3 -13   2 61.1570 8.58120   1
  -9 -12   2 27.1489 3.94276   1
  -8   9   2 76.1377 7.63209  -2
  -8 -12   2 76.1377 7.63209   1
  -7  10   2 17.8508 6.66946  -2
  -7 -12   2 17.8508 6.66946   1
  -6  10   2 15.2804 6.02390  -2
  -6 -12   2 15.2804 6.02390   1
  -5  11   2 18.7299 6.65834  -2
  -5 -12   2 18.7299 6.65834   1
  -4  11   2 -5.6692 5.04817  -2
  -4 -12   2 -5.6692 5.04817   1
  -3 -12   2 16.9371 2.91043   1
  -2  12   2 8.39435 4.24570  -2
  -2 -12   2 8.39435 4.24570   1
  -1 -12   2 3.53916 2.68517   1
   0  13   2 62.3945 5.26279  -2
   0 -12   2 62.3945 5.26279   1
   1 -12   2 17.0132 3.05787   1
   2  14   2 37.4230 6.14643  -2
   2 -12   2 37.4230 6.14643   1
   3  14   2 38.7955 7.29975  -2
   3 -12   2 38.7955 7.29975   1
   4  15   2 1.77427 7.34945  -2
   4 -12   2 1.77427 7.34945   1
   5  15   2 18.8340 8.03745  -2
   5 -12   2 18.8340 8.03745   1
 -10   7   2 68.0087 8.67085  -2
 -10 -11   2 68.0087 8.67085   1
  -9   8   2 173.451 7.89005  -2
  -9 -11   2 173.451 7.89005   1
  -8   8   2 148.229 7.56951  -2
  -8 -11   2 148.229 7.56951   1
  -7   9   2 51.3711 6.33436  -2
  -7 -11   2 51.3711 6.33436   1
  -6   9   2 99.5273 6.14789  -2
  -6 -11   2 99.5273 6.14789   1
  -5  10   2 77.3369 6.28006  -2
  -5 -11   2 77.3369 6.28006   1
  -4  10   2 74.4299 5.04083  -2
  -4 -11   2 74.4299 5.04083   1
  -3 -11   2 51.9687 2.89220   1
  -2  11   2 72.4063 4.30048  -2
  -2 -11   2 72.4063 4.30048   1
  -1 -11   2 0.97219 2.34549   1
   0  12   2 9.02564 4.23437  -2
   0 -11   2 9.02564 4.23437   1
   1 -11   2 -0.4468 2.34591   1
   2  13   2 -0.0420 5.29822  -2
   2 -11   2 -0.0420 5.29822   1
   3  13   2 11.4247 6.24976  -2
   3 -11   2 11.4247 6.24976   1
   4  14   2 62.7038 6.82658  -2
   4 -11   2 62.7038 6.82658   1
   5  14   2 20.9508 6.98195  -2
   5 -11   2 20.9508 6.98195   1
   6  15   2 56.4720 8.69347  -2
   6 -11   2 56.4720 8.69347   1
 -11 -10   2 -1.2013 5.52824   1
 -10   6   2 14.4224 11.9105  -2
 -10 -10   2 14.4224 11.9105   1
  -9   7   2 54.1468 6.37524  -2
  -9 -10   2 54.1468 6.37524   1
  -8   7   2 15.2003 5.79837  -2
  -8 -10   2 15.2003 5.79837   1
  -7   8   2 34.9621 5.64833  -2
  -7 -10   2 34.9621 5.64833   1
  -6   8   2 126.872 4.97359  -2
  -6 -10   2 126.872 4.97359   1
  -5   9   2 237.329 6.05634  -2
  -5 -10   2 237.329 6.05634   1
  -4   9   2 144.219 4.40052  -2
  -4 -10   2 144.219 4.40052   1
  -3 -10   2 103.489 3.31090   1
  -2  10   2 120.851 3.69795  -2
  -2 -10   2 120.851 3.69795   1
  -1 -10   2 64.8682 2.64475   1
   0  11   2 91.1007 3.67179  -2
   0 -10   2 91.1007 3.67179   1
   1 -10   2 44.4612 2.45079   1
   2  12   2 108.814 5.42984  -2
   2 -10   2 108.814 5.42984   1
   3  12   2 23.8383 5.74303  -2
   3 -10   2 23.8383 5.74303   1
   4  13   2 44.3082 6.19098  -2
   4 -10   2 44.3082 6.19098   1
   5  13   2 -2.2779 6.22256  -2
   5 -10   2 -2.2779 6.22256   1
   6  14   2 23.0104 7.26683  -2
   6 -10   2 23.0104 7.26683   1
   7  14   2 8.01125 6.71487  -2
   7 -10   2 8.01125 6.71487   1
   8 -10   2 7.48418 4.53184   1
 -11   5   2 2.26144 5.94678  -2
 -11  -9   2 2.26144 5.94678   1
 -10  -9   2 3.55084 2.95017   1
  -9   6   2 5.74053 5.57084  -2
  -9  -9   2 5.74053 5.57084   1
  -8   6   2 -2.9755 5.21883  -2
  -8  -9   2 -2.9755 5.21883   1
  -7   7   2 26.8090 4.22226  -2
  -7  -9   2 26.8090 4.22226   1
  -6   7   2 68.4872 4.18906  -2
  -6  -9   2 68.4872 4.18906   1
  -5   8   2 217.902 6.57408  -2
  -5  -9   2 217.902 6.57408   1
  -4   8   2 286.448 5.49791  -2
  -4  -9   2 286.448 5.49791   1
  -3  -9   2 49.7746 2.24704   1
  -2   9   2 53.6317 2.67567  -2
  -2  -9   2 53.6317 2.67567   1
  -1  -9   2 91.5064 2.96283   1
   0  10   2 261.037 5.00113  -2
   0  -9   2 261.037 5.00113   1
   1  -9   2 75.3133 2.62574   1
   2  11   2 156.306 4.55811  -2
   2  -9   2 156.306 4.55811   1
   3  11   2 200.302 6.58880  -2
   3  -9   2 200.302 6.58880   1
   4  12   2 44.5040 5.44473  -2
   4  -9   2 44.5040 5.44473   1
   5  12   2 58.0784 5.74221  -2
   5  -9   2 58.0784 5.74221   1
   6  13   2 199.211 7.92419  -2
   6  -9   2 199.211 7.92419   1
   7  13   2 76.0662 6.38566  -2
   7  -9   2 76.0662 6.38566   1
   8  14   2 6.01481 9.91688  -2
   8  -9   2 6.01481 9.91688   1
   9  14   2 6.37297 7.98892  -2
   9  -9   2 6.37297 7.98892   1
 -12  -8   2 20.9118 3.71001   1
 -11   4   2 13.7714 5.60968  -2
 -11  -8   2 13.7714 5.60968   1
 -10   4   2 46.2768 9.85740  -2
 -10  -8   2 46.2768 9.85740   1
  -9   5   2 105.387 5.92725  -2
  -9  -8   2 105.387 5.92725   1
  -8   5   2 71.7029 4.58147  -2
  -8  -8   2 71.7029 4.58147   1
  -7   6   2 85.5566 4.21918  -2
  -7  -8   2 85.5566 4.21918   1
  -6   6   2 33.3179 3.46430  -2
  -6  -8   2 33.3179 3.46430   1
  -5   7   2 160.916 5.56488  -2
  -5  -8   2 160.916 5.56488   1
  -4   7   2 33.0149 2.81404  -2
  -4  -8   2 33.0149 2.81404   1
  -3  -8   2 8.93471 1.44491   1
  -2   8   2 -1.0923 1.87931  -2
  -2  -8   2 -1.0923 1.87931   1
  -1  -8   2 19.6550 1.57226   1
   0   9   2 463.112 7.01525  -2
   0  -8   2 463.112 7.01525   1
   1  -8   2 66.8315 2.32296   1
   2  10   2 51.4947 3.28062  -2
   2  -8   2 51.4947 3.28062   1
   3  10   2 221.412 5.28543  -2
   3  -8   2 221.412 5.28543   1
   4  11   2 263.333 6.94286  -2
   4  -8   2 263.333 6.94286   1
   5  11   2 192.714 6.35819  -2
   5  -8   2 192.714 6.35819   1
   6  12   2 92.0766 6.08381  -2
   6  -8   2 92.0766 6.08381   1
   7  12   2 97.1994 5.92941  -2
   7  -8   2 97.1994 5.92941   1
   8  -8   2 15.5367 3.09183   1
   9  13   2 25.6110 7.20569  -2
   9  -8   2 25.6110 7.20569   1
 -12  -7   2 24.8775 3.64260   1
 -11   3   2 46.2892 3.03912  -2
 -11  -7   2 46.2892 3.03912   1
 -10   3   2 142.715 10.2845  -2
 -10  -7   2 142.715 10.2845   1
  -9   4   2 250.381 7.06495  -2
  -9  -7   2 250.381 7.06495   1
  -8   4   2 123.676 4.58935  -2
  -8  -7   2 123.676 4.58935   1
  -7   5   2 2.53170 3.46049  -2
  -7  -7   2 2.53170 3.46049   1
  -6   5   2 82.8717 3.48647  -2
  -6  -7   2 82.8717 3.48647   1
  -5   6   2 212.445 5.69839  -2
  -5  -7   2 212.445 5.69839   1
  -4   6   2 180.527 3.80754  -2
  -4  -7   2 180.527 3.80754   1
  -3  -7   2 0.18355 1.05724   1
  -2   7   2 27.0099 1.67569  -2
  -2  -7   2 27.0099 1.67569   1
  -1  -7   2 0.28426 0.96804   1
   0   8   2 33.1061 1.86323  -2
   0  -7   2 33.1061 1.86323   1
   1  -7   2 52.3023 1.70592   1
   2   9   2 34.2799 2.81733  -2
   2  -7   2 34.2799 2.81733   1
   3   9   2 59.1762 5.33406  -2
   3  -7   2 59.1762 5.33406   1
   4  10   2 309.290 5.90266  -2
   4  -7   2 309.290 5.90266   1
   5  10   2 90.9153 4.89313  -2
   5  -7   2 90.9153 4.89313   1
   6  11   2 54.5500 5.27973  -2
   6  -7   2 54.5500 5.27973   1
   7  11   2 65.3967 5.07360  -2
   7  -7   2 65.3967 5.07360   1
   8  -7   2 112.420 4.80459   1
   9  12   2 184.498 6.70120  -2
   9  -7   2 184.498 6.70120   1
  10  -7   2 12.2067 4.27905   1
 -12  -6   2 19.9487 2.45129   1
 -11   2   2 63.5410 3.17684  -2
 -11  -6   2 63.5410 3.17684   1
 -10   2   2 105.260 8.76827  -2
 -10  -6   2 105.260 8.76827   1
  -9   3   2 102.738 4.37857  -2
  -9  -6   2 102.738 4.37857   1
  -8   3   2 117.042 4.26957  -2
  -8  -6   2 117.042 4.26957   1
  -7   4   2 228.262 4.98461  -2
  -7  -6   2 228.262 4.98461   1
  -6   4   2 320.751 5.59549  -2
  -6  -6   2 320.751 5.59549   1
  -5   5   2 380.661 9.94445  -2
  -5  -6   2 380.661 9.94445   1
  -4   5   2 224.059 3.57068  -2
  -4  -6   2 224.059 3.57068   1
  -3  -6   2 42.2176 1.20298   1
  -2   6   2 13.1013 1.33821  -2
  -2  -6   2 13.1013 1.33821   1
  -1  -6   2 64.9450 1.73429   1
   0   7   2 159.097 2.70039  -2
   0  -6   2 159.097 2.70039   1
   1  -6   2 25.5664 1.19448   1
   2   8   2 2.10125 1.90948  -2
   2  -6   2 2.10125 1.90948   1
   3  -6   2 29.4325 1.39817   1
   4   9   2 356.646 5.38036  -2
   4  -6   2 356.646 5.38036   1
   5   9   2 109.997 3.93962  -2
   5  -6   2 109.997 3.93962   1
   6  10   2 25.6470 5.97044  -2
   6  -6   2 25.6470 5.97044   1
   7  10   2 -1.9684 4.13963  -2
   7  -6   2 -1.9684 4.13963   1
   8  -6   2 44.1908 3.16630   1
   9  11   2 113.243 5.49417  -2
   9  -6   2 113.243 5.49417   1
  10  -6   2 18.3490 4.03864   1
  11  12   2 32.3088 6.90455  -2
  11  -6   2 32.3088 6.90455   1
 -13   0   2 -0.0667 4.42954  -2
 -13  -5   2 -0.0667 4.42954   1
 -12  -5   2 1.74797 1.85628   1
 -11   1   2 50.1850 3.05195  -2
 -11  -5   2 50.1850 3.05195   1
 -10  -5   2 21.4308 1.76998   1
  -9   2   2 8.79845 3.57526  -2
  -9  -5   2 8.79845 3.57526   1
  -8   2   2 10.8458 4.10913  -2
  -8  -5   2 10.8458 4.10913   1
  -7   3   2 491.203 7.68243  -2
  -7  -5   2 491.203 7.68243   1
  -6   3   2 378.298 6.03932  -2
  -6  -5   2 378.298 6.03932   1
  -5  -5   2 334.630 4.48554   1
  -4   4   2 658.921 6.82483  -2
  -4  -5   2 658.921 6.82483   1
  -3  -5   2 211.635 2.59762   1
  -2   5   2 230.667 2.71694  -2
  -2  -5   2 230.667 2.71694   1
  -1  -5   2 359.865 3.89387   1
   0   6   2 852.136 9.70021  -2
   0  -5   2 852.136 9.70021   1
   1  -5   2 11.5445 0.90940   1
   2   7   2 10.0846 1.75802  -2
   2  -5   2 10.0846 1.75802   1
   3  -5   2 129.529 2.42575   1
   4   8   2 175.255 3.42036  -2
   4  -5   2 175.255 3.42036   1
   5   8   2 104.078 3.02137  -2
   5  -5   2 104.078 3.02137   1
   6  -5   2 38.1220 1.61435   1
   7   9   2 -4.1713 3.68310  -2
   7  -5   2 -4.1713 3.68310   1
   8  -5   2 13.1921 2.29169   1
   9  10   2 18.8011 4.10045  -2
   9  -5   2 18.8011 4.10045   1
  10  -5   2 14.7311 2.95818   1
  11  11   2 12.9359 6.40425  -2
  11  -5   2 12.9359 6.40425   1
  12  -5   2 30.0206 5.06427   1
 -13  -1   2 22.1268 3.12630  -2
 -13  -4   2 22.1268 3.12630   1
 -12  -4   2 4.13096 1.92659   1
 -11   0   2 7.81410 2.78114  -2
 -11  -4   2 7.81410 2.78114   1
 -10  -4   2 2.14210 1.44513   1
  -9   1   2 30.3022 2.49169  -2
  -9  -4   2 30.3022 2.49169   1
  -8   1   2 9.78670 3.99399  -2
  -8  -4   2 9.78670 3.99399   1
  -7   2   2 530.173 9.55994  -2
  -7  -4   2 530.173 9.55994   1
  -6   2   2 294.760 5.01223  -2
  -6  -4   2 294.760 5.01223   1
  -5  -4   2 0.79581 0.66420   1
  -4   3   2 59.8878 1.50765  -2
  -4  -4   2 59.8878 1.50765   1
  -3  -4   2 15.4783 0.67336   1
  -2   4   2 259.354 2.88137  -2
  -2  -4   2 259.354 2.88137   1
  -1  -4   2 1.55744 0.46411   1
   0   5   2 482.052 4.92978  -2
   0  -4   2 482.052 4.92978   1
   1  -4   2 466.052 5.51329   1
   2   6   2 123.448 2.32435  -2
   2  -4   2 123.448 2.32435   1
   3  -4   2 299.919 3.94696   1
   4   7   2 693.278 11.3525  -2
   4  -4   2 693.278 11.3525   1
   5   7   2 196.978 6.35634  -2
   5  -4   2 196.978 6.35634   1
   6  -4   2 0.35747 1.01565   1
   7   8   2 54.0199 3.35019  -2
   7  -4   2 54.0199 3.35019   1
   8  -4   2 55.6810 2.91478   1
   9   9   2 38.7897 2.90401  -2
   9  -4   2 38.7897 2.90401   1
  10  -4   2 0.32750 1.71851   1
  11  10   2 2.64174 3.78901  -2
  11  -4   2 2.64174 3.78901   1
  12  -4   2 -1.0324 3.94007   1
 -13  -2   2 76.3860 3.30114  -2
 -13  -3   2 76.3860 3.30114   1
 -12  -3   2 25.6039 2.20446   1
 -11  -1   2 69.4748 3.23578  -2
 -11  -3   2 69.4748 3.23578   1
 -10  -3   2 38.7803 1.98138   1
  -9   0   2 48.8887 2.56048  -2
  -9  -3   2 48.8887 2.56048   1
  -8   0   2 19.0601 3.49398  -2
  -8  -3   2 19.0601 3.49398   1
  -7   1   2 41.3457 4.46490  -2
  -7  -3   2 41.3457 4.46490   1
  -6   1   2 0.78998 2.01287  -2
  -6  -3   2 0.78998 2.01287   1
  -5  -3   2 20.7296 0.85790   1
  -4   2   2 143.147 2.03934  -2
  -4  -3   2 143.147 2.03934   1
  -3  -3   2 76.7898 1.16800   1
  -2   3   2 868.879 7.75304  -2
  -2  -3   2 868.879 7.75304   1
  -1  -3   2 4.95874 0.34247   1
   0   4   2 249.845 2.78997  -2
   0  -3   2 249.845 2.78997   1
   1  -3   2 415.179 4.83205   1
   2   5   2 1251.76 13.7789  -2
   2  -3   2 1251.76 13.7789   1
   3  -3   2 150.389 2.06939   1
   4  -3   2 345.682 4.42093   1
   5  -3   2 219.583 3.29054   1
   6  -3   2 75.6935 1.72280   1
   7   7   2 183.783 3.11888  -2
   7  -3   2 183.783 3.11888   1
   8  -3   2 287.832 4.30519   1
   9   8   2 409.942 6.51822  -2
   9  -3   2 409.942 6.51822   1
  10  -3   2 0.87117 1.62587   1
  11   9   2 10.5493 3.60976  -2
  11  -3   2 10.5493 3.60976   1
  12  -3   2 26.5925 2.82699   1
  13  -3   2 16.3034 2.95355   1
 -13  -3   2 81.8794 3.41152  -2
 -13  -2   2 81.8794 3.41152   1
 -12  -2   2 61.2628 2.72463   1
 -11  -2   2 226.453 4.77687  -2
 -11  -2   2 226.453 4.77687   1
 -10  -2   2 84.7189 2.73832   1
  -9  -1   2 4.73735 2.40276  -2
  -9  -2   2 4.73735 2.40276   1
  -8  -1   2 97.6559 4.53576  -2
  -8  -2   2 97.6559 4.53576   1
  -7   0   2 713.986 15.3755  -2
  -7  -2   2 713.986 15.3755   1
  -6   0   2 544.481 8.59035  -2
  -6  -2   2 544.481 8.59035   1
  -5  -2   2 47.1513 1.13570   1
  -4   1   2 9.60887 1.07813  -2
  -4  -2   2 9.60887 1.07813   1
  -3  -2   2 23.6279 0.54238   1
  -2   2   2 31.9401 0.81199  -2
  -2  -2   2 31.9401 0.81199   1
  -1  -2   2 48.0611 0.76553   1
   0   3   2 174.868 1.80728  -2
   0  -2   2 174.868 1.80728   1
   1  -2   2 0.51045 0.41039   1
   2   4   2 367.061 6.45054  -2
   2  -2   2 367.061 6.45054   1
   3  -2   2 145.096 2.55608   1
   4  -2   2 93.6207 2.13014   1
   5  -2   2 147.011 2.38737   1
   6  -2   2 12.2451 0.81233   1
   7   6   2 70.3005 2.44053  -2
   7  -2   2 70.3005 2.44053   1
   8  -2   2 72.3701 2.07484   1
   9   7   2 170.985 3.42668  -2
   9  -2   2 170.985 3.42668   1
  10  -2   2 103.387 3.15510   1
  11   8   2 83.3260 3.98796  -2
  11  -2   2 83.3260 3.98796   1
  12  -2   2 77.6026 3.55326   1
  13   9   2 154.873 6.29445  -2
  13  -2   2 154.873 6.29445   1
 -13  -4   2 21.1462 2.60059  -2
 -13  -1   2 21.1462 2.60059   1
 -12  -1   2 6.45237 2.05579   1
 -11  -3   2 71.0933 3.35224  -2
 -11  -1   2 71.0933 3.35224   1
 -10  -3   2 121.454 6.22028  -2
 -10  -1   2 121.454 6.22028   1
  -9  -2   2 6.80153 2.46254  -2
  -9  -1   2 6.80153 2.46254   1
  -8  -2   2 98.2747 4.76524  -2
  -8  -1   2 98.2747 4.76524   1
  -7  -1   2 1057.38 22.1655  -2
  -7  -1   2 1057.38 22.1655   1
  -6  -1   2 700.143 10.7249  -2
  -6  -1   2 700.143 10.7249   1
  -5  -1   2 193.003 2.42938   1
  -4   0   2 399.364 4.24606  -2
  -4  -1   2 399.364 4.24606   1
  -3  -1   2 180.396 1.71218   1
  -2   1   2 207.985 2.10607  -2
  -2  -1   2 207.985 2.10607   1
  -1  -1   2 54.6366 0.89266   1
   0   2   2 141.627 1.73076  -2
   0  -1   2 141.627 1.73076   1
   1  -1   2 2.63844 0.30660   1
   2  -1   2 1.34403 0.43338   1
   3  -1   2 5.46351 0.62437   1
   4  -1   2 29.6150 0.86594   1
   5  -1   2 2.02398 0.61156   1
   6  -1   2 17.2963 0.83213   1
   7   5   2 94.7373 2.51367  -2
   7  -1   2 94.7373 2.51367   1
   8  -1   2 2.04413 1.10014   1
   9   6   2 28.1895 2.61360  -2
   9  -1   2 28.1895 2.61360   1
  10  -1   2 183.601 3.63522   1
  11   7   2 144.577 3.97782  -2
  11  -1   2 144.577 3.97782   1
  12  -1   2 56.4497 3.08374   1
  13   8   2 87.9223 5.51263  -2
  13  -1   2 87.9223 5.51263   1
 -13  -5   2 -0.3097 2.45637  -2
 -13   0   2 -0.3097 2.45637   1
 -12   0   2 -0.1882 1.94646   1
 -11  -4   2 5.33856 3.02890  -2
 -11   0   2 5.33856 3.02890   1
 -10  -4   2 1.72533 5.20429  -2
 -10   0   2 1.72533 5.20429   1
  -9  -3   2 49.5783 2.74875  -2
  -9   0   2 49.5783 2.74875   1
  -8  -3   2 24.6357 4.00874  -2
  -8   0   2 24.6357 4.00874   1
  -7  -2   2 717.798 15.6188  -2
  -7   0   2 717.798 15.6188   1
  -6  -2   2 570.889 12.5018  -2
  -6   0   2 570.889 12.5018   1
  -5   0   2 66.0380 1.35225   1
  -4  -1   2 402.816 4.29897  -2
  -4   0   2 402.816 4.29897   1
  -3   0   2 286.566 2.72545   1
  -2   0   2 3434.60 30.2107  -2
  -2   0   2 3434.60 30.2107   1
  -1   0   2 3.26152 0.29075   1
   0   0   2 16.7925 0.54139   1
   1   0   2 712.287 9.47052   1
   2   0   2 199.369 2.04048   1
   3   0   2 596.896 6.11465   1
   4   0   2 224.546 2.65724   1
   5   0   2 63.5456 1.20507   1
   6   0   2 5.83264 0.68255   1
   7   4   2 24.4805 1.53039  -2
   7   0   2 24.4805 1.53039   1
   8   0   2 12.7354 1.03591   1
   9   5   2 6.45742 2.37284  -2
   9   0   2 6.45742 2.37284   1
  10   0   2 64.8505 2.60444   1
  11   6   2 48.4302 3.00161  -2
  11   0   2 48.4302 3.00161   1
  12   0   2 -0.1096 2.03460   1
  13   7   2 17.0574 4.85286  -2
  13   0   2 17.0574 4.85286   1
  14   7   2 6.84259 9.25902  -2
  14   0   2 6.84259 9.25902   1
 -12   1   2 2.77777 2.07341   1
 -11  -5   2 42.4648 3.28033  -2
 -11   1   2 42.4648 3.28033   1
 -10  -5   2 34.5618 5.98957  -2
 -10   1   2 34.5618 5.98957   1
  -9  -4   2 29.4012 3.09262  -2
  -9   1   2 29.4012 3.09262   1
  -8  -4   2 11.4575 3.99722  -2
  -8   1   2 11.4575 3.99722   1
  -7  -3   2 42.8348 3.76776  -2
  -7   1   2 42.8348 3.76776   1
  -6  -3   2 13.7689 2.99274  -2
  -6   1   2 13.7689 2.99274   1
  -5   1   2 83.5689 1.53494   1
  -4  -2   2 7.07056 1.14315  -2
  -4   1   2 7.07056 1.14315   1
  -3   1   2 101.201 1.40605   1
  -2  -1   2 211.798 1.92760  -2
  -2   1   2 211.798 1.92760   1
  -1   1   2 9.40792 0.32930   1
   0   0   2 16.6937 0.75479  -2
   0   1   2 16.6937 0.75479   1
   1   1   2 1405.48 15.3427   1
   2   1   2 2657.34 25.4771   1
   3   1   2 302.442 3.55906   1
   4   1   2 136.014 1.99077   1
   5   1   2 199.548 2.30308   1
   6   1   2 100.937 1.60031   1
   7   3   2 250.190 3.13586  -2
   7   1   2 250.190 3.13586   1
   8   1   2 82.4781 1.88598   1
   9   4   2 112.681 3.23238  -2
   9   1   2 112.681 3.23238   1
  10   1   2 2.40434 1.53086   1
  11   5   2 1.63979 3.33006  -2
  11   1   2 1.63979 3.33006   1
  12   1   2 6.97634 2.05310   1
  13   6   2 8.34176 4.69170  -2
  13   1   2 8.34176 4.69170   1
  14   6   2 -3.6778 6.29464  -2
  14   1   2 -3.6778 6.29464   1
 -12   2   2 19.2670 2.38789   1
 -11  -6   2 57.8495 3.70462  -2
 -11   2   2 57.8495 3.70462   1
 -10  -6   2 81.2234 6.71373  -2
 -10   2   2 81.2234 6.71373   1
  -9  -5   2 9.60379 2.99272  -2
  -9   2   2 9.60379 2.99272   1
  -8  -5   2 9.33720 4.28092  -2
  -8   2   2 9.33720 4.28092   1
  -7  -4   2 524.061 8.77069  -2
  -7   2   2 524.061 8.77069   1
  -6  -4   2 274.707 4.04022  -2
  -6   2   2 274.707 4.04022   1
  -5  -3   2 28.9761 3.17581  -2
  -5   2   2 28.9761 3.17581   1
  -4  -3   2 142.785 2.13756  -2
  -4   2   2 142.785 2.13756   1
  -3   2   2 8.60279 0.58021   1
  -2  -2   2 26.1610 0.85591  -2
  -2   2   2 26.1610 0.85591   1
  -1   2   2 134.577 1.29560   1
   0  -1   2 140.377 1.55620  -2
   0   2   2 140.377 1.55620   1
   1   2   2 29.3994 0.49800   1
   2   2   2 84.0222 1.24990   1
   3   2   2 457.592 5.21645   1
   4   2   2 290.310 3.58346   1
   5   2   2 418.551 4.53029   1
   6   2   2 156.735 2.24101   1
   7   2   2 274.751 3.66903  -2
   7   2   2 274.751 3.66903   1
   8   2   2 34.7099 1.29672   1
   9   3   2 84.2144 2.97660  -2
   9   2   2 84.2144 2.97660   1
  10   2   2 200.814 4.31132   1
  11   4   2 79.4271 3.58031  -2
  11   2   2 79.4271 3.58031   1
  12   2   2 13.8815 2.99872   1
  13   5   2 32.4627 6.58006  -2
  13   2   2 32.4627 6.58006   1
  14   5   2 8.49310 6.19652  -2
  14   2   2 8.49310 6.19652   1
 -12   3   2 25.4769 2.56177   1
 -11  -7   2 53.6793 3.95139  -2
 -11   3   2 53.6793 3.95139   1
 -10  -7   2 146.564 7.61779  -2
 -10   3   2 146.564 7.61779   1
  -9  -6   2 108.162 3.87889  -2
  -9   3   2 108.162 3.87889   1
  -8  -6   2 104.875 5.66799  -2
  -8   3   2 104.875 5.66799   1
  -7  -5   2 472.104 8.13999  -2
  -7   3   2 472.104 8.13999   1
  -6  -5   2 383.600 5.36670  -2
  -6   3   2 383.600 5.36670   1
  -5  -4   2 165.474 5.28378  -2
  -5   3   2 165.474 5.28378   1
  -4  -4   2 62.5276 1.65617  -2
  -4   3   2 62.5276 1.65617   1
  -3   3   2 37.3677 0.99616   1
  -2  -3   2 856.211 8.41383  -2
  -2   3   2 856.211 8.41383   1
  -1   3   2 6.64156 0.49833   1
   0  -2   2 173.508 2.01307  -2
   0   3   2 173.508 2.01307   1
   1   3   2 0.76200 0.44338   1
   2  -1   2 9.09250 2.13295  -2
   2   3   2 9.09250 2.13295   1
   3   3   2 147.758 2.06116   1
   4   3   2 76.3925 1.32927   1
   5   3   2 61.9284 1.31873   1
   6   3   2 82.8001 1.63482   1
   7   1   2 253.605 3.53300  -2
   7   3   2 253.605 3.53300   1
   8   3   2 18.1713 1.24614   1
   9   2   2 91.6520 3.05226  -2
   9   3   2 91.6520 3.05226   1
  10   3   2 494.858 9.16052   1
  11   3   2 491.913 9.53665  -2
  11   3   2 491.913 9.53665   1
  12   3   2 51.9594 4.05617   1
  13   4   2 37.0114 6.76632  -2
  13   3   2 37.0114 6.76632   1
  14   4   2 21.8410 8.52889  -2
  14   3   2 21.8410 8.52889   1
 -11  -8   2 8.68440 3.89590  -2
 -11   4   2 8.68440 3.89590   1
 -10  -8   2 31.4314 6.81542  -2
 -10   4   2 31.4314 6.81542   1
  -9  -7   2 248.371 5.29933  -2
  -9   4   2 248.371 5.29933   1
  -8  -7   2 122.844 6.24516  -2
  -8   4   2 122.844 6.24516   1
  -7  -6   2 210.247 6.89999  -2
  -7   4   2 210.247 6.89999   1
  -6  -6   2 324.206 4.33133  -2
  -6   4   2 324.206 4.33133   1
  -5   4   2 188.715 2.69058   1
  -4  -5   2 654.275 6.89448  -2
  -4   4   2 654.275 6.89448   1
  -3   4   2 98.8764 1.51968   1
  -2  -4   2 262.366 3.35045  -2
  -2   4   2 262.366 3.35045   1
  -1   4   2 64.1921 1.19877   1
   0  -3   2 256.408 3.27504  -2
   0   4   2 256.408 3.27504   1
   1   4   2 113.666 1.76992   1
   2  -2   2 393.790 4.72889  -2
   2   4   2 393.790 4.72889   1
   3   4   2 302.135 3.35537   1
   4   4   2 23.7675 0.84435   1
   5   4   2 3.23069 0.67585   1
   6   4   2 26.9634 1.02462   1
   7   0   2 24.6383 1.87962  -2
   7   4   2 24.6383 1.87962   1
   8   4   2 66.3624 1.96468   1
   9   1   2 108.497 3.23481  -2
   9   4   2 108.497 3.23481   1
  10   4   2 57.9802 2.45322   1
  11   2   2 75.9709 4.12278  -2
  11   4   2 75.9709 4.12278   1
  12   4   2 16.5519 3.21800   1
  13   3   2 47.2430 7.03753  -2
  13   4   2 47.2430 7.03753   1
  14   3   2 37.8132 9.02393  -2
  14   4   2 37.8132 9.02393   1
 -11  -9   2 -1.4607 4.17158  -2
 -11   5   2 -1.4607 4.17158   1
 -10  -9   2 -0.4898 7.36195  -2
 -10   5   2 -0.4898 7.36195   1
  -9  -8   2 111.815 4.26895  -2
  -9   5   2 111.815 4.26895   1
  -8  -8   2 73.7718 4.02436  -2
  -8   5   2 73.7718 4.02436   1
  -7  -7   2 -3.4567 3.03707  -2
  -7   5   2 -3.4567 3.03707   1
  -6  -7   2 96.1067 3.00548  -2
  -6   5   2 96.1067 3.00548   1
  -5   5   2 230.830 2.92689   1
  -4  -6   2 225.538 3.50606  -2
  -4   5   2 225.538 3.50606   1
  -3   5   2 143.924 2.16794   1
  -2  -5   2 234.738 2.66340  -2
  -2   5   2 234.738 2.66340   1
  -1   5   2 184.505 2.41392   1
   0  -4   2 496.914 5.29878  -2
   0   5   2 496.914 5.29878   1
   1   5   2 634.518 7.30045   1
   2  -3   2 1202.29 11.9502  -2
   2   5   2 1202.29 11.9502   1
   3   5   2 114.637 1.75883   1
   4  -2   2 308.248 8.46923  -2
   4   5   2 308.248 8.46923   1
   5   5   2 25.5411 1.09484   1
   6   5   2 8.14788 0.85735   1
   7  -1   2 100.084 2.44833  -2
   7   5   2 100.084 2.44833   1
   8   5   2 2.64781 1.25611   1
   9   0   2 10.2930 2.53005  -2
   9   5   2 10.2930 2.53005   1
  10   5   2 11.8581 1.78581   1
  11   1   2 5.97501 3.43750  -2
  11   5   2 5.97501 3.43750   1
  12   5   2 13.0693 2.76271   1
  13   2   2 26.5760 6.83580  -2
  13   5   2 26.5760 6.83580   1
  14   2   2 20.3146 9.30439  -2
  14   5   2 20.3146 9.30439   1
 -10 -10   2 31.6203 8.07740  -2
 -10   6   2 31.6203 8.07740   1
  -9  -9   2 -0.2965 3.96326  -2
  -9   6   2 -0.2965 3.96326   1
  -8  -9   2 2.92395 3.97925  -2
  -8   6   2 2.92395 3.97925   1
  -7  -8   2 85.8966 3.89359  -2
  -7   6   2 85.8966 3.89359   1
  -6  -8   2 32.9582 2.85044  -2
  -6   6   2 32.9582 2.85044   1
  -5   6   2 42.4774 1.46822   1
  -4  -7   2 182.969 3.03822  -2
  -4   6   2 182.969 3.03822   1
  -3   6   2 5.57153 0.99594   1
  -2  -6   2 13.4726 1.25067  -2
  -2   6   2 13.4726 1.25067   1
  -1   6   2 202.608 2.71609   1
   0  -5   2 850.890 8.76383  -2
   0   6   2 850.890 8.76383   1
   1   6   2 102.498 1.77372   1
   2  -4   2 116.157 2.06811  -2
   2   6   2 116.157 2.06811   1
   3   6   2 309.668 3.63998   1
   4  -3   2 759.587 8.85419  -2
   4   6   2 759.587 8.85419   1
   5  -3   2 617.685 6.78119  -2
   5   6   2 617.685 6.78119   1
   6   6   2 60.6683 1.55245   1
   7  -2   2 65.8728 2.58670  -2
   7   6   2 65.8728 2.58670   1
   8   6   2 24.2206 1.69141   1
   9  -1   2 34.3263 2.76035  -2
   9   6   2 34.3263 2.76035   1
  10   6   2 124.922 3.65728   1
  11   0   2 46.9195 3.72741  -2
  11   6   2 46.9195 3.72741   1
  12   6   2 0.43501 2.58135   1
  13   1   2 12.3669 6.75947  -2
  13   6   2 12.3669 6.75947   1
  14   1   2 -3.1693 9.49452  -2
  14   6   2 -3.1693 9.49452   1
 -10 -11   2 57.5868 8.76950  -2
 -10   7   2 57.5868 8.76950   1
  -9 -10   2 61.4333 4.67164  -2
  -9   7   2 61.4333 4.67164   1
  -8 -10   2 20.2836 4.42093  -2
  -8   7   2 20.2836 4.42093   1
  -7  -9   2 25.4756 3.84379  -2
  -7   7   2 25.4756 3.84379   1
  -6  -9   2 61.2290 4.58344  -2
  -6   7   2 61.2290 4.58344   1
  -5  -8   2 176.081 6.86184  -2
  -5   7   2 176.081 6.86184   1
  -4  -8   2 28.6073 2.83326  -2
  -4   7   2 28.6073 2.83326   1
  -3   7   2 6.54072 1.14474   1
  -2  -7   2 27.5970 1.66481  -2
  -2   7   2 27.5970 1.66481   1
  -1   7   2 22.6945 1.10876   1
   0  -6   2 154.089 2.50484  -2
   0   7   2 154.089 2.50484   1
   1   7   2 12.8131 0.95069   1
   2  -5   2 8.41555 1.55057  -2
   2   7   2 8.41555 1.55057   1
   3  -5   2 313.223 5.49826  -2
   3   7   2 313.223 5.49826   1
   4  -4   2 669.535 7.27846  -2
   4   7   2 669.535 7.27846   1
   5  -4   2 193.078 3.21694  -2
   5   7   2 193.078 3.21694   1
   6   7   2 38.8287 1.38991   1
   7  -3   2 194.682 4.26502  -2
   7   7   2 194.682 4.26502   1
   8   7   2 115.426 3.17368   1
   9  -2   2 164.984 4.20826  -2
   9   7   2 164.984 4.20826   1
  10   7   2 234.010 5.80094   1
  11  -1   2 143.111 5.02950  -2
  11   7   2 143.111 5.02950   1
  12   7   2 15.5698 3.38102   1
  13   0   2 18.0383 7.17564  -2
  13   7   2 18.0383 7.17564   1
  14   0   2 -2.7972 9.82147  -2
  14   7   2 -2.7972 9.82147   1
  -9 -11   2 162.707 8.74916  -2
  -9   8   2 162.707 8.74916   1
  -8 -11   2 160.256 8.83348  -2
  -8   8   2 160.256 8.83348   1
  -7 -10   2 40.0401 5.51749  -2
  -7   8   2 40.0401 5.51749   1
  -6 -10   2 121.127 5.49221  -2
  -6   8   2 121.127 5.49221   1
  -5  -9   2 196.333 7.60231  -2
  -5   8   2 196.333 7.60231   1
  -4  -9   2 295.599 5.73020  -2
  -4   8   2 295.599 5.73020   1
  -3   8   2 4.89285 1.42682   1
  -2  -8   2 -1.2614 1.89362  -2
  -2   8   2 -1.2614 1.89362   1
  -1   8   2 1.33893 1.06850   1
   0  -7   2 33.4339 1.92965  -2
   0   8   2 33.4339 1.92965   1
   1   8   2 0.53886 0.90310   1
   2  -6   2 4.11265 1.77045  -2
   2   8   2 4.11265 1.77045   1
   3  -6   2 35.1144 2.55326  -2
   3   8   2 35.1144 2.55326   1
   4  -5   2 166.698 3.04088  -2
   4   8   2 166.698 3.04088   1
   5  -5   2 110.081 3.47731  -2
   5   8   2 110.081 3.47731   1
   6  -4   2 1.80513 4.23271  -2
   6   8   2 1.80513 4.23271   1
   7  -4   2 56.4822 3.32429  -2
   7   8   2 56.4822 3.32429   1
   8   8   2 263.261 4.94931   1
   9  -3   2 382.857 7.97363  -2
   9   8   2 382.857 7.97363   1
  10   8   2 29.6113 2.63633   1
  11  -2   2 91.5466 4.58889  -2
  11   8   2 91.5466 4.58889   1
  12  -2   2 172.876 9.56653  -2
  12   8   2 172.876 9.56653   1
  13  -1   2 74.2812 7.77137  -2
  13   8   2 74.2812 7.77137   1
  -8 -12   2 65.3856 8.68377  -2
  -8   9   2 65.3856 8.68377   1
  -7 -11   2 45.7131 7.29169  -2
  -7   9   2 45.7131 7.29169   1
  -6 -11   2 112.475 5.99559  -2
  -6   9   2 112.475 5.99559   1
  -5 -10   2 231.961 8.82733  -2
  -5   9   2 231.961 8.82733   1
  -4 -10   2 138.526 5.09806  -2
  -4   9   2 138.526 5.09806   1
  -3   9   2 77.6022 2.83454   1
  -2  -9   2 55.1785 2.66922  -2
  -2   9   2 55.1785 2.66922   1
  -1   9   2 50.4111 2.10697   1
   0  -8   2 464.358 7.18212  -2
   0   9   2 464.358 7.18212   1
   1   9   2 94.4607 2.85065   1
   2  -7   2 24.6222 2.59210  -2
   2   9   2 24.6222 2.59210   1
   3  -7   2 61.9377 5.05125  -2
   3   9   2 61.9377 5.05125   1
   4  -6   2 364.891 6.25869  -2
   4   9   2 364.891 6.25869   1
   5  -6   2 107.413 3.78782  -2
   5   9   2 107.413 3.78782   1
   6  -5   2 43.1546 3.52859  -2
   6   9   2 43.1546 3.52859   1
   7  -5   2 -0.4682 3.24528  -2
   7   9   2 -0.4682 3.24528   1
   8   9   2 17.4481 1.94004   1
   9  -4   2 34.1477 3.85467  -2
   9   9   2 34.1477 3.85467   1
  10   9   2 3.38534 2.29613   1
  11  -3   2 12.4639 4.08480  -2
  11   9   2 12.4639 4.08480   1
  12   9   2 49.7956 4.60903   1
  13  -2   2 150.020 9.24018  -2
  13   9   2 150.020 9.24018   1
  -8  10   2 10.1577 3.72041   1
  -7 -12   2 21.4207 7.70565  -2
  -7  10   2 21.4207 7.70565   1
  -6 -12   2 12.1213 6.86640  -2
  -6  10   2 12.1213 6.86640   1
  -5 -11   2 70.9276 6.20148  -2
  -5  10   2 70.9276 6.20148   1
  -4 -11   2 89.1156 5.09174  -2
  -4  10   2 89.1156 5.09174   1
  -3  10   2 75.2882 3.30351   1
  -2 -10   2 113.355 3.58283  -2
  -2  10   2 113.355 3.58283   1
  -1  10   2 104.447 3.28780   1
   0  -9   2 271.936 5.30341  -2
   0  10   2 271.936 5.30341   1
   1  10   2 71.4742 2.71598   1
   2  -8   2 49.5047 3.15883  -2
   2  10   2 49.5047 3.15883   1
   3  -8   2 218.295 7.10590  -2
   3  10   2 218.295 7.10590   1
   4  -7   2 319.962 6.04761  -2
   4  10   2 319.962 6.04761   1
   5  -7   2 93.4909 3.97755  -2
   5  10   2 93.4909 3.97755   1
   6  -6   2 18.1063 4.40330  -2
   6  10   2 18.1063 4.40330   1
   7  -6   2 4.87246 4.03303  -2
   7  10   2 4.87246 4.03303   1
   8  10   2 31.6171 2.70172   1
   9  -5   2 18.6287 3.79005  -2
   9  10   2 18.6287 3.79005   1
  10  10   2 3.69206 2.58954   1
  11  -4   2 2.93022 5.37256  -2
  11  10   2 2.93022 5.37256   1
  12  10   2 8.32675 3.90079   1
  -7 -13   2 1.78409 8.63483  -2
  -7  11   2 1.78409 8.63483   1
  -6 -13   2 15.6811 7.80564  -2
  -6  11   2 15.6811 7.80564   1
  -5 -12   2 25.9723 7.82741  -2
  -5  11   2 25.9723 7.82741   1
  -4 -12   2 3.94568 5.91966  -2
  -4  11   2 3.94568 5.91966   1
  -3  11   2 43.3756 3.05209   1
  -2 -11   2 71.4800 4.11284  -2
  -2  11   2 71.4800 4.11284   1
  -1  11   2 32.9551 2.35025   1
   0 -10   2 98.3123 3.82468  -2
   0  11   2 98.3123 3.82468   1
   1  11   2 62.1586 2.66629   1
   2  -9   2 150.034 4.53378  -2
   2  11   2 150.034 4.53378   1
   3  -9   2 201.981 7.70522  -2
   3  11   2 201.981 7.70522   1
   4  -8   2 265.276 5.87096  -2
   4  11   2 265.276 5.87096   1
   5  -8   2 199.679 6.18396  -2
   5  11   2 199.679 6.18396   1
   6  -7   2 64.3312 5.15765  -2
   6  11   2 64.3312 5.15765   1
   7  -7   2 66.3671 4.98793  -2
   7  11   2 66.3671 4.98793   1
   8  11   2 77.9364 3.75117   1
   9  -6   2 120.592 5.26040  -2
   9  11   2 120.592 5.26040   1
  10  11   2 21.4729 3.11000   1
  11  -5   2 14.1654 6.03304  -2
  11  11   2 14.1654 6.03304   1
  12  11   2 11.2481 4.32002   1
  -5 -13   2 40.8489 8.84382  -2
  -5  12   2 40.8489 8.84382   1
  -4 -13   2 34.4536 6.98131  -2
  -4  12   2 34.4536 6.98131   1
  -3  12   2 2.18854 3.05979   1
  -2 -12   2 2.32488 4.73064  -2
  -2  12   2 2.32488 4.73064   1
  -1  12   2 5.65720 2.78182   1
   0 -11   2 11.5605 5.06417  -2
   0  12   2 11.5605 5.06417   1
   1  12   2 9.36725 2.35980   1
   2 -10   2 125.430 5.50645  -2
   2  12   2 125.430 5.50645   1
   3 -10   2 24.1012 5.41046  -2
   3  12   2 24.1012 5.41046   1
   4  -9   2 33.6535 4.79146  -2
   4  12   2 33.6535 4.79146   1
   5  -9   2 65.3416 5.25496  -2
   5  12   2 65.3416 5.25496   1
   6  -8   2 96.9487 5.91151  -2
   6  12   2 96.9487 5.91151   1
   7  -8   2 101.803 5.80841  -2
   7  12   2 101.803 5.80841   1
   8  12   2 121.426 4.74632   1
   9  -7   2 190.234 8.04935  -2
   9  12   2 190.234 8.04935   1
  10  12   2 23.9908 4.19258   1
  11  -6   2 39.5392 7.14676  -2
  11  12   2 39.5392 7.14676   1
  -4 -14   2 16.9639 7.66832  -2
  -4  13   2 16.9639 7.66832   1
  -3  13   2 40.9009 4.39902   1
  -2 -13   2 23.0892 5.64978  -2
  -2  13   2 23.0892 5.64978   1
  -1  13   2 1.29019 3.12152   1
   0 -12   2 52.9103 6.20847  -2
   0  13   2 52.9103 6.20847   1
   1 -12   2 16.1500 7.82196  -2
   1  13   2 16.1500 7.82196   1
   2 -11   2 -3.1107 5.95163  -2
   2  13   2 -3.1107 5.95163   1
   3 -11   2 10.1399 7.23532  -2
   3  13   2 10.1399 7.23532   1
   4 -10   2 46.9594 5.77543  -2
   4  13   2 46.9594 5.77543   1
   5 -10   2 2.23236 6.34084  -2
   5  13   2 2.23236 6.34084   1
   6  -9   2 207.372 7.55699  -2
   6  13   2 207.372 7.55699   1
   7  -9   2 87.2324 7.55122  -2
   7  13   2 87.2324 7.55122   1
   8  13   2 14.3770 3.95757   1
   9  -8   2 27.1724 6.50882  -2
   9  13   2 27.1724 6.50882   1
  10  13   2 18.7693 4.47971   1
  -2 -14   2 117.421 7.75745  -2
  -2  14   2 117.421 7.75745   1
  -1  14   2 14.2577 3.93133   1
   0 -13   2 32.0622 6.89694  -2
   0  14   2 32.0622 6.89694   1
   1 -13   2 80.6966 9.25500  -2
   1  14   2 80.6966 9.25500   1
   2 -12   2 34.3369 7.29858  -2
   2  14   2 34.3369 7.29858   1
   3 -12   2 13.7518 8.15441  -2
   3  14   2 13.7518 8.15441   1
   4 -11   2 59.1485 7.88082  -2
   4  14   2 59.1485 7.88082   1
   5 -11   2 33.8098 7.98563  -2
   5  14   2 33.8098 7.98563   1
   6 -10   2 25.2016 8.34741  -2
   6  14   2 25.2016 8.34741   1
   7 -10   2 10.8775 7.57295  -2
   7  14   2 10.8775 7.57295   1
   8  14   2 3.12387 4.10457   1
   9  -9   2 3.01545 7.06417  -2
   9  14   2 3.01545 7.06417   1
   0 -14   2 14.1081 7.39351  -2
   0  15   2 14.1081 7.39351   1
   1  15   2 22.7155 4.29086   1
   2 -13   2 151.611 9.41921  -2
   2  15   2 151.611 9.41921   1
   3 -13   2 64.1515 9.76586  -2
   3  15   2 64.1515 9.76586   1
   4 -12   2 4.18783 8.56652  -2
   4  15   2 4.18783 8.56652   1
   5 -12   2 9.55976 8.78295  -2
   5  15   2 9.55976 8.78295   1
   6 -11   2 38.7820 9.67892  -2
   6  15   2 38.7820 9.67892   1
   7  15   2 13.2560 4.59165   1
  -6 -13   3 -1.7444 5.39508   1
  -5  12   3 51.7110 10.1516  -2
  -5 -13   3 51.7110 10.1516   1
  -4 -13   3 84.5567 7.18879   1
  -3  13   3 22.3130 7.89885  -2
  -3 -13   3 22.3130 7.89885   1
  -2 -13   3 -3.5578 3.94345   1
  -1  14   3 -3.2532 5.05328  -2
  -1 -13   3 -3.2532 5.05328   1
   0 -13   3 7.63768 3.36616   1
   1  15   3 11.1443 6.67615  -2
   1 -13   3 11.1443 6.67615   1
   2  15   3 18.6405 8.22069  -2
   2 -13   3 18.6405 8.22069   1
  -8 -12   3 10.9855 5.46831   1
  -7  10   3 33.4572 10.9574  -2
  -7 -12   3 33.4572 10.9574   1
  -6  11   3 35.1243 11.6733  -2
  -6 -12   3 35.1243 11.6733   1
  -5  11   3 96.2136 9.99406  -2
  -5 -12   3 96.2136 9.99406   1
  -4 -12   3 68.8934 6.20361   1
  -3  12   3 54.3932 7.39249  -2
  -3 -12   3 54.3932 7.39249   1
  -2 -12   3 9.71075 2.91049   1
  -1  13   3 57.8637 4.86639  -2
  -1 -12   3 57.8637 4.86639   1
   0  13   3 98.6025 9.48297  -2
   0 -12   3 98.6025 9.48297   1
   1  14   3 94.1098 6.49997  -2
   1 -12   3 94.1098 6.49997   1
   2  14   3 17.1873 7.24530  -2
   2 -12   3 17.1873 7.24530   1
   3  15   3 5.47694 7.20528  -2
   3 -12   3 5.47694 7.20528   1
   4  15   3 44.7619 7.72509  -2
   4 -12   3 44.7619 7.72509   1
  -9   8   3 -13.109 12.0226  -2
  -9 -11   3 -13.109 12.0226   1
  -8   9   3 18.9404 10.4899  -2
  -8 -11   3 18.9404 10.4899   1
  -7   9   3 -13.701 9.10357  -2
  -7 -11   3 -13.701 9.10357   1
  -6  10   3 93.3478 10.4453  -2
  -6 -11   3 93.3478 10.4453   1
  -5  10   3 42.0167 7.86526  -2
  -5 -11   3 42.0167 7.86526   1
  -4 -11   3 26.4715 3.22359   1
  -3  11   3 74.6711 4.94853  -2
  -3 -11   3 74.6711 4.94853   1
  -2 -11   3 95.9508 3.38543   1
  -1  12   3 256.820 5.53521  -2
  -1 -11   3 256.820 5.53521   1
   0 -11   3 57.3594 3.11369   1
   1  13   3 95.7937 5.88075  -2
   1 -11   3 95.7937 5.88075   1
   2  13   3 84.2514 6.84767  -2
   2 -11   3 84.2514 6.84767   1
   3  14   3 18.8357 6.52121  -2
   3 -11   3 18.8357 6.52121   1
   4  14   3 149.263 7.97997  -2
   4 -11   3 149.263 7.97997   1
   5  15   3 86.8195 8.36950  -2
   5 -11   3 86.8195 8.36950   1
   6  15   3 25.8591 7.38940  -2
   6 -11   3 25.8591 7.38940   1
 -10   7   3 35.8585 10.4787  -2
 -10 -10   3 35.8585 10.4787   1
  -9   7   3 5.13106 10.7021  -2
  -9 -10   3 5.13106 10.7021   1
  -8   8   3 151.143 11.2684  -2
  -8 -10   3 151.143 11.2684   1
  -7   8   3 105.747 9.46631  -2
  -7 -10   3 105.747 9.46631   1
  -6   9   3 13.8920 6.50635  -2
  -6 -10   3 13.8920 6.50635   1
  -5   9   3 -2.1110 4.76815  -2
  -5 -10   3 -2.1110 4.76815   1
  -4 -10   3 -0.0893 1.85978   1
  -3  10   3 34.0100 3.19149  -2
  -3 -10   3 34.0100 3.19149   1
  -2 -10   3 60.7317 2.65118   1
  -1  11   3 24.9050 2.99982  -2
  -1 -10   3 24.9050 2.99982   1
   0 -10   3 13.4928 2.01180   1
   1  12   3 94.4153 4.40602  -2
   1 -10   3 94.4153 4.40602   1
   2  12   3 117.960 6.28103  -2
   2 -10   3 117.960 6.28103   1
   3  13   3 142.143 6.64889  -2
   3 -10   3 142.143 6.64889   1
   4  13   3 141.828 7.13327  -2
   4 -10   3 141.828 7.13327   1
   5  14   3 182.677 8.29536  -2
   5 -10   3 182.677 8.29536   1
   6  14   3 32.8867 6.54675  -2
   6 -10   3 32.8867 6.54675   1
   7  15   3 9.78439 10.4077  -2
   7 -10   3 9.78439 10.4077   1
 -10   6   3 124.397 10.7499  -2
 -10  -9   3 124.397 10.7499   1
  -9   6   3 15.5492 9.73718  -2
  -9  -9   3 15.5492 9.73718   1
  -8   7   3 53.4151 9.03941  -2
  -8  -9   3 53.4151 9.03941   1
  -7   7   3 114.760 6.23461  -2
  -7  -9   3 114.760 6.23461   1
  -6   8   3 2.89262 8.43670  -2
  -6  -9   3 2.89262 8.43670   1
  -5   8   3 101.600 5.12313  -2
  -5  -9   3 101.600 5.12313   1
  -4  -9   3 109.127 3.45915   1
  -3   9   3 0.30747 2.51802  -2
  -3  -9   3 0.30747 2.51802   1
  -2  -9   3 20.0834 1.84177   1
  -1  10   3 33.9319 2.64393  -2
  -1  -9   3 33.9319 2.64393   1
   0  -9   3 1.46760 1.61307   1
   1  11   3 5.11987 3.29458  -2
   1  -9   3 5.11987 3.29458   1
   2  11   3 22.3862 4.10263  -2
   2  -9   3 22.3862 4.10263   1
   3  12   3 61.3209 4.51650  -2
   3  -9   3 61.3209 4.51650   1
   4  12   3 30.7466 5.39228  -2
   4  -9   3 30.7466 5.39228   1
   5  13   3 15.4422 6.14943  -2
   5  -9   3 15.4422 6.14943   1
   6  13   3 65.1120 5.99943  -2
   6  -9   3 65.1120 5.99943   1
   7  14   3 74.4023 9.73820  -2
   7  -9   3 74.4023 9.73820   1
   8  14   3 89.5511 6.65508  -2
   8  -9   3 89.5511 6.65508   1
 -11   4   3 96.3934 12.0524  -2
 -11  -8   3 96.3934 12.0524   1
 -10   5   3 240.451 11.8657  -2
 -10  -8   3 240.451 11.8657   1
  -9   5   3 167.153 10.6377  -2
  -9  -8   3 167.153 10.6377   1
  -8   6   3 43.3364 5.88938  -2
  -8  -8   3 43.3364 5.88938   1
  -7   6   3 155.624 6.23489  -2
  -7  -8   3 155.624 6.23489   1
  -6   7   3 147.593 6.21995  -2
  -6  -8   3 147.593 6.21995   1
  -5   7   3 148.777 4.11614  -2
  -5  -8   3 148.777 4.11614   1
  -4  -8   3 32.4252 1.90354   1
  -3   8   3 40.1248 2.51292  -2
  -3  -8   3 40.1248 2.51292   1
  -2  -8   3 24.9362 1.67834   1
  -1   9   3 205.951 3.99294  -2
  -1  -8   3 205.951 3.99294   1
   0  -8   3 18.3893 1.62360   1
   1  10   3 62.7223 3.34931  -2
   1  -8   3 62.7223 3.34931   1
   2  10   3 61.8162 7.16057  -2
   2  -8   3 61.8162 7.16057   1
   3  11   3 3.98715 3.75270  -2
   3  -8   3 3.98715 3.75270   1
   4  11   3 37.3355 3.97517  -2
   4  -8   3 37.3355 3.97517   1
   5  12   3 19.4618 5.34815  -2
   5  -8   3 19.4618 5.34815   1
   6  12   3 65.7972 5.35658  -2
   6  -8   3 65.7972 5.35658   1
   7  -8   3 60.1938 3.73572   1
   8  13   3 58.3572 5.70519  -2
   8  -8   3 58.3572 5.70519   1
   9  -8   3 6.33009 3.38560   1
 -11   3   3 0.88848 10.5433  -2
 -11  -7   3 0.88848 10.5433   1
 -10   4   3 50.1073 8.62124  -2
 -10  -7   3 50.1073 8.62124   1
  -9   4   3 157.054 7.13681  -2
  -9  -7   3 157.054 7.13681   1
  -8   5   3 -3.7752 5.20702  -2
  -8  -7   3 -3.7752 5.20702   1
  -7   5   3 7.71819 4.54142  -2
  -7  -7   3 7.71819 4.54142   1
  -6   6   3 433.284 13.2737  -2
  -6  -7   3 433.284 13.2737   1
  -5   6   3 190.208 4.22601  -2
  -5  -7   3 190.208 4.22601   1
  -4  -7   3 28.4991 1.65345   1
  -3   7   3 206.667 3.86497  -2
  -3  -7   3 206.667 3.86497   1
  -2  -7   3 409.992 6.11743   1
  -1   8   3 708.398 9.69201  -2
  -1  -7   3 708.398 9.69201   1
   0  -7   3 42.3447 1.78648   1
   1   9   3 24.0013 2.62628  -2
   1  -7   3 24.0013 2.62628   1
   2  -7   3 78.2484 2.60976   1
   3  10   3 63.8731 3.47820  -2
   3  -7   3 63.8731 3.47820   1
   4  10   3 216.066 4.98631  -2
   4  -7   3 216.066 4.98631   1
   5  11   3 118.037 7.15384  -2
   5  -7   3 118.037 7.15384   1
   6  11   3 21.2102 4.57054  -2
   6  -7   3 21.2102 4.57054   1
   7  -7   3 -1.2170 2.34896   1
   8  12   3 6.75783 4.72615  -2
   8  -7   3 6.75783 4.72615   1
   9  -7   3 8.72770 3.12353   1
  10  13   3 5.83653 5.27666  -2
  10  -7   3 5.83653 5.27666   1
 -12   2   3 9.67822 9.37604  -2
 -12  -6   3 9.67822 9.37604   1
 -11  -6   3 18.1254 4.92538   1
 -10   3   3 35.2501 7.99539  -2
 -10  -6   3 35.2501 7.99539   1
  -9   3   3 30.5837 5.57401  -2
  -9  -6   3 30.5837 5.57401   1
  -8   4   3 6.18214 3.78005  -2
  -8  -6   3 6.18214 3.78005   1
  -7   4   3 40.4882 3.49353  -2
  -7  -6   3 40.4882 3.49353   1
  -6   5   3 55.4968 6.35744  -2
  -6  -6   3 55.4968 6.35744   1
  -5   5   3 27.1240 2.57080  -2
  -5  -6   3 27.1240 2.57080   1
  -4  -6   3 114.296 2.70910   1
  -3   6   3 560.936 7.81426  -2
  -3  -6   3 560.936 7.81426   1
  -2  -6   3 205.538 3.18620   1
  -1   7   3 112.216 2.21134  -2
  -1  -6   3 112.216 2.21134   1
   0  -6   3 68.3410 1.85960   1
   1   8   3 223.945 4.07635  -2
   1  -6   3 223.945 4.07635   1
   2  -6   3 180.399 3.02424   1
   3   9   3 496.588 7.51233  -2
   3  -6   3 496.588 7.51233   1
   4   9   3 162.286 4.09287  -2
   4  -6   3 162.286 4.09287   1
   5  10   3 52.4937 4.43254  -2
   5  -6   3 52.4937 4.43254   1
   6  10   3 20.3923 3.44506  -2
   6  -6   3 20.3923 3.44506   1
   7  -6   3 20.4361 2.48953   1
   8  11   3 33.6552 4.44510  -2
   8  -6   3 33.6552 4.44510   1
   9  -6   3 11.0280 2.91309   1
  10  12   3 6.71727 4.82396  -2
  10  -6   3 6.71727 4.82396   1
  11  -6   3 5.54555 4.55510   1
 -12   1   3 118.727 10.5590  -2
 -12  -5   3 118.727 10.5590   1
 -11  -5   3 71.0379 4.43453   1
 -10   2   3 124.346 9.02328  -2
 -10  -5   3 124.346 9.02328   1
  -9   2   3 74.6590 4.42583  -2
  -9  -5   3 74.6590 4.42583   1
  -8   3   3 29.7285 1.72084  -2
  -8  -5   3 29.7285 1.72084   1
  -7   3   3 105.387 2.45421  -2
  -7  -5   3 105.387 2.45421   1
  -6   4   3 23.0652 5.00440  -2
  -6  -5   3 23.0652 5.00440   1
  -5   4   3 45.9710 2.48191  -2
  -5  -5   3 45.9710 2.48191   1
  -4  -5   3 39.0338 1.52400   1
  -3   5   3 220.584 2.88906  -2
  -3  -5   3 220.584 2.88906   1
  -2  -5   3 146.703 2.12887   1
  -1   6   3 95.4959 1.69213  -2
  -1  -5   3 95.4959 1.69213   1
   0  -5   3 121.730 1.91674   1
   1   7   3 80.1174 2.08831  -2
   1  -5   3 80.1174 2.08831   1
   2  -5   3 77.5731 1.83515   1
   3   8   3 324.795 4.68111  -2
   3  -5   3 324.795 4.68111   1
   4   8   3 170.950 3.45426  -2
   4  -5   3 170.950 3.45426   1
   5  -5   3 20.2291 1.56487   1
   6   9   3 239.430 4.93267  -2
   6  -5   3 239.430 4.93267   1
   7  -5   3 232.708 4.69717   1
   8  10   3 170.768 5.43665  -2
   8  -5   3 170.768 5.43665   1
   9  -5   3 45.5821 3.24749   1
  10  11   3 75.4701 4.96741  -2
  10  -5   3 75.4701 4.96741   1
  11  -5   3 26.5066 3.61303   1
  12  -5   3 31.9740 5.27101   1
 -12   0   3 225.009 11.9664  -2
 -12  -4   3 225.009 11.9664   1
 -11  -4   3 38.1735 3.43170   1
 -10   1   3 167.197 6.10801  -2
 -10  -4   3 167.197 6.10801   1
  -9   1   3 360.164 6.64743  -2
  -9  -4   3 360.164 6.64743   1
  -8   2   3 12.7166 2.13216  -2
  -8  -4   3 12.7166 2.13216   1
  -7   2   3 54.6032 2.08850  -2
  -7  -4   3 54.6032 2.08850   1
  -6   3   3 206.011 4.86795  -2
  -6  -4   3 206.011 4.86795   1
  -5   3   3 173.664 3.46362  -2
  -5  -4   3 173.664 3.46362   1
  -4  -4   3 1.92378 0.69396   1
  -3   4   3 9.46604 1.10002  -2
  -3  -4   3 9.46604 1.10002   1
  -2  -4   3 56.6514 1.14513   1
  -1   5   3 362.870 3.64027  -2
  -1  -4   3 362.870 3.64027   1
   0  -4   3 62.0753 1.14661   1
   1   6   3 113.222 1.91748  -2
   1  -4   3 113.222 1.91748   1
   2  -4   3 9.37674 0.80419   1
   3   7   3 16.7434 1.87616  -2
   3  -4   3 16.7434 1.87616   1
   4  -4   3 0.69350 0.84134   1
   5  -4   3 140.358 2.38754   1
   6   8   3 487.882 7.41230  -2
   6  -4   3 487.882 7.41230   1
   7  -4   3 182.869 3.96095   1
   8   9   3 255.834 6.24199  -2
   8  -4   3 255.834 6.24199   1
   9  -4   3 11.9932 2.39986   1
  10  10   3 76.8000 4.68477  -2
  10  -4   3 76.8000 4.68477   1
  11  -4   3 92.2761 4.52739   1
  12  11   3 134.184 9.23348  -2
  12  -4   3 134.184 9.23348   1
 -12  -1   3 148.648 6.77447  -2
 -12  -3   3 148.648 6.77447   1
 -11  -3   3 21.9821 3.08980   1
 -10   0   3 74.3347 2.77991  -2
 -10  -3   3 74.3347 2.77991   1
  -9   0   3 483.298 8.35150  -2
  -9  -3   3 483.298 8.35150   1
  -8   1   3 95.7150 2.69858  -2
  -8  -3   3 95.7150 2.69858   1
  -7   1   3 20.5351 1.85313  -2
  -7  -3   3 20.5351 1.85313   1
  -6   2   3 339.241 7.44399  -2
  -6  -3   3 339.241 7.44399   1
  -5   2   3 194.511 2.55211  -2
  -5  -3   3 194.511 2.55211   1
  -4  -3   3 92.3978 1.61451   1
  -3   3   3 679.644 6.38331  -2
  -3  -3   3 679.644 6.38331   1
  -2  -3   3 522.556 4.92701   1
  -1   4   3 663.843 6.67656  -2
  -1  -3   3 663.843 6.67656   1
   0  -3   3 74.3396 1.10412   1
   1   5   3 2.14747 0.93429  -2
   1  -3   3 2.14747 0.93429   1
   2  -3   3 224.062 2.62537   1
   3   6   3 137.323 5.41617  -2
   3  -3   3 137.323 5.41617   1
   4  -3   3 10.4066 0.80402   1
   5  -3   3 6.85713 0.94988   1
   6   7   3 27.3624 2.84298  -2
   6  -3   3 27.3624 2.84298   1
   7  -3   3 0.80929 1.16251   1
   8   8   3 100.460 3.44429  -2
   8  -3   3 100.460 3.44429   1
   9  -3   3 10.8850 2.19433   1
  10   9   3 70.3168 3.04710  -2
  10  -3   3 70.3168 3.04710   1
  11  -3   3 87.6106 3.26093   1
  12  10   3 104.231 8.39930  -2
  12  -3   3 104.231 8.39930   1
  13  10   3 23.9410 10.0322  -2
  13  -3   3 23.9410 10.0322   1
 -12  -2   3 -1.8442 5.30663  -2
 -12  -2   3 -1.8442 5.30663   1
 -11  -2   3 5.73477 1.60882   1
 -10  -1   3 9.15960 2.32207  -2
 -10  -2   3 9.15960 2.32207   1
  -9  -1   3 108.156 4.78970  -2
  -9  -2   3 108.156 4.78970   1
  -8   0   3 18.4914 2.22361  -2
  -8  -2   3 18.4914 2.22361   1
  -7   0   3 3.10408 1.88016  -2
  -7  -2   3 3.10408 1.88016   1
  -6   1   3 211.307 5.16569  -2
  -6  -2   3 211.307 5.16569   1
  -5   1   3 75.3393 1.22435  -2
  -5  -2   3 75.3393 1.22435   1
  -4  -2   3 423.677 4.58319   1
  -3   2   3 1823.30 16.2763  -2
  -3  -2   3 1823.30 16.2763   1
  -2  -2   3 318.974 3.36053   1
  -1   3   3 123.526 1.75988  -2
  -1  -2   3 123.526 1.75988   1
   0  -2   3 440.933 5.07712   1
   1   4   3 762.118 8.62158  -2
   1  -2   3 762.118 8.62158   1
   2  -2   3 8.58912 0.55377   1
   3  -2   3 236.193 3.15715   1
   4  -2   3 130.689 2.53979   1
   5  -2   3 18.5240 1.22212   1
   6   6   3 50.7185 2.72525  -2
   6  -2   3 50.7185 2.72525   1
   7  -2   3 91.3904 2.19766   1
   8   7   3 5.80319 2.25131  -2
   8  -2   3 5.80319 2.25131   1
   9  -2   3 33.1919 1.81179   1
  10   8   3 19.6083 2.50052  -2
  10  -2   3 19.6083 2.50052   1
  11  -2   3 9.77686 1.88106   1
  12   9   3 16.3187 4.48011  -2
  12  -2   3 16.3187 4.48011   1
  13   9   3 7.41594 6.04085  -2
  13  -2   3 7.41594 6.04085   1
 -12  -3   3 135.603 6.56629  -2
 -12  -1   3 135.603 6.56629   1
 -11  -3   3 30.6908 5.48568  -2
 -11  -1   3 30.6908 5.48568   1
 -10  -2   3 3.95536 2.91196  -2
 -10  -1   3 3.95536 2.91196   1
  -9  -2   3 105.116 4.89693  -2
  -9  -1   3 105.116 4.89693   1
  -8  -1   3 3.52392 2.30044  -2
  -8  -1   3 3.52392 2.30044   1
  -7  -1   3 0.04055 1.95947  -2
  -7  -1   3 0.04055 1.95947   1
  -6   0   3 39.5704 2.71704  -2
  -6  -1   3 39.5704 2.71704   1
  -5   0   3 48.0541 1.14428  -2
  -5  -1   3 48.0541 1.14428   1
  -4  -1   3 0.54337 0.58347   1
  -3   1   3 1110.97 10.0434  -2
  -3  -1   3 1110.97 10.0434   1
  -2  -1   3 345.402 4.10141   1
  -1   2   3 47.2391 0.89405  -2
  -1  -1   3 47.2391 0.89405   1
   0  -1   3 349.432 4.87431   1
   1   3   3 650.881 8.44586  -2
   1  -1   3 650.881 8.44586   1
   2  -1   3 170.482 2.03755   1
   3  -1   3 90.1346 1.28667   1
   4  -1   3 40.5645 1.24831   1
   5  -1   3 53.3055 1.25806   1
   6   5   3 174.658 2.70486  -2
   6  -1   3 174.658 2.70486   1
   7  -1   3 147.761 2.36993   1
   8   6   3 224.942 3.74510  -2
   8  -1   3 224.942 3.74510   1
   9  -1   3 14.6837 1.78402   1
  10   7   3 14.5747 2.30750  -2
  10  -1   3 14.5747 2.30750   1
  11  -1   3 53.9499 2.36326   1
  12   8   3 57.2067 3.98040  -2
  12  -1   3 57.2067 3.98040   1
  13   8   3 -4.3247 5.69870  -2
  13  -1   3 -4.3247 5.69870   1
 -12  -4   3 205.977 7.18849  -2
 -12   0   3 205.977 7.18849   1
 -11  -4   3 61.7752 6.05459  -2
 -11   0   3 61.7752 6.05459   1
 -10  -3   3 68.8715 3.40907  -2
 -10   0   3 68.8715 3.40907   1
  -9  -3   3 491.688 11.6148  -2
  -9   0   3 491.688 11.6148   1
  -8  -2   3 11.4286 2.33184  -2
  -8   0   3 11.4286 2.33184   1
  -7  -2   3 0.42349 2.10734  -2
  -7   0   3 0.42349 2.10734   1
  -6  -1   3 38.6528 2.89365  -2
  -6   0   3 38.6528 2.89365   1
  -5  -1   3 45.6414 1.21180  -2
  -5   0   3 45.6414 1.21180   1
  -4   0   3 15.0868 0.46496   1
  -3   0   3 4.60295 0.81167  -2
  -3   0   3 4.60295 0.81167   1
  -2   0   3 47.5302 0.90924   1
  -1   1   3 464.898 4.82929  -2
  -1   0   3 464.898 4.82929   1
   0   0   3 973.357 16.1173   1
   1   0   3 664.229 8.88098   1
   2   0   3 2.05730 0.34449   1
   3   0   3 34.4370 0.79592   1
   4   0   3 18.7800 0.67086   1
   5   0   3 928.856 9.54073   1
   6   4   3 1542.16 20.0709  -2
   6   0   3 1542.16 20.0709   1
   7   0   3 121.357 2.06357   1
   8   5   3 372.292 4.66653  -2
   8   0   3 372.292 4.66653   1
   9   0   3 124.817 2.90780   1
  10   6   3 190.854 4.90864  -2
  10   0   3 190.854 4.90864   1
  11   0   3 71.0209 3.22807   1
  12   7   3 90.7670 5.13960  -2
  12   0   3 90.7670 5.13960   1
  13   7   3 26.4445 5.57997  -2
  13   0   3 26.4445 5.57997   1
  14   8   3 -7.4858 5.74281  -2
  14   0   3 -7.4858 5.74281   1
 -12  -5   3 100.910 3.94759  -2
 -12   1   3 100.910 3.94759   1
 -11   1   3 60.0972 2.56515   1
 -10  -4   3 168.361 4.33192  -2
 -10   1   3 168.361 4.33192   1
  -9  -4   3 384.322 9.81901  -2
  -9   1   3 384.322 9.81901   1
  -8  -3   3 98.8272 2.93794  -2
  -8   1   3 98.8272 2.93794   1
  -7  -3   3 17.9255 2.32503  -2
  -7   1   3 17.9255 2.32503   1
  -6  -2   3 208.035 5.62002  -2
  -6   1   3 208.035 5.62002   1
  -5  -2   3 75.9473 1.47342  -2
  -5   1   3 75.9473 1.47342   1
  -4   1   3 172.833 1.89384   1
  -3  -1   3 1099.88 9.20214  -2
  -3   1   3 1099.88 9.20214   1
  -2   1   3 278.208 2.55464   1
  -1   0   3 454.233 4.74910  -2
  -1   1   3 454.233 4.74910   1
   0   1   3 386.748 4.50511   1
   1   1   3 2.29453 0.35622   1
   2   1   3 32.2604 0.71158   1
   3   1   3 3.80980 0.43442   1
   4   1   3 15.0739 0.62917   1
   5   1   3 106.642 1.66145   1
   6   3   3 166.527 3.10012  -2
   6   1   3 166.527 3.10012   1
   7   1   3 1.61325 0.74070   1
   8   4   3 235.219 3.36469  -2
   8   1   3 235.219 3.36469   1
   9   1   3 116.218 2.66578   1
  10   5   3 147.203 4.24432  -2
  10   1   3 147.203 4.24432   1
  11   1   3 76.7808 3.36386   1
  12   6   3 87.2771 5.09227  -2
  12   1   3 87.2771 5.09227   1
  13   6   3 68.7922 7.89114  -2
  13   1   3 68.7922 7.89114   1
  14   7   3 28.4156 5.79307  -2
  14   1   3 28.4156 5.79307   1
 -12  -6   3 -0.5939 3.56326  -2
 -12   2   3 -0.5939 3.56326   1
 -11   2   3 50.8236 2.50631   1
 -10  -5   3 124.998 4.08704  -2
 -10   2   3 124.998 4.08704   1
  -9  -5   3 71.8060 5.31507  -2
  -9   2   3 71.8060 5.31507   1
  -8  -4   3 11.0075 2.50919  -2
  -8   2   3 11.0075 2.50919   1
  -7  -4   3 54.0538 2.42297  -2
  -7   2   3 54.0538 2.42297   1
  -6   2   3 238.623 3.40058   1
  -5  -3   3 186.448 2.66346  -2
  -5   2   3 186.448 2.66346   1
  -4   2   3 299.581 3.00680   1
  -3  -2   3 1827.39 15.7814  -2
  -3   2   3 1827.39 15.7814   1
  -2   2   3 248.621 2.53807   1
  -1  -1   3 46.0827 0.83392  -2
  -1   2   3 46.0827 0.83392   1
   0   2   3 522.279 5.89328   1
   1   0   3 1549.22 19.7561  -2
   1   2   3 1549.22 19.7561   1
   2   2   3 120.933 1.47697   1
   3   2   3 9.46232 0.43234   1
   4   2   3 4.12610 0.55697   1
   5   2   3 2.33142 0.61781   1
   6   2   3 18.0172 2.53144  -2
   6   2   3 18.0172 2.53144   1
   7   2   3 0.87515 0.68563   1
   8   3   3 117.290 2.35051  -2
   8   2   3 117.290 2.35051   1
   9   2   3 214.745 3.22176   1
  10   4   3 198.834 4.24282  -2
  10   2   3 198.834 4.24282   1
  11   2   3 22.4859 2.24466   1
  12   5   3 22.9388 4.40463  -2
  12   2   3 22.9388 4.40463   1
  13   5   3 71.8492 7.52651  -2
  13   2   3 71.8492 7.52651   1
  14   6   3 104.786 8.70774  -2
  14   2   3 104.786 8.70774   1
 -11   3   3 -0.6578 1.92279   1
 -10  -6   3 35.0202 3.73475  -2
 -10   3   3 35.0202 3.73475   1
  -9  -6   3 27.4984 3.67921  -2
  -9   3   3 27.4984 3.67921   1
  -8  -5   3 32.3622 2.78656  -2
  -8   3   3 32.3622 2.78656   1
  -7  -5   3 103.604 2.91781  -2
  -7   3   3 103.604 2.91781   1
  -6   3   3 79.3944 1.98996   1
  -5  -4   3 174.246 2.70241  -2
  -5   3   3 174.246 2.70241   1
  -4   3   3 -0.8879 0.59901   1
  -3  -3   3 672.034 6.79427  -2
  -3   3   3 672.034 6.79427   1
  -2   3   3 502.171 4.56989   1
  -1  -2   3 125.089 1.30229  -2
  -1   3   3 125.089 1.30229   1
   0   3   3 434.446 3.61083   1
   1  -1   3 643.684 6.44466  -2
   1   3   3 643.684 6.44466   1
   2   3   3 199.583 1.84687   1
   3   3   3 52.1467 1.09855   1
   4   3   3 16.4948 0.73327   1
   5   3   3 290.251 3.71873   1
   6   1   3 164.638 3.19720  -2
   6   3   3 164.638 3.19720   1
   7   3   3 3.81338 0.78406   1
   8   2   3 120.492 2.67480  -2
   8   3   3 120.492 2.67480   1
   9   3   3 20.9420 1.49015   1
  10   3   3 0.22653 2.20267  -2
  10   3   3 0.22653 2.20267   1
  11   3   3 0.14647 1.83306   1
  12   4   3 4.08060 5.09850  -2
  12   3   3 4.08060 5.09850   1
  13   4   3 25.2169 7.19728  -2
  13   3   3 25.2169 7.19728   1
  14   5   3 58.1006 8.13985  -2
  14   3   3 58.1006 8.13985   1
 -11   4   3 31.3626 2.46372   1
 -10  -7   3 48.3048 4.01025  -2
 -10   4   3 48.3048 4.01025   1
  -9  -7   3 142.856 4.66611  -2
  -9   4   3 142.856 4.66611   1
  -8  -6   3 8.35475 3.19079  -2
  -8   4   3 8.35475 3.19079   1
  -7  -6   3 42.7254 2.80638  -2
  -7   4   3 42.7254 2.80638   1
  -6  -5   3 19.4944 3.94454  -2
  -6   4   3 19.4944 3.94454   1
  -5  -5   3 47.8944 1.92263  -2
  -5   4   3 47.8944 1.92263   1
  -4   4   3 98.8038 1.76405   1
  -3  -4   3 10.0262 1.06754  -2
  -3   4   3 10.0262 1.06754   1
  -2   4   3 216.044 2.56846   1
  -1  -3   3 673.968 7.45251  -2
  -1   4   3 673.968 7.45251   1
   0   4   3 255.544 2.79905   1
   1  -2   3 768.269 8.58009  -2
   1   4   3 768.269 8.58009   1
   2   4   3 37.5662 0.98565   1
   3  -1   3 176.733 5.35202  -2
   3   4   3 176.733 5.35202   1
   4   4   3 28.3685 0.95848   1
   5   4   3 772.202 8.81772   1
   6   0   3 1560.57 15.5486  -2
   6   4   3 1560.57 15.5486   1
   7   4   3 22.2726 1.05262   1
   8   1   3 238.499 3.84125  -2
   8   4   3 238.499 3.84125   1
   9   4   3 238.768 4.37654   1
  10   2   3 196.960 4.21471  -2
  10   4   3 196.960 4.21471   1
  11   4   3 18.3983 2.22657   1
  12   3   3 6.54620 5.46403  -2
  12   4   3 6.54620 5.46403   1
  13   3   3 35.8156 7.61185  -2
  13   4   3 35.8156 7.61185   1
  14   4   3 -1.4908 7.33238  -2
  14   4   3 -1.4908 7.33238   1
 -11   5   3 71.5776 3.05832   1
 -10  -8   3 234.631 5.71551  -2
 -10   5   3 234.631 5.71551   1
  -9  -8   3 161.824 5.10477  -2
  -9   5   3 161.824 5.10477   1
  -8  -7   3 -0.8262 3.41296  -2
  -8   5   3 -0.8262 3.41296   1
  -7  -7   3 8.07434 3.14796  -2
  -7   5   3 8.07434 3.14796   1
  -6  -6   3 55.5427 4.57420  -2
  -6   5   3 55.5427 4.57420   1
  -5  -6   3 28.5122 2.12060  -2
  -5   5   3 28.5122 2.12060   1
  -4   5   3 19.1566 0.93490   1
  -3  -5   3 222.435 3.18608  -2
  -3   5   3 222.435 3.18608   1
  -2   5   3 1.87883 0.62098   1
  -1  -4   3 365.350 4.00163  -2
  -1   5   3 365.350 4.00163   1
   0   5   3 13.0314 0.77148   1
   1  -3   3 3.09753 1.22056  -2
   1   5   3 3.09753 1.22056   1
   2  -3   3 346.625 9.17127  -2
   2   5   3 346.625 9.17127   1
   3  -2   3 545.958 13.2052  -2
   3   5   3 545.958 13.2052   1
   4  -2   3 223.821 6.72164  -2
   4   5   3 223.821 6.72164   1
   5   5   3 22.8482 0.92885   1
   6  -1   3 186.992 2.88700  -2
   6   5   3 186.992 2.88700   1
   7   5   3 90.0595 1.90564   1
   8   0   3 375.562 5.24706  -2
   8   5   3 375.562 5.24706   1
   9   5   3 130.809 3.25668   1
  10   1   3 156.730 3.83617  -2
  10   5   3 156.730 3.83617   1
  11   5   3 32.1050 2.63337   1
  12   2   3 17.9230 5.46993  -2
  12   5   3 17.9230 5.46993   1
  13   2   3 90.3288 8.41203  -2
  13   5   3 90.3288 8.41203   1
  14   3   3 71.7078 8.26845  -2
  14   5   3 71.7078 8.26845   1
 -10  -9   3 129.841 5.09710  -2
 -10   6   3 129.841 5.09710   1
  -9  -9   3 37.8549 4.68603  -2
  -9   6   3 37.8549 4.68603   1
  -8  -8   3 40.5964 4.02525  -2
  -8   6   3 40.5964 4.02525   1
  -7  -8   3 160.352 4.55338  -2
  -7   6   3 160.352 4.55338   1
  -6  -7   3 418.564 10.7608  -2
  -6   6   3 418.564 10.7608   1
  -5  -7   3 176.908 3.85525  -2
  -5   6   3 176.908 3.85525   1
  -4   6   3 47.3366 1.43735   1
  -3  -6   3 563.103 6.11090  -2
  -3   6   3 563.103 6.11090   1
  -2   6   3 222.081 2.87259   1
  -1  -5   3 94.6315 2.02092  -2
  -1   6   3 94.6315 2.02092   1
   0   6   3 155.741 2.49305   1
   1  -4   3 114.527 2.23969  -2
   1   6   3 114.527 2.23969   1
   2  -4   3 60.5658 3.13878  -2
   2   6   3 60.5658 3.13878   1
   3  -3   3 126.194 2.42616  -2
   3   6   3 126.194 2.42616   1
   4  -3   3 86.5120 2.94132  -2
   4   6   3 86.5120 2.94132   1
   5  -2   3 18.0685 4.26298  -2
   5   6   3 18.0685 4.26298   1
   6  -2   3 45.7180 1.99488  -2
   6   6   3 45.7180 1.99488   1
   7   6   3 210.951 3.39407   1
   8  -1   3 222.459 4.36587  -2
   8   6   3 222.459 4.36587   1
   9   6   3 82.2790 2.74845   1
  10   0   3 192.356 4.21885  -2
  10   6   3 192.356 4.21885   1
  11   6   3 86.2084 3.61779   1
  12   1   3 87.9115 6.29122  -2
  12   6   3 87.9115 6.29122   1
  13   1   3 59.8755 8.50840  -2
  13   6   3 59.8755 8.50840   1
  14   2   3 124.164 9.25283  -2
  14   6   3 124.164 9.25283   1
 -10 -10   3 34.5415 4.86276  -2
 -10   7   3 34.5415 4.86276   1
  -9 -10   3 -3.0148 5.02157  -2
  -9   7   3 -3.0148 5.02157   1
  -8  -9   3 52.5729 4.37178  -2
  -8   7   3 52.5729 4.37178   1
  -7  -9   3 104.728 4.37571  -2
  -7   7   3 104.728 4.37571   1
  -6  -8   3 148.025 6.66600  -2
  -6   7   3 148.025 6.66600   1
  -5  -8   3 154.859 3.91027  -2
  -5   7   3 154.859 3.91027   1
  -4   7   3 17.8565 1.31355   1
  -3  -7   3 205.806 3.52443  -2
  -3   7   3 205.806 3.52443   1
  -2   7   3 269.369 3.91562   1
  -1  -6   3 115.831 2.38397  -2
  -1   7   3 115.831 2.38397   1
   0   7   3 77.3932 1.82944   1
   1  -5   3 79.2671 2.10109  -2
   1   7   3 79.2671 2.10109   1
   2  -5   3 115.882 4.28093  -2
   2   7   3 115.882 4.28093   1
   3  -4   3 20.8143 1.63289  -2
   3   7   3 20.8143 1.63289   1
   4  -4   3 1.82289 1.83229  -2
   4   7   3 1.82289 1.83229   1
   5  -3   3 29.6385 4.67215  -2
   5   7   3 29.6385 4.67215   1
   6  -3   3 26.2032 2.22771  -2
   6   7   3 26.2032 2.22771   1
   7   7   3 17.7150 1.29003   1
   8  -2   3 5.76849 2.48224  -2
   8   7   3 5.76849 2.48224   1
   9   7   3 -0.6960 1.44561   1
  10  -1   3 20.1373 2.65207  -2
  10   7   3 20.1373 2.65207   1
  11   7   3 68.3101 3.54688   1
  12   0   3 96.3916 6.71787  -2
  12   7   3 96.3916 6.71787   1
  13   0   3 28.4212 8.37628  -2
  13   7   3 28.4212 8.37628   1
  14   1   3 31.9353 8.62782  -2
  14   7   3 31.9353 8.62782   1
  -9 -11   3 -2.8316 7.81283  -2
  -9   8   3 -2.8316 7.81283   1
  -8 -10   3 160.591 6.73505  -2
  -8   8   3 160.591 6.73505   1
  -7 -10   3 105.176 5.73895  -2
  -7   8   3 105.176 5.73895   1
  -6  -9   3 -5.1305 4.62119  -2
  -6   8   3 -5.1305 4.62119   1
  -5  -9   3 110.034 4.66974  -2
  -5   8   3 110.034 4.66974   1
  -4   8   3 98.2244 3.48505   1
  -3  -8   3 42.5946 2.56765  -2
  -3   8   3 42.5946 2.56765   1
  -2   8   3 210.566 3.53935   1
  -1  -7   3 696.133 8.46549  -2
  -1   8   3 696.133 8.46549   1
   0   8   3 85.6034 2.19454   1
   1  -6   3 228.303 3.70235  -2
   1   8   3 228.303 3.70235   1
   2  -6   3 350.392 7.64884  -2
   2   8   3 350.392 7.64884   1
   3  -5   3 313.344 4.52073  -2
   3   8   3 313.344 4.52073   1
   4  -5   3 160.000 3.34330  -2
   4   8   3 160.000 3.34330   1
   5  -4   3 313.660 7.08316  -2
   5   8   3 313.660 7.08316   1
   6  -4   3 503.012 7.68746  -2
   6   8   3 503.012 7.68746   1
   7   8   3 8.60925 1.47977   1
   8  -3   3 97.7688 3.42057  -2
   8   8   3 97.7688 3.42057   1
   9   8   3 79.6624 2.95711   1
  10  -2   3 18.4017 2.79294  -2
  10   8   3 18.4017 2.79294   1
  11   8   3 1.47051 2.64839   1
  12  -1   3 37.7785 6.10610  -2
  12   8   3 37.7785 6.10610   1
  13  -1   3 5.76230 8.96647  -2
  13   8   3 5.76230 8.96647   1
  14   0   3 4.03111 8.13023  -2
  14   8   3 4.03111 8.13023   1
  -8 -11   3 22.0448 6.19287  -2
  -8   9   3 22.0448 6.19287   1
  -7 -11   3 8.08575 5.61686  -2
  -7   9   3 8.08575 5.61686   1
  -6 -10   3 9.00865 5.24970  -2
  -6   9   3 9.00865 5.24970   1
  -5 -10   3 2.57717 4.15490  -2
  -5   9   3 2.57717 4.15490   1
  -4   9   3 42.7508 2.56915   1
  -3  -9   3 -1.4353 2.91311  -2
  -3   9   3 -1.4353 2.91311   1
  -2   9   3 -2.1465 1.36136   1
  -1  -8   3 200.392 4.13186  -2
  -1   9   3 200.392 4.13186   1
   0   9   3 8.04374 1.26383   1
   1  -7   3 24.3748 2.32730  -2
   1   9   3 24.3748 2.32730   1
   2  -7   3 189.934 5.18339  -2
   2   9   3 189.934 5.18339   1
   3  -6   3 472.476 6.36854  -2
   3   9   3 472.476 6.36854   1
   4  -6   3 162.078 4.14651  -2
   4   9   3 162.078 4.14651   1
   5  -5   3 25.0605 3.50429  -2
   5   9   3 25.0605 3.50429   1
   6  -5   3 245.544 5.08313  -2
   6   9   3 245.544 5.08313   1
   7   9   3 302.068 5.38701   1
   8  -4   3 249.948 5.15816  -2
   8   9   3 249.948 5.15816   1
   9   9   3 19.6628 2.03977   1
  10  -3   3 76.3833 3.98736  -2
  10   9   3 76.3833 3.98736   1
  11   9   3 40.3537 3.76771   1
  12  -2   3 18.3719 6.31844  -2
  12   9   3 18.3719 6.31844   1
  13  -2   3 11.1120 9.12113  -2
  13   9   3 11.1120 9.12113   1
  -7 -12   3 43.8129 7.47239  -2
  -7  10   3 43.8129 7.47239   1
  -6 -11   3 82.0507 6.45645  -2
  -6  10   3 82.0507 6.45645   1
  -5 -11   3 33.2689 4.92271  -2
  -5  10   3 33.2689 4.92271   1
  -4  10   3 6.51540 2.11276   1
  -3 -10   3 33.9343 3.49124  -2
  -3  10   3 33.9343 3.49124   1
  -2  10   3 30.7397 2.36640   1
  -1  -9   3 37.1328 3.04688  -2
  -1  10   3 37.1328 3.04688   1
   0  10   3 5.74167 1.56760   1
   1  -8   3 59.6052 3.27990  -2
   1  10   3 59.6052 3.27990   1
   2  -8   3 59.6897 5.85771  -2
   2  10   3 59.6897 5.85771   1
   3  -7   3 64.4045 3.39782  -2
   3  10   3 64.4045 3.39782   1
   4  -7   3 217.002 4.99144  -2
   4  10   3 217.002 4.99144   1
   5  -6   3 47.7060 3.63930  -2
   5  10   3 47.7060 3.63930   1
   6  -6   3 12.7470 3.30860  -2
   6  10   3 12.7470 3.30860   1
   7  10   3 129.092 3.68806   1
   8  -5   3 170.202 4.61987  -2
   8  10   3 170.202 4.61987   1
   9  10   3 23.9235 2.62609   1
  10  -4   3 79.8246 5.58839  -2
  10  10   3 79.8246 5.58839   1
  11  10   3 110.648 5.69924   1
  12  -3   3 102.257 7.69410  -2
  12  10   3 102.257 7.69410   1
  13  -3   3 15.0438 9.94049  -2
  13  10   3 15.0438 9.94049   1
  -6 -12   3 20.5033 7.75249  -2
  -6  11   3 20.5033 7.75249   1
  -5 -12   3 107.053 7.26763  -2
  -5  11   3 107.053 7.26763   1
  -4  11   3 37.3101 3.04915   1
  -3 -11   3 72.3203 4.34745  -2
  -3  11   3 72.3203 4.34745   1
  -2  11   3 88.8570 3.90942   1
  -1 -10   3 29.3422 3.42106  -2
  -1  11   3 29.3422 3.42106   1
   0  11   3 5.92817 2.00299   1
   1  -9   3 -0.3459 3.23854  -2
   1  11   3 -0.3459 3.23854   1
   2  -9   3 18.9113 8.63337  -2
   2  11   3 18.9113 8.63337   1
   3  -8   3 2.63374 3.43757  -2
   3  11   3 2.63374 3.43757   1
   4  -8   3 33.6975 3.81750  -2
   4  11   3 33.6975 3.81750   1
   5  -7   3 121.076 4.59679  -2
   5  11   3 121.076 4.59679   1
   6  -7   3 29.4058 3.73865  -2
   6  11   3 29.4058 3.73865   1
   7  11   3 21.6415 2.19464   1
   8  -6   3 31.0029 5.21803  -2
   8  11   3 31.0029 5.21803   1
   9  11   3 31.7416 3.71020   1
  10  -5   3 76.5188 5.99551  -2
  10  11   3 76.5188 5.99551   1
  11  11   3 64.7974 4.92233   1
  12  -4   3 137.617 8.72015  -2
  12  11   3 137.617 8.72015   1
  -5 -13   3 55.2207 7.44528  -2
  -5  12   3 55.2207 7.44528   1
  -4  12   3 115.744 6.44355   1
  -3 -12   3 60.3494 5.93164  -2
  -3  12   3 60.3494 5.93164   1
  -2  12   3 55.2287 3.39132   1
  -1 -11   3 268.693 6.85019  -2
  -1  12   3 268.693 6.85019   1
   0  12   3 41.0235 2.90761   1
   1 -10   3 90.4897 4.88314  -2
   1  12   3 90.4897 4.88314   1
   2 -10   3 114.662 5.99814  -2
   2  12   3 114.662 5.99814   1
   3  -9   3 51.2545 4.84484  -2
   3  12   3 51.2545 4.84484   1
   4  -9   3 22.7894 4.65918  -2
   4  12   3 22.7894 4.65918   1
   5  -8   3 18.6940 4.93040  -2
   5  12   3 18.6940 4.93040   1
   6  -8   3 61.9192 6.14995  -2
   6  12   3 61.9192 6.14995   1
   7  -7   3 8.48709 6.99581  -2
   7  12   3 8.48709 6.99581   1
   8  -7   3 2.77931 5.71759  -2
   8  12   3 2.77931 5.71759   1
   9  12   3 5.15639 3.26626   1
  10  -6   3 3.89000 5.69134  -2
  10  12   3 3.89000 5.69134   1
  11  -6   3 12.2020 9.98418  -2
  11  12   3 12.2020 9.98418   1
  -4  13   3 30.8577 4.13055   1
  -3 -13   3 22.2883 6.16848  -2
  -3  13   3 22.2883 6.16848   1
  -2  13   3 -0.6236 3.10483   1
  -1 -12   3 53.5184 5.66403  -2
  -1  13   3 53.5184 5.66403   1
   0  13   3 36.3280 3.68140   1
   1 -11   3 100.818 6.72489  -2
   1  13   3 100.818 6.72489   1
   2 -11   3 84.5152 7.41687  -2
   2  13   3 84.5152 7.41687   1
   3 -10   3 150.908 7.69741  -2
   3  13   3 150.908 7.69741   1
   4 -10   3 157.851 7.90529  -2
   4  13   3 157.851 7.90529   1
   5  -9   3 18.7788 6.43061  -2
   5  13   3 18.7788 6.43061   1
   6  -9   3 68.4865 6.93961  -2
   6  13   3 68.4865 6.93961   1
   7  13   3 82.9423 5.13333   1
   8  -8   3 57.0164 6.73969  -2
   8  13   3 57.0164 6.73969   1
   9  13   3 5.69628 3.71299   1
  10  -7   3 -0.0883 6.17440  -2
  10  13   3 -0.0883 6.17440   1
  11  13   3 21.1006 4.56934   1
  -2  14   3 4.72002 3.63273   1
  -1 -13   3 -1.5575 5.46129  -2
  -1  14   3 -1.5575 5.46129   1
   0 -13   3 50.4962 9.17896  -2
   0  14   3 50.4962 9.17896   1
   1 -12   3 99.0837 7.57383  -2
   1  14   3 99.0837 7.57383   1
   2 -12   3 19.9254 8.08526  -2
   2  14   3 19.9254 8.08526   1
   3 -11   3 14.6875 7.16892  -2
   3  14   3 14.6875 7.16892   1
   4 -11   3 140.644 8.58095  -2
   4  14   3 140.644 8.58095   1
   5 -10   3 171.698 9.34105  -2
   5  14   3 171.698 9.34105   1
   6 -10   3 30.7318 7.38240  -2
   6  14   3 30.7318 7.38240   1
   7  14   3 34.7487 4.44071   1
   8  -9   3 99.9362 8.18659  -2
   8  14   3 99.9362 8.18659   1
   9  14   3 34.4750 4.92310   1
   0  15   3 0.90931 3.76174   1
   1 -13   3 4.56274 7.43256  -2
   1  15   3 4.56274 7.43256   1
   2 -13   3 6.49610 9.27413  -2
   2  15   3 6.49610 9.27413   1
   3 -12   3 5.57955 7.98775  -2
   3  15   3 5.57955 7.98775   1
   4 -12   3 46.9358 8.76069  -2
   4  15   3 46.9358 8.76069   1
   5 -11   3 111.496 9.56054  -2
   5  15   3 111.496 9.56054   1
   6 -11   3 27.7622 8.05128  -2
   6  15   3 27.7622 8.05128   1
   7 -10   3 -6.1829 9.98782  -2
   7  15   3 -6.1829 9.98782   1
  -4  13   4 26.5178 9.03203  -2
  -4 -13   4 26.5178 9.03203   1
  -3 -13   4 4.71966 5.25278   1
  -2  14   4 43.2826 8.45015  -2
  -2 -13   4 43.2826 8.45015   1
  -1 -13   4 73.4862 7.09770   1
   0  15   4 128.483 11.6330  -2
   0 -13   4 128.483 11.6330   1
   1  15   4 21.2914 12.8086  -2
   1 -13   4 21.2914 12.8086   1
  -7 -12   4 4.40975 5.15669   1
  -6  11   4 31.4887 10.2498  -2
  -6 -12   4 31.4887 10.2498   1
  -5 -12   4 13.7298 5.05440   1
  -4  12   4 12.9801 7.75491  -2
  -4 -12   4 12.9801 7.75491   1
  -3 -12   4 20.5091 4.91762   1
  -2  13   4 21.2344 7.04244  -2
  -2 -12   4 21.2344 7.04244   1
  -1 -12   4 4.37688 4.48197   1
   0  14   4 41.4924 9.53837  -2
   0 -12   4 41.4924 9.53837   1
   1  14   4 31.3530 11.7896  -2
   1 -12   4 31.3530 11.7896   1
   2  15   4 23.6245 11.5247  -2
   2 -12   4 23.6245 11.5247   1
   3  15   4 108.265 13.4781  -2
   3 -12   4 108.265 13.4781   1
   4 -12   4 62.7639 4.62006   1
  -8   9   4 65.8483 11.2437  -2
  -8 -11   4 65.8483 11.2437   1
  -7  10   4 43.5333 11.2413  -2
  -7 -11   4 43.5333 11.2413   1
  -6  10   4 89.5828 9.73654  -2
  -6 -11   4 89.5828 9.73654   1
  -5 -11   4 36.9389 3.64137   1
  -4  11   4 40.8607 5.13593  -2
  -4 -11   4 40.8607 5.13593   1
  -3 -11   4 0.65075 2.74292   1
  -2  12   4 2.53936 4.31531  -2
  -2 -11   4 2.53936 4.31531   1
  -1 -11   4 4.73210 2.81695   1
   0  13   4 1.57198 5.53545  -2
   0 -11   4 1.57198 5.53545   1
   1  13   4 9.84117 10.3857  -2
   1 -11   4 9.84117 10.3857   1
   2  14   4 37.9373 10.0019  -2
   2 -11   4 37.9373 10.0019   1
   3  14   4 5.86272 10.7577  -2
   3 -11   4 5.86272 10.7577   1
   4  15   4 41.4695 7.91534  -2
   4 -11   4 41.4695 7.91534   1
   5  15   4 9.63450 7.02190  -2
   5 -11   4 9.63450 7.02190   1
   6 -11   4 -1.6626 3.66965   1
  -9   8   4 52.8118 10.9154  -2
  -9 -10   4 52.8118 10.9154   1
  -8   8   4 128.710 10.9087  -2
  -8 -10   4 128.710 10.9087   1
  -7   9   4 201.426 11.8098  -2
  -7 -10   4 201.426 11.8098   1
  -6   9   4 132.526 6.52038  -2
  -6 -10   4 132.526 6.52038   1
  -5 -10   4 51.2479 3.56594   1
  -4  10   4 57.4599 4.50509  -2
  -4 -10   4 57.4599 4.50509   1
  -3 -10   4 59.9223 3.50030   1
  -2  11   4 52.0324 4.23739  -2
  -2 -10   4 52.0324 4.23739   1
  -1 -10   4 31.9259 3.00694   1
   0  12   4 128.874 5.95310  -2
   0 -10   4 128.874 5.95310   1
   1  12   4 26.0642 6.13889  -2
   1 -10   4 26.0642 6.13889   1
   2  13   4 1.62280 5.94247  -2
   2 -10   4 1.62280 5.94247   1
   3  13   4 8.27127 9.44053  -2
   3 -10   4 8.27127 9.44053   1
   4  14   4 -1.0550 6.65974  -2
   4 -10   4 -1.0550 6.65974   1
   5  14   4 30.5919 6.50395  -2
   5 -10   4 30.5919 6.50395   1
   6  15   4 25.9952 7.73742  -2
   6 -10   4 25.9952 7.73742   1
   7  15   4 4.90224 6.50562  -2
   7 -10   4 4.90224 6.50562   1
 -10   6   4 -3.8074 11.0415  -2
 -10  -9   4 -3.8074 11.0415   1
  -9   7   4 40.4284 10.2439  -2
  -9  -9   4 40.4284 10.2439   1
  -8   7   4 58.9377 6.67241  -2
  -8  -9   4 58.9377 6.67241   1
  -7   8   4 27.1825 6.25375  -2
  -7  -9   4 27.1825 6.25375   1
  -6   8   4 5.56962 4.89954  -2
  -6  -9   4 5.56962 4.89954   1
  -5  -9   4 18.5744 2.62803   1
  -4   9   4 149.281 5.13328  -2
  -4  -9   4 149.281 5.13328   1
  -3  -9   4 68.9338 3.37400   1
  -2  10   4 88.5315 4.11519  -2
  -2  -9   4 88.5315 4.11519   1
  -1  -9   4 93.4894 3.83589   1
   0  11   4 263.951 6.95637  -2
   0  -9   4 263.951 6.95637   1
   1  11   4 90.4224 5.89240  -2
   1  -9   4 90.4224 5.89240   1
   2  12   4 20.1013 5.33205  -2
   2  -9   4 20.1013 5.33205   1
   3  12   4 78.6652 4.78240  -2
   3  -9   4 78.6652 4.78240   1
   4  13   4 37.0159 5.98230  -2
   4  -9   4 37.0159 5.98230   1
   5  13   4 0.17005 5.47322  -2
   5  -9   4 0.17005 5.47322   1
   6  14   4 1.70129 9.10695  -2
   6  -9   4 1.70129 9.10695   1
   7  14   4 35.4836 5.86348  -2
   7  -9   4 35.4836 5.86348   1
   8  -9   4 7.04952 3.47965   1
 -10   5   4 2.85853 10.0921  -2
 -10  -8   4 2.85853 10.0921   1
  -9   6   4 21.2094 8.58295  -2
  -9  -8   4 21.2094 8.58295   1
  -8   6   4 8.51162 5.88452  -2
  -8  -8   4 8.51162 5.88452   1
  -7   7   4 15.9270 5.66041  -2
  -7  -8   4 15.9270 5.66041   1
  -6   7   4 2.51109 4.28877  -2
  -6  -8   4 2.51109 4.28877   1
  -5  -8   4 0.90226 2.00290   1
  -4   8   4 102.819 4.29457  -2
  -4  -8   4 102.819 4.29457   1
  -3  -8   4 181.839 5.02662   1
  -2   9   4 270.108 6.18539  -2
  -2  -8   4 270.108 6.18539   1
  -1  -8   4 14.7275 2.11172   1
   0  10   4 87.6389 4.40504  -2
   0  -8   4 87.6389 4.40504   1
   1  10   4 293.944 10.5222  -2
   1  -8   4 293.944 10.5222   1
   2  11   4 216.386 5.16595  -2
   2  -8   4 216.386 5.16595   1
   3  11   4 296.112 6.06493  -2
   3  -8   4 296.112 6.06493   1
   4  12   4 206.696 5.54392  -2
   4  -8   4 206.696 5.54392   1
   5  12   4 122.099 4.73847  -2
   5  -8   4 122.099 4.73847   1
   6  -8   4 62.2857 3.57218   1
   7  13   4 141.586 6.30767  -2
   7  -8   4 141.586 6.30767   1
   8  -8   4 46.4984 3.88664   1
   9  14   4 37.1987 4.80408  -2
   9  -8   4 37.1987 4.80408   1
 -11   4   4 91.0030 10.3839  -2
 -11  -7   4 91.0030 10.3839   1
 -10   4   4 35.4364 9.82829  -2
 -10  -7   4 35.4364 9.82829   1
  -9   5   4 36.3798 6.15417  -2
  -9  -7   4 36.3798 6.15417   1
  -8   5   4 123.847 6.33365  -2
  -8  -7   4 123.847 6.33365   1
  -7   6   4 84.5008 5.67072  -2
  -7  -7   4 84.5008 5.67072   1
  -6   6   4 18.0694 4.06535  -2
  -6  -7   4 18.0694 4.06535   1
  -5  -7   4 -1.0935 1.72078   1
  -4   7   4 4.69450 2.81007  -2
  -4  -7   4 4.69450 2.81007   1
  -3  -7   4 0.31162 1.60646   1
  -2   8   4 33.7462 2.67871  -2
  -2  -7   4 33.7462 2.67871   1
  -1  -7   4 3.07850 1.22635   1
   0   9   4 16.7701 2.58153  -2
   0  -7   4 16.7701 2.58153   1
   1  -7   4 52.8618 2.00048   1
   2  10   4 196.523 4.50407  -2
   2  -7   4 196.523 4.50407   1
   3  10   4 6.12134 3.35609  -2
   3  -7   4 6.12134 3.35609   1
   4  11   4 142.083 4.54134  -2
   4  -7   4 142.083 4.54134   1
   5  11   4 185.202 4.96265  -2
   5  -7   4 185.202 4.96265   1
   6  -7   4 61.7964 2.80683   1
   7  12   4 134.596 5.78072  -2
   7  -7   4 134.596 5.78072   1
   8  -7   4 12.3745 3.10161   1
   9  13   4 67.4045 4.80555  -2
   9  -7   4 67.4045 4.80555   1
  10  -7   4 28.8726 3.97731   1
 -11   3   4 82.6376 9.78220  -2
 -11  -6   4 82.6376 9.78220   1
 -10   3   4 81.3974 9.49533  -2
 -10  -6   4 81.3974 9.49533   1
  -9   4   4 122.893 6.48090  -2
  -9  -6   4 122.893 6.48090   1
  -8   4   4 232.822 7.08747  -2
  -8  -6   4 232.822 7.08747   1
  -7   5   4 249.807 10.1115  -2
  -7  -6   4 249.807 10.1115   1
  -6   5   4 105.359 4.48667  -2
  -6  -6   4 105.359 4.48667   1
  -5  -6   4 24.8166 2.05648   1
  -4   6   4 99.4892 3.56104  -2
  -4  -6   4 99.4892 3.56104   1
  -3  -6   4 109.321 2.71745   1
  -2   7   4 -0.7242 1.55737  -2
  -2  -6   4 -0.7242 1.55737   1
  -1  -6   4 1.13477 1.00342   1
   0   8   4 83.5219 2.64680  -2
   0  -6   4 83.5219 2.64680   1
   1   8   4 11.0837 4.87474  -2
   1  -6   4 11.0837 4.87474   1
   2   9   4 48.2819 2.83938  -2
   2  -6   4 48.2819 2.83938   1
   3   9   4 57.0534 3.09353  -2
   3  -6   4 57.0534 3.09353   1
   4  10   4 17.2342 3.89519  -2
   4  -6   4 17.2342 3.89519   1
   5  10   4 134.706 4.03175  -2
   5  -6   4 134.706 4.03175   1
   6  -6   4 86.1248 2.83777   1
   7  11   4 30.8693 3.63475  -2
   7  -6   4 30.8693 3.63475   1
   8  -6   4 19.5781 2.77914   1
   9  12   4 70.5747 4.43071  -2
   9  -6   4 70.5747 4.43071   1
  10  -6   4 77.1950 4.38747   1
  11  13   4 83.7797 7.08458  -2
  11  -6   4 83.7797 7.08458   1
 -11   2   4 16.9598 8.67826  -2
 -11  -5   4 16.9598 8.67826   1
 -10   2   4 96.5639 6.90354  -2
 -10  -5   4 96.5639 6.90354   1
  -9   3   4 201.270 7.04970  -2
  -9  -5   4 201.270 7.04970   1
  -8   3   4 95.6528 5.35309  -2
  -8  -5   4 95.6528 5.35309   1
  -7   4   4 143.511 7.74962  -2
  -7  -5   4 143.511 7.74962   1
  -6   4   4 153.882 4.88555  -2
  -6  -5   4 153.882 4.88555   1
  -5  -5   4 118.771 3.53426   1
  -4   5   4 319.967 6.40389  -2
  -4  -5   4 319.967 6.40389   1
  -3  -5   4 167.381 2.68829   1
  -2   6   4 213.020 3.05921  -2
  -2  -5   4 213.020 3.05921   1
  -1  -5   4 37.4252 1.02336   1
   0   7   4 259.887 3.30472  -2
   0  -5   4 259.887 3.30472   1
   1  -5   4 99.3975 1.81138   1
   2   8   4 8.20334 2.18314  -2
   2  -5   4 8.20334 2.18314   1
   3   8   4 11.2816 4.69786  -2
   3  -5   4 11.2816 4.69786   1
   4  -5   4 1.40988 1.16828   1
   5   9   4 54.3018 3.10311  -2
   5  -5   4 54.3018 3.10311   1
   6  -5   4 22.3685 1.76949   1
   7  10   4 3.55594 3.00411  -2
   7  -5   4 3.55594 3.00411   1
   8  -5   4 -1.0805 2.16042   1
   9  11   4 15.7709 2.74759  -2
   9  -5   4 15.7709 2.74759   1
  10  -5   4 47.5063 3.61633   1
  11  12   4 131.130 6.95099  -2
  11  -5   4 131.130 6.95099   1
 -12  -4   4 8.21482 5.43255   1
 -11   1   4 1.76284 8.37787  -2
 -11  -4   4 1.76284 8.37787   1
 -10   1   4 11.6938 6.31210  -2
 -10  -4   4 11.6938 6.31210   1
  -9   2   4 117.472 6.10616  -2
  -9  -4   4 117.472 6.10616   1
  -8   2   4 17.0489 4.28967  -2
  -8  -4   4 17.0489 4.28967   1
  -7   3   4 4.89142 5.33548  -2
  -7  -4   4 4.89142 5.33548   1
  -6   3   4 60.2118 3.60952  -2
  -6  -4   4 60.2118 3.60952   1
  -5  -4   4 48.4648 1.72784   1
  -4   4   4 386.504 5.63016  -2
  -4  -4   4 386.504 5.63016   1
  -3  -4   4 301.483 3.50277   1
  -2   5   4 958.275 9.62547  -2
  -2  -4   4 958.275 9.62547   1
  -1  -4   4 220.545 2.63854   1
   0   6   4 106.850 1.81192  -2
   0  -4   4 106.850 1.81192   1
   1   6   4 611.599 14.8232  -2
   1  -4   4 611.599 14.8232   1
   2   7   4 469.267 5.16622  -2
   2  -4   4 469.267 5.16622   1
   3   7   4 260.103 4.60870  -2
   3  -4   4 260.103 4.60870   1
   4  -4   4 64.1392 1.80308   1
   5   8   4 216.403 4.18944  -2
   5  -4   4 216.403 4.18944   1
   6  -4   4 196.934 3.90115   1
   7   9   4 105.264 3.51260  -2
   7  -4   4 105.264 3.51260   1
   8  -4   4 0.72555 1.68220   1
   9  10   4 5.50388 2.30331  -2
   9  -4   4 5.50388 2.30331   1
  10  -4   4 4.58108 2.64067   1
  11  11   4 13.5600 5.59278  -2
  11  -4   4 13.5600 5.59278   1
  12  11   4 -0.7308 9.62494  -2
  12  -4   4 -0.7308 9.62494   1
 -12  -1   4 15.6218 11.0736  -2
 -12  -3   4 15.6218 11.0736   1
 -11   0   4 37.6168 9.07188  -2
 -11  -3   4 37.6168 9.07188   1
 -10   0   4 25.8219 8.34573  -2
 -10  -3   4 25.8219 8.34573   1
  -9   1   4 0.75761 4.98782  -2
  -9  -3   4 0.75761 4.98782   1
  -8   1   4 20.5359 4.44366  -2
  -8  -3   4 20.5359 4.44366   1
  -7  -3   4 2.78603 1.68113   1
  -6   2   4 18.4665 3.06278  -2
  -6  -3   4 18.4665 3.06278   1
  -5  -3   4 101.638 2.38366   1
  -4   3   4 49.6005 1.47400  -2
  -4  -3   4 49.6005 1.47400   1
  -3  -3   4 0.38017 0.56537   1
  -2   4   4 392.893 4.17587  -2
  -2  -3   4 392.893 4.17587   1
  -1  -3   4 149.522 2.14990   1
   0   5   4 98.2622 1.76909  -2
   0  -3   4 98.2622 1.76909   1
   1   5   4 118.473 4.53571  -2
   1  -3   4 118.473 4.53571   1
   2   6   4 630.766 8.65154  -2
   2  -3   4 630.766 8.65154   1
   3   6   4 410.515 10.4407  -2
   3  -3   4 410.515 10.4407   1
   4  -3   4 271.164 3.93143   1
   5   7   4 558.960 8.24125  -2
   5  -3   4 558.960 8.24125   1
   6  -3   4 104.985 3.45226   1
   7   8   4 117.622 4.39822  -2
   7  -3   4 117.622 4.39822   1
   8  -3   4 -0.1718 1.47787   1
   9   9   4 63.9848 3.18239  -2
   9  -3   4 63.9848 3.18239   1
  10  -3   4 68.5035 3.58786   1
  11  10   4 -1.6346 4.94637  -2
  11  -3   4 -1.6346 4.94637   1
  12  10   4 9.90670 9.08526  -2
  12  -3   4 9.90670 9.08526   1
  13  -3   4 -1.6861 4.37738   1
 -12  -2   4 19.5906 10.8040  -2
 -12  -2   4 19.5906 10.8040   1
 -11  -1   4 50.5167 9.15075  -2
 -11  -2   4 50.5167 9.15075   1
 -10  -1   4 216.979 11.2823  -2
 -10  -2   4 216.979 11.2823   1
  -9   0   4 206.007 6.81356  -2
  -9  -2   4 206.007 6.81356   1
  -8   0   4 128.344 5.24370  -2
  -8  -2   4 128.344 5.24370   1
  -7  -2   4 70.5990 2.35697   1
  -6   1   4 64.3564 2.72922  -2
  -6  -2   4 64.3564 2.72922   1
  -5  -2   4 29.5027 1.26405   1
  -4   2   4 62.1559 1.48380  -2
  -4  -2   4 62.1559 1.48380   1
  -3  -2   4 66.7978 1.23049   1
  -2   3   4 28.5469 0.99568  -2
  -2  -2   4 28.5469 0.99568   1
  -1  -2   4 95.3462 1.45735   1
   0   4   4 26.3917 0.92885  -2
   0  -2   4 26.3917 0.92885   1
   1  -2   4 8.40410 0.51765   1
   2   5   4 136.568 2.55056  -2
   2  -2   4 136.568 2.55056   1
   3  -2   4 143.368 1.95490   1
   4  -2   4 68.4439 1.59869   1
   5   6   4 469.719 6.98028  -2
   5  -2   4 469.719 6.98028   1
   6  -2   4 174.594 3.45651   1
   7   7   4 139.588 4.39930  -2
   7  -2   4 139.588 4.39930   1
   8  -2   4 123.542 4.23626   1
   9   8   4 191.322 7.98042  -2
   9  -2   4 191.322 7.98042   1
  10  -2   4 156.566 5.02672   1
  11   9   4 151.926 9.62777  -2
  11  -2   4 151.926 9.62777   1
  12  -2   4 7.60643 3.02646   1
  13  10   4 24.9156 8.59337  -2
  13  -2   4 24.9156 8.59337   1
 -12  -3   4 21.7860 11.4320  -2
 -12  -1   4 21.7860 11.4320   1
 -11  -2   4 54.6528 8.88212  -2
 -11  -1   4 54.6528 8.88212   1
 -10  -2   4 232.614 11.2245  -2
 -10  -1   4 232.614 11.2245   1
  -9  -1   4 367.522 8.82783  -2
  -9  -1   4 367.522 8.82783   1
  -8  -1   4 85.4627 4.77754  -2
  -8  -1   4 85.4627 4.77754   1
  -7  -1   4 12.7583 1.48889   1
  -6   0   4 255.659 4.55176  -2
  -6  -1   4 255.659 4.55176   1
  -5  -1   4 169.635 2.66987   1
  -4   1   4 64.1142 1.47402  -2
  -4  -1   4 64.1142 1.47402   1
  -3  -1   4 0.38316 0.47429   1
  -2   2   4 77.2910 1.34578  -2
  -2  -1   4 77.2910 1.34578   1
  -1  -1   4 11.0906 0.44343   1
   0   3   4 150.023 2.77488  -2
   0  -1   4 150.023 2.77488   1
   1  -1   4 8.45557 0.49523   1
   2   4   4 45.5356 2.16649  -2
   2  -1   4 45.5356 2.16649   1
   3  -1   4 194.564 2.38338   1
   4  -1   4 225.037 2.58926   1
   5  -1   4 118.844 2.20563   1
   6  -1   4 27.2184 1.26756   1
   7   6   4 12.8381 1.67653  -2
   7  -1   4 12.8381 1.67653   1
   8  -1   4 116.270 2.46949   1
   9   7   4 60.9045 2.39525  -2
   9  -1   4 60.9045 2.39525   1
  10  -1   4 43.9743 2.52840   1
  11   8   4 243.404 6.28577  -2
  11  -1   4 243.404 6.28577   1
  12   8   4 188.637 8.16159  -2
  12  -1   4 188.637 8.16159   1
  13   9   4 112.160 5.79803  -2
  13  -1   4 112.160 5.79803   1
 -12   0   4 15.6928 5.50606   1
 -11  -3   4 29.5671 8.83300  -2
 -11   0   4 29.5671 8.83300   1
 -10  -3   4 26.9723 8.66910  -2
 -10   0   4 26.9723 8.66910   1
  -9  -2   4 218.197 6.94434  -2
  -9   0   4 218.197 6.94434   1
  -8  -2   4 131.964 4.13582  -2
  -8   0   4 131.964 4.13582   1
  -7   0   4 41.3764 1.90427   1
  -6  -1   4 254.697 4.53096  -2
  -6   0   4 254.697 4.53096   1
  -5   0   4 210.371 3.10116   1
  -4   0   4 1103.02 10.1291  -2
  -4   0   4 1103.02 10.1291   1
  -3   0   4 423.424 4.44585   1
  -2   1   4 1348.53 14.9826  -2
  -2   0   4 1348.53 14.9826   1
  -1   0   4 518.739 6.04486   1
   0   0   4 20.2620 1.82037   1
   1   0   4 209.474 3.81310   1
   2   3   4 386.581 8.74510  -2
   2   0   4 386.581 8.74510   1
   3   0   4 152.899 1.92196   1
   4   0   4 23.7248 0.72452   1
   5   0   4 0.39656 0.72433   1
   6   0   4 129.151 1.97802   1
   7   5   4 31.8285 1.56771  -2
   7   0   4 31.8285 1.56771   1
   8   0   4 82.9268 1.90742   1
   9   6   4 14.0041 1.36576  -2
   9   0   4 14.0041 1.36576   1
  10   0   4 3.29893 1.61797   1
  11   7   4 132.778 4.80849  -2
  11   0   4 132.778 4.80849   1
  12   7   4 141.024 7.11268  -2
  12   0   4 141.024 7.11268   1
  13   8   4 116.970 7.34769  -2
  13   0   4 116.970 7.34769   1
  14   8   4 74.4427 6.38173  -2
  14   0   4 74.4427 6.38173   1
 -12   1   4 -0.2901 3.34231   1
 -11  -4   4 -4.0443 8.37851  -2
 -11   1   4 -4.0443 8.37851   1
 -10   1   4 4.69855 2.57651   1
  -9  -3   4 4.58054 2.44237  -2
  -9   1   4 4.58054 2.44237   1
  -8  -3   4 27.1603 2.27529  -2
  -8   1   4 27.1603 2.27529   1
  -7  -2   4 101.037 3.38713  -2
  -7   1   4 101.037 3.38713   1
  -6  -2   4 65.3011 2.72116  -2
  -6   1   4 65.3011 2.72116   1
  -5   1   4 153.224 2.90106   1
  -4  -1   4 68.4180 1.55900  -2
  -4   1   4 68.4180 1.55900   1
  -3   1   4 25.1356 0.66773   1
  -2   0   4 1364.05 13.8779  -2
  -2   1   4 1364.05 13.8779   1
  -1   1   4 676.797 6.94078   1
   0   1   4 327.515 4.53528   1
   1   1   4 109.781 3.98182   1
   2   1   4 190.503 2.40060   1
   3   1   4 495.949 5.24794   1
   4   1   4 515.694 5.06659   1
   5   3   4 740.015 15.2063  -2
   5   1   4 740.015 15.2063   1
   6   1   4 0.76223 0.60175   1
   7   4   4 2.23755 1.38888  -2
   7   1   4 2.23755 1.38888   1
   8   1   4 1.81591 0.85467   1
   9   5   4 22.1969 1.53019  -2
   9   1   4 22.1969 1.53019   1
  10   1   4 24.5132 2.02311   1
  11   6   4 3.22237 3.41994  -2
  11   1   4 3.22237 3.41994   1
  12   1   4 25.4708 2.62422   1
  13   7   4 53.3962 5.56018  -2
  13   1   4 53.3962 5.56018   1
  14   7   4 2.11311 7.53783  -2
  14   1   4 2.11311 7.53783   1
 -11  -5   4 8.95214 5.81020  -2
 -11   2   4 8.95214 5.81020   1
 -10  -5   4 79.3436 8.15175  -2
 -10   2   4 79.3436 8.15175   1
  -9  -4   4 113.465 3.35351  -2
  -9   2   4 113.465 3.35351   1
  -8  -4   4 15.2988 2.49695  -2
  -8   2   4 15.2988 2.49695   1
  -7  -3   4 1.41629 2.86417  -2
  -7   2   4 1.41629 2.86417   1
  -6  -3   4 20.4916 1.69967  -2
  -6   2   4 20.4916 1.69967   1
  -5   2   4 31.5154 1.04893   1
  -4  -2   4 60.4387 1.33413  -2
  -4   2   4 60.4387 1.33413   1
  -3   2   4 51.4086 0.98692   1
  -2  -1   4 76.4931 1.15961  -2
  -2   2   4 76.4931 1.15961   1
  -1   2   4 98.7067 1.47968   1
   0   0   4 50.6183 1.14598  -2
   0   2   4 50.6183 1.14598   1
   1   2   4 128.725 1.59952   1
   2   1   4 587.140 13.1735  -2
   2   2   4 587.140 13.1735   1
   3   2   4 443.451 5.15875   1
   4   2   4 208.772 2.51052   1
   5   2   4 404.228 4.81337   1
   6   2   4 141.105 2.06292   1
   7   3   4 132.601 2.27321  -2
   7   2   4 132.601 2.27321   1
   8   2   4 249.697 3.36028   1
   9   4   4 63.9327 1.95669  -2
   9   2   4 63.9327 1.95669   1
  10   2   4 15.4075 1.84554   1
  11   5   4 56.6874 3.85900  -2
  11   2   4 56.6874 3.85900   1
  12   2   4 7.28413 2.18454   1
  13   6   4 6.81587 5.31524  -2
  13   2   4 6.81587 5.31524   1
  14   6   4 18.8047 7.52748  -2
  14   2   4 18.8047 7.52748   1
 -11  -6   4 90.8994 6.78428  -2
 -11   3   4 90.8994 6.78428   1
 -10  -6   4 72.9771 4.24992  -2
 -10   3   4 72.9771 4.24992   1
  -9  -5   4 193.489 4.57610  -2
  -9   3   4 193.489 4.57610   1
  -8  -5   4 99.1612 3.17558  -2
  -8   3   4 99.1612 3.17558   1
  -7  -4   4 9.83721 3.41449  -2
  -7   3   4 9.83721 3.41449   1
  -6  -4   4 56.9693 2.14016  -2
  -6   3   4 56.9693 2.14016   1
  -5   3   4 44.2025 1.30870   1
  -4  -3   4 50.1633 1.04153  -2
  -4   3   4 50.1633 1.04153   1
  -3   3   4 37.0200 1.02546   1
  -2  -2   4 28.0431 0.93057  -2
  -2   3   4 28.0431 0.93057   1
  -1   3   4 14.2882 0.55146   1
   0  -1   4 143.822 2.07694  -2
   0   3   4 143.822 2.07694   1
   1   3   4 125.383 1.74420   1
   2   0   4 367.142 8.61781  -2
   2   3   4 367.142 8.61781   1
   3   3   4 323.314 3.53773   1
   4   3   4 513.046 5.31690   1
   5   1   4 684.910 14.2725  -2
   5   3   4 684.910 14.2725   1
   6   3   4 131.219 2.18343   1
   7   2   4 137.759 2.59486  -2
   7   3   4 137.759 2.59486   1
   8   3   4 434.605 5.60792   1
   9   3   4 178.190 2.86435  -2
   9   3   4 178.190 2.86435   1
  10   3   4 27.0440 2.01297   1
  11   4   4 293.022 6.60959  -2
  11   3   4 293.022 6.60959   1
  12   3   4 150.011 4.91089   1
  13   5   4 112.663 7.19015  -2
  13   3   4 112.663 7.19015   1
  14   5   4 68.4435 8.23847  -2
  14   3   4 68.4435 8.23847   1
 -11  -7   4 97.9395 7.11053  -2
 -11   4   4 97.9395 7.11053   1
 -10  -7   4 40.2407 4.44020  -2
 -10   4   4 40.2407 4.44020   1
  -9  -6   4 111.357 4.12120  -2
  -9   4   4 111.357 4.12120   1
  -8  -6   4 240.492 4.98321  -2
  -8   4   4 240.492 4.98321   1
  -7  -5   4 148.955 5.43761  -2
  -7   4   4 148.955 5.43761   1
  -6  -5   4 152.725 3.05905  -2
  -6   4   4 152.725 3.05905   1
  -5   4   4 80.7400 1.86469   1
  -4  -4   4 391.766 4.83218  -2
  -4   4   4 391.766 4.83218   1
  -3   4   4 138.092 1.61308   1
  -2  -3   4 402.771 3.79673  -2
  -2   4   4 402.771 3.79673   1
  -1   4   4 179.576 2.25787   1
   0  -2   4 28.2410 1.03319  -2
   0   4   4 28.2410 1.03319   1
   1   4   4 24.5363 0.65760   1
   2  -1   4 51.3136 2.13740  -2
   2   4   4 51.3136 2.13740   1
   3  -1   4 304.903 7.95764  -2
   3   4   4 304.903 7.95764   1
   4   4   4 30.1518 0.92498   1
   5   0   4 42.1542 1.96756  -2
   5   4   4 42.1542 1.96756   1
   6   4   4 0.48809 0.70106   1
   7   1   4 5.99794 1.59817  -2
   7   4   4 5.99794 1.59817   1
   8   4   4 95.4580 2.24034   1
   9   2   4 64.2012 2.06489  -2
   9   4   4 64.2012 2.06489   1
  10   4   4 4.44482 1.63213   1
  11   3   4 277.624 6.51751  -2
  11   4   4 277.624 6.51751   1
  12   3   4 350.175 10.3136  -2
  12   4   4 350.175 10.3136   1
  13   4   4 248.504 9.06138  -2
  13   4   4 248.504 9.06138   1
  14   4   4 47.3749 8.10481  -2
  14   4   4 47.3749 8.10481   1
 -10  -8   4 3.75422 4.60047  -2
 -10   5   4 3.75422 4.60047   1
  -9  -7   4 39.4959 3.90545  -2
  -9   5   4 39.4959 3.90545   1
  -8  -7   4 127.416 4.22764  -2
  -8   5   4 127.416 4.22764   1
  -7  -6   4 246.724 7.36336  -2
  -7   5   4 246.724 7.36336   1
  -6  -6   4 102.554 2.86613  -2
  -6   5   4 102.554 2.86613   1
  -5   5   4 87.3713 1.94810   1
  -4  -5   4 311.117 4.16116  -2
  -4   5   4 311.117 4.16116   1
  -3   5   4 225.196 2.85439   1
  -2  -4   4 964.907 9.35596  -2
  -2   5   4 964.907 9.35596   1
  -1   5   4 195.636 2.12138   1
   0  -3   4 94.4786 1.36479  -2
   0   5   4 94.4786 1.36479   1
   1   5   4 23.6104 0.71212   1
   2  -2   4 141.155 2.29755  -2
   2   5   4 141.155 2.29755   1
   3  -2   4 258.357 7.30743  -2
   3   5   4 258.357 7.30743   1
   4   5   4 190.260 2.68906   1
   5  -1   4 297.496 4.05008  -2
   5   5   4 297.496 4.05008   1
   6   5   4 101.613 1.99396   1
   7   0   4 30.0007 1.88616  -2
   7   5   4 30.0007 1.88616   1
   8   5   4 21.3905 1.29748   1
   9   1   4 23.0347 1.57143  -2
   9   5   4 23.0347 1.57143   1
  10   5   4 45.5961 2.47294   1
  11   2   4 47.9807 3.85209  -2
  11   5   4 47.9807 3.85209   1
  12   2   4 43.8958 6.37947  -2
  12   5   4 43.8958 6.37947   1
  13   3   4 122.573 7.50839  -2
  13   5   4 122.573 7.50839   1
  14   3   4 53.9277 7.71516  -2
  14   5   4 53.9277 7.71516   1
 -10  -9   4 1.22084 4.96992  -2
 -10   6   4 1.22084 4.96992   1
  -9  -8   4 18.2722 4.01057  -2
  -9   6   4 18.2722 4.01057   1
  -8  -8   4 2.85278 3.77777  -2
  -8   6   4 2.85278 3.77777   1
  -7  -7   4 67.2305 4.47562  -2
  -7   6   4 67.2305 4.47562   1
  -6  -7   4 20.3464 2.56639  -2
  -6   6   4 20.3464 2.56639   1
  -5   6   4 -0.7567 0.96185   1
  -4  -6   4 98.0037 2.61979  -2
  -4   6   4 98.0037 2.61979   1
  -3   6   4 157.501 2.40069   1
  -2  -5   4 211.968 2.79641  -2
  -2   6   4 211.968 2.79641   1
  -1   6   4 97.7761 1.70858   1
   0  -4   4 110.106 2.16611  -2
   0   6   4 110.106 2.16611   1
   1   6   4 335.846 4.26684   1
   2  -3   4 654.398 7.65474  -2
   2   6   4 654.398 7.65474   1
   3  -3   4 408.785 6.29810  -2
   3   6   4 408.785 6.29810   1
   4  -2   4 166.308 6.07124  -2
   4   6   4 166.308 6.07124   1
   5  -2   4 488.060 6.12445  -2
   5   6   4 488.060 6.12445   1
   6   6   4 91.0002 2.02527   1
   7  -1   4 13.3129 1.84521  -2
   7   6   4 13.3129 1.84521   1
   8   6   4 103.187 2.45006   1
   9   0   4 13.0143 1.57453  -2
   9   6   4 13.0143 1.57453   1
  10   6   4 10.7279 1.86799   1
  11   1   4 1.51304 3.66597  -2
  11   6   4 1.51304 3.66597   1
  12   1   4 36.0654 6.56651  -2
  12   6   4 36.0654 6.56651   1
  13   2   4 14.9144 6.55622  -2
  13   6   4 14.9144 6.55622   1
  14   2   4 18.6710 8.03418  -2
  14   6   4 18.6710 8.03418   1
  -9  -9   4 25.6396 4.56173  -2
  -9   7   4 25.6396 4.56173   1
  -8  -9   4 62.4423 4.50832  -2
  -8   7   4 62.4423 4.50832   1
  -7  -8   4 19.2371 3.89894  -2
  -7   7   4 19.2371 3.89894   1
  -6  -8   4 9.22751 3.10716  -2
  -6   7   4 9.22751 3.10716   1
  -5   7   4 0.99435 1.17458   1
  -4  -7   4 4.25627 1.96795  -2
  -4   7   4 4.25627 1.96795   1
  -3   7   4 53.2888 1.68616   1
  -2  -6   4 1.24580 1.47196  -2
  -2   7   4 1.24580 1.47196   1
  -1   7   4 2.99167 0.91113   1
   0  -5   4 275.330 3.96041  -2
   0   7   4 275.330 3.96041   1
   1   7   4 150.964 2.53628   1
   2  -4   4 471.381 5.93048  -2
   2   7   4 471.381 5.93048   1
   3  -4   4 271.093 4.02277  -2
   3   7   4 271.093 4.02277   1
   4  -3   4 491.935 12.8398  -2
   4   7   4 491.935 12.8398   1
   5  -3   4 564.731 7.03440  -2
   5   7   4 564.731 7.03440   1
   6   7   4 231.907 3.51668   1
   7  -2   4 155.659 3.12836  -2
   7   7   4 155.659 3.12836   1
   8   7   4 168.291 3.15603   1
   9  -1   4 68.6937 2.52987  -2
   9   7   4 68.6937 2.52987   1
  10   7   4 2.49836 1.82330   1
  11   0   4 132.911 5.13632  -2
  11   7   4 132.911 5.13632   1
  12   0   4 161.238 7.98921  -2
  12   7   4 161.238 7.98921   1
  13   1   4 64.1203 7.27385  -2
  13   7   4 64.1203 7.27385   1
  14   1   4 3.36994 8.29582  -2
  14   7   4 3.36994 8.29582   1
  -9 -10   4 44.4456 4.98873  -2
  -9   8   4 44.4456 4.98873   1
  -8 -10   4 114.373 5.16335  -2
  -8   8   4 114.373 5.16335   1
  -7  -9   4 28.1277 4.36555  -2
  -7   8   4 28.1277 4.36555   1
  -6  -9   4 7.16668 3.44456  -2
  -6   8   4 7.16668 3.44456   1
  -5   8   4 1.77870 1.44270   1
  -4  -8   4 109.666 3.88040  -2
  -4   8   4 109.666 3.88040   1
  -3   8   4 92.9715 2.76995   1
  -2  -7   4 36.7715 2.14551  -2
  -2   8   4 36.7715 2.14551   1
  -1   8   4 1.68559 1.00475   1
   0  -6   4 87.9577 2.46123  -2
   0   8   4 87.9577 2.46123   1
   1   8   4 8.11202 1.04492   1
   2  -5   4 9.60359 1.99974  -2
   2   8   4 9.60359 1.99974   1
   3  -5   4 12.9977 2.17684  -2
   3   8   4 12.9977 2.17684   1
   4  -4   4 91.0851 2.74281  -2
   4   8   4 91.0851 2.74281   1
   5  -4   4 225.273 3.85697  -2
   5   8   4 225.273 3.85697   1
   6   8   4 105.100 2.42606   1
   7  -3   4 120.243 2.99300  -2
   7   8   4 120.243 2.99300   1
   8   8   4 36.4633 1.94988   1
   9  -2   4 195.131 4.93131  -2
   9   8   4 195.131 4.93131   1
  10   8   4 108.745 3.98859   1
  11  -1   4 233.443 6.36652  -2
  11   8   4 233.443 6.36652   1
  12  -1   4 168.273 8.69654  -2
  12   8   4 168.273 8.69654   1
  13   0   4 116.967 7.97651  -2
  13   8   4 116.967 7.97651   1
  14   0   4 68.4140 9.20960  -2
  14   8   4 68.4140 9.20960   1
  -8 -11   4 54.1949 6.24363  -2
  -8   9   4 54.1949 6.24363   1
  -7 -10   4 185.284 7.03102  -2
  -7   9   4 185.284 7.03102   1
  -6 -10   4 130.739 5.56068  -2
  -6   9   4 130.739 5.56068   1
  -5   9   4 47.9282 2.75672   1
  -4  -9   4 159.601 4.89881  -2
  -4   9   4 159.601 4.89881   1
  -3   9   4 96.4581 3.45292   1
  -2  -8   4 266.434 4.79225  -2
  -2   9   4 266.434 4.79225   1
  -1   9   4 14.8156 1.48748   1
   0  -7   4 8.88287 2.17267  -2
   0   9   4 8.88287 2.17267   1
   1   9   4 30.9472 1.48132   1
   2  -6   4 43.6988 2.54406  -2
   2   9   4 43.6988 2.54406   1
   3  -6   4 59.8320 2.79025  -2
   3   9   4 59.8320 2.79025   1
   4  -5   4 34.8722 2.43709  -2
   4   9   4 34.8722 2.43709   1
   5  -5   4 47.6978 2.70021  -2
   5   9   4 47.6978 2.70021   1
   6   9   4 90.0328 2.49380   1
   7  -4   4 106.079 3.42223  -2
   7   9   4 106.079 3.42223   1
   8   9   4 1.88655 1.56647   1
   9  -3   4 58.9569 2.96297  -2
   9   9   4 58.9569 2.96297   1
  10   9   4 112.200 4.28003   1
  11  -2   4 165.913 7.22742  -2
  11   9   4 165.913 7.22742   1
  12  -2   4 21.9485 7.36960  -2
  12   9   4 21.9485 7.36960   1
  13  -1   4 115.887 8.54939  -2
  13   9   4 115.887 8.54939   1
  -7 -11   4 47.5739 6.55497  -2
  -7  10   4 47.5739 6.55497   1
  -6 -11   4 101.380 5.75234  -2
  -6  10   4 101.380 5.75234   1
  -5  10   4 30.9605 2.78268   1
  -4 -10   4 63.0205 4.31206  -2
  -4  10   4 63.0205 4.31206   1
  -3  10   4 89.9516 3.65818   1
  -2  -9   4 93.2331 3.80441  -2
  -2  10   4 93.2331 3.80441   1
  -1  10   4 42.0267 2.41554   1
   0  -8   4 90.3878 3.80664  -2
   0  10   4 90.3878 3.80664   1
   1  -8   4 296.886 11.4825  -2
   1  10   4 296.886 11.4825   1
   2  -7   4 194.702 3.98479  -2
   2  10   4 194.702 3.98479   1
   3  -7   4 1.84262 3.02101  -2
   3  10   4 1.84262 3.02101   1
   4  -6   4 11.3906 3.16363  -2
   4  10   4 11.3906 3.16363   1
   5  -6   4 133.056 4.02630  -2
   5  10   4 133.056 4.02630   1
   6  10   4 75.5398 2.79662   1
   7  -5   4 2.32904 3.27312  -2
   7  10   4 2.32904 3.27312   1
   8  10   4 0.11584 1.91710   1
   9  -4   4 6.55391 2.31835  -2
   9  10   4 6.55391 2.31835   1
  10  10   4 31.2442 2.81884   1
  11  -3   4 -2.6818 5.46444  -2
  11  10   4 -2.6818 5.46444   1
  12  -3   4 12.7763 8.31642  -2
  12  10   4 12.7763 8.31642   1
  13  -2   4 21.8146 7.49010  -2
  13  10   4 21.8146 7.49010   1
  -6 -12   4 43.8330 5.94328  -2
  -6  11   4 43.8330 5.94328   1
  -5 -11   4 67.0309 11.7029  -2
  -5  11   4 67.0309 11.7029   1
  -4 -11   4 40.7261 4.44931  -2
  -4  11   4 40.7261 4.44931   1
  -3  11   4 19.0820 2.47842   1
  -2 -10   4 48.0740 3.66190  -2
  -2  11   4 48.0740 3.66190   1
  -1  11   4 93.9949 3.72653   1
   0  -9   4 264.085 6.36750  -2
   0  11   4 264.085 6.36750   1
   1  -9   4 110.217 9.79885  -2
   1  11   4 110.217 9.79885   1
   2  -8   4 207.926 5.63302  -2
   2  11   4 207.926 5.63302   1
   3  -8   4 285.890 6.88904  -2
   3  11   4 285.890 6.88904   1
   4  -7   4 153.685 5.33125  -2
   4  11   4 153.685 5.33125   1
   5  -7   4 189.804 5.57551  -2
   5  11   4 189.804 5.57551   1
   6  11   4 102.738 3.93821   1
   7  -6   4 32.3611 4.02671  -2
   7  11   4 32.3611 4.02671   1
   8  11   4 6.63281 2.22913   1
   9  -5   4 14.7336 2.77084  -2
   9  11   4 14.7336 2.77084   1
  10  11   4 13.5397 3.29393   1
  11  -4   4 23.3920 6.24067  -2
  11  11   4 23.3920 6.24067   1
  12  -4   4 0.13438 8.81348  -2
  12  11   4 0.13438 8.81348   1
  -5 -12   4 12.4723 8.47741  -2
  -5  12   4 12.4723 8.47741   1
  -4 -12   4 4.51103 4.80949  -2
  -4  12   4 4.51103 4.80949   1
  -3  12   4 12.9655 2.62105   1
  -2 -11   4 3.02245 3.73236  -2
  -2  12   4 3.02245 3.73236   1
  -1  12   4 11.3382 2.36524   1
   0 -10   4 154.117 5.56883  -2
   0  12   4 154.117 5.56883   1
   1 -10   4 30.2960 5.24211  -2
   1  12   4 30.2960 5.24211   1
   2  -9   4 20.1057 4.23701  -2
   2  12   4 20.1057 4.23701   1
   3  -9   4 79.5039 4.87012  -2
   3  12   4 79.5039 4.87012   1
   4  -8   4 191.457 6.13911  -2
   4  12   4 191.457 6.13911   1
   5  -8   4 129.539 5.28307  -2
   5  12   4 129.539 5.28307   1
   6  12   4 75.8065 3.51425   1
   7  -7   4 144.708 5.51176  -2
   7  12   4 144.708 5.51176   1
   8  12   4 15.9956 2.80059   1
   9  -6   4 84.8083 4.97214  -2
   9  12   4 84.8083 4.97214   1
  10  12   4 83.9870 5.25691   1
  11  -5   4 123.294 8.00680  -2
  11  12   4 123.294 8.00680   1
  12  12   4 12.3453 4.08826   1
  -4 -13   4 26.6521 6.44791  -2
  -4  13   4 26.6521 6.44791   1
  -3  13   4 10.0469 3.30096   1
  -2 -12   4 20.2962 4.30342  -2
  -2  13   4 20.2962 4.30342   1
  -1  13   4 1.66233 2.46605   1
   0 -11   4 -2.5211 4.67508  -2
   0  13   4 -2.5211 4.67508   1
   1 -11   4 13.2807 5.99467  -2
   1  13   4 13.2807 5.99467   1
   2 -10   4 5.11709 4.86790  -2
   2  13   4 5.11709 4.86790   1
   3 -10   4 7.48215 5.15284  -2
   3  13   4 7.48215 5.15284   1
   4  -9   4 42.4447 5.22631  -2
   4  13   4 42.4447 5.22631   1
   5  -9   4 -0.8311 5.73254  -2
   5  13   4 -0.8311 5.73254   1
   6  -8   4 89.6855 7.73173  -2
   6  13   4 89.6855 7.73173   1
   7  -8   4 147.484 7.50432  -2
   7  13   4 147.484 7.50432   1
   8  13   4 32.7066 4.02443   1
   9  -7   4 68.1510 4.84896  -2
   9  13   4 68.1510 4.84896   1
  10  13   4 56.2898 5.02279   1
  11  -6   4 75.1368 7.76195  -2
  11  13   4 75.1368 7.76195   1
  -2 -13   4 44.4636 5.95608  -2
  -2  14   4 44.4636 5.95608   1
  -1  14   4 39.9303 4.07233   1
   0 -12   4 31.0216 6.54845  -2
   0  14   4 31.0216 6.54845   1
   1 -12   4 20.1325 8.04685  -2
   1  14   4 20.1325 8.04685   1
   2 -11   4 36.3401 6.85925  -2
   2  14   4 36.3401 6.85925   1
   3 -11   4 10.1787 7.16185  -2
   3  14   4 10.1787 7.16185   1
   4 -10   4 2.33528 6.88244  -2
   4  14   4 2.33528 6.88244   1
   5 -10   4 16.1262 6.70794  -2
   5  14   4 16.1262 6.70794   1
   6  -9   4 8.94872 7.93740  -2
   6  14   4 8.94872 7.93740   1
   7  -9   4 39.5605 6.87431  -2
   7  14   4 39.5605 6.87431   1
   8  14   4 26.1572 4.23011   1
   9  -8   4 44.1600 4.72096  -2
   9  14   4 44.1600 4.72096   1
  10  14   4 21.5730 4.66028   1
   0 -13   4 95.6858 8.00777  -2
   0  15   4 95.6858 8.00777   1
   1 -13   4 11.3567 8.89742  -2
   1  15   4 11.3567 8.89742   1
   2 -12   4 7.69473 7.46094  -2
   2  15   4 7.69473 7.46094   1
   3 -12   4 103.137 8.93624  -2
   3  15   4 103.137 8.93624   1
   4 -11   4 42.6079 8.34483  -2
   4  15   4 42.6079 8.34483   1
   5 -11   4 3.43833 7.69370  -2
   5  15   4 3.43833 7.69370   1
   6 -10   4 28.4573 9.20137  -2
   6  15   4 28.4573 9.20137   1
   7 -10   4 2.42995 7.28980  -2
   7  15   4 2.42995 7.28980   1
   8  15   4 1.01740 4.08314   1
  -5  12   5 50.0493 9.31115  -2
  -5 -12   5 50.0493 9.31115   1
  -4 -12   5 10.8363 4.18526   1
  -3  13   5 158.236 6.41659  -2
  -3 -12   5 158.236 6.41659   1
  -2 -12   5 75.7316 4.75927   1
  -1  14   5 2.80935 8.76722  -2
  -1 -12   5 2.80935 8.76722   1
   0  14   5 7.67767 11.6605  -2
   0 -12   5 7.67767 11.6605   1
   1  15   5 4.33645 10.4611  -2
   1 -12   5 4.33645 10.4611   1
   2  15   5 71.1752 12.4896  -2
   2 -12   5 71.1752 12.4896   1
   3 -12   5 14.3649 6.11849   1
  -7  10   5 21.1535 9.52958  -2
  -7 -11   5 21.1535 9.52958   1
  -6 -11   5 13.1985 3.43705   1
  -5  11   5 92.0795 6.15519  -2
  -5 -11   5 92.0795 6.15519   1
  -4 -11   5 34.1674 3.58311   1
  -3  12   5 120.507 5.25193  -2
  -3 -11   5 120.507 5.25193   1
  -2 -11   5 60.4854 3.94437   1
  -1  13   5 63.8894 5.90861  -2
  -1 -11   5 63.8894 5.90861   1
   0  13   5 44.8556 10.0194  -2
   0 -11   5 44.8556 10.0194   1
   1  14   5 52.6857 6.83997  -2
   1 -11   5 52.6857 6.83997   1
   2  14   5 189.060 12.4305  -2
   2 -11   5 189.060 12.4305   1
   3  15   5 29.9166 11.6151  -2
   3 -11   5 29.9166 11.6151   1
   4  15   5 3.60734 10.7256  -2
   4 -11   5 3.60734 10.7256   1
   5 -11   5 1.96858 5.58368   1
  -8   9   5 7.42988 10.5849  -2
  -8 -10   5 7.42988 10.5849   1
  -7   9   5 1.41371 6.10721  -2
  -7 -10   5 1.41371 6.10721   1
  -6 -10   5 3.33631 2.88486   1
  -5  10   5 21.9121 4.98292  -2
  -5 -10   5 21.9121 4.98292   1
  -4 -10   5 12.0095 2.74892   1
  -3  11   5 0.67835 2.98243  -2
  -3 -10   5 0.67835 2.98243   1
  -2 -10   5 2.60607 2.47767   1
  -1  12   5 127.075 5.79303  -2
  -1 -10   5 127.075 5.79303   1
   0 -10   5 58.7233 3.64823   1
   1  13   5 61.2319 6.16172  -2
   1 -10   5 61.2319 6.16172   1
   2  13   5 113.937 7.08900  -2
   2 -10   5 113.937 7.08900   1
   3  14   5 142.980 11.0714  -2
   3 -10   5 142.980 11.0714   1
   4  14   5 34.7692 9.82151  -2
   4 -10   5 34.7692 9.82151   1
   5  15   5 33.2361 11.9977  -2
   5 -10   5 33.2361 11.9977   1
   6  15   5 109.703 11.2759  -2
   6 -10   5 109.703 11.2759   1
   7 -10   5 26.9812 5.24899   1
  -9   7   5 69.4624 10.7781  -2
  -9  -9   5 69.4624 10.7781   1
  -8   8   5 23.3764 7.24722  -2
  -8  -9   5 23.3764 7.24722   1
  -7   8   5 10.6993 5.49059  -2
  -7  -9   5 10.6993 5.49059   1
  -6  -9   5 10.0407 2.64730   1
  -5   9   5 6.45339 4.27066  -2
  -5  -9   5 6.45339 4.27066   1
  -4  -9   5 4.99030 2.30804   1
  -3  10   5 30.5971 3.01786  -2
  -3  -9   5 30.5971 3.01786   1
  -2  -9   5 -0.0337 2.11069   1
  -1  11   5 32.5010 4.20904  -2
  -1  -9   5 32.5010 4.20904   1
   0  -9   5 68.9399 3.43844   1
   1  12   5 63.9738 5.42262  -2
   1  -9   5 63.9738 5.42262   1
   2  12   5 43.2678 5.67628  -2
   2  -9   5 43.2678 5.67628   1
   3  13   5 90.2200 6.61518  -2
   3  -9   5 90.2200 6.61518   1
   4  13   5 113.364 6.79295  -2
   4  -9   5 113.364 6.79295   1
   5  14   5 141.926 11.1165  -2
   5  -9   5 141.926 11.1165   1
   6  14   5 89.8695 9.46717  -2
   6  -9   5 89.8695 9.46717   1
   7  -9   5 46.9471 4.06164   1
   8  15   5 86.5640 6.21321  -2
   8  -9   5 86.5640 6.21321   1
 -10  -8   5 47.0262 5.90852   1
  -9   6   5 238.927 8.77298  -2
  -9  -8   5 238.927 8.77298   1
  -8   7   5 77.7085 6.86074  -2
  -8  -8   5 77.7085 6.86074   1
  -7   7   5 27.7901 5.10180  -2
  -7  -8   5 27.7901 5.10180   1
  -6  -8   5 51.3296 3.11863   1
  -5   8   5 142.648 5.25575  -2
  -5  -8   5 142.648 5.25575   1
  -4  -8   5 24.0844 2.44254   1
  -3   9   5 227.870 5.70564  -2
  -3  -8   5 227.870 5.70564   1
  -2  -8   5 48.3008 2.76043   1
  -1  10   5 -3.5015 3.26681  -2
  -1  -8   5 -3.5015 3.26681   1
   0  -8   5 0.93867 1.92484   1
   1  11   5 23.9528 4.45814  -2
   1  -8   5 23.9528 4.45814   1
   2  11   5 89.0939 5.37047  -2
   2  -8   5 89.0939 5.37047   1
   3  12   5 21.1044 5.29557  -2
   3  -8   5 21.1044 5.29557   1
   4  12   5 66.4757 5.53910  -2
   4  -8   5 66.4757 5.53910   1
   5  13   5 71.0099 9.24243  -2
   5  -8   5 71.0099 9.24243   1
   6  13   5 21.7120 7.55891  -2
   6  -8   5 21.7120 7.55891   1
   7  -8   5 4.80024 2.94452   1
   8  14   5 83.1663 5.68178  -2
   8  -8   5 83.1663 5.68178   1
   9  -8   5 32.7296 4.08119   1
 -10   5   5 31.7100 9.68481  -2
 -10  -7   5 31.7100 9.68481   1
  -9   5   5 142.132 7.25823  -2
  -9  -7   5 142.132 7.25823   1
  -8   6   5 291.529 8.57775  -2
  -8  -7   5 291.529 8.57775   1
  -7   6   5 104.424 5.46642  -2
  -7  -7   5 104.424 5.46642   1
  -6   7   5 114.130 8.37588  -2
  -6  -7   5 114.130 8.37588   1
  -5   7   5 317.440 7.21467  -2
  -5  -7   5 317.440 7.21467   1
  -4  -7   5 148.679 4.44039   1
  -3   8   5 78.1375 3.20914  -2
  -3  -7   5 78.1375 3.20914   1
  -2  -7   5 32.3431 2.20389   1
  -1   9   5 139.143 4.34949  -2
  -1  -7   5 139.143 4.34949   1
   0  -7   5 79.9895 3.39459   1
   1  10   5 53.4169 4.09659  -2
   1  -7   5 53.4169 4.09659   1
   2  10   5 165.251 5.56228  -2
   2  -7   5 165.251 5.56228   1
   3  11   5 77.1820 5.08623  -2
   3  -7   5 77.1820 5.08623   1
   4  11   5 2.88375 4.35608  -2
   4  -7   5 2.88375 4.35608   1
   5  -7   5 3.34294 2.31485   1
   6  12   5 4.40434 4.78525  -2
   6  -7   5 4.40434 4.78525   1
   7  -7   5 3.90933 2.40485   1
   8  13   5 18.6568 4.53119  -2
   8  -7   5 18.6568 4.53119   1
   9  -7   5 12.2589 3.45251   1
  10  14   5 5.36874 6.58904  -2
  10  -7   5 5.36874 6.58904   1
 -11   3   5 6.16098 10.9356  -2
 -11  -6   5 6.16098 10.9356   1
 -10   4   5 4.69656 6.57173  -2
 -10  -6   5 4.69656 6.57173   1
  -9   4   5 7.72474 5.80504  -2
  -9  -6   5 7.72474 5.80504   1
  -8   5   5 83.3881 5.97550  -2
  -8  -6   5 83.3881 5.97550   1
  -7   5   5 135.531 5.49265  -2
  -7  -6   5 135.531 5.49265   1
  -6  -6   5 42.7197 2.63994   1
  -5   6   5 72.0293 3.71676  -2
  -5  -6   5 72.0293 3.71676   1
  -4  -6   5 41.2234 2.33912   1
  -3   7   5 6.72091 2.28748  -2
  -3  -6   5 6.72091 2.28748   1
  -2  -6   5 24.4557 1.81481   1
  -1   8   5 455.361 8.50597  -2
  -1  -6   5 455.361 8.50597   1
   0  -6   5 261.902 5.55124   1
   1   9   5 83.9116 3.84630  -2
   1  -6   5 83.9116 3.84630   1
   2   9   5 46.8683 3.78761  -2
   2  -6   5 46.8683 3.78761   1
   3  10   5 102.640 4.73009  -2
   3  -6   5 102.640 4.73009   1
   4  10   5 68.0534 4.36699  -2
   4  -6   5 68.0534 4.36699   1
   5  -6   5 18.4346 1.78781   1
   6  11   5 110.751 4.00649  -2
   6  -6   5 110.751 4.00649   1
   7  -6   5 19.0036 2.16627   1
   8  12   5 17.3450 4.02087  -2
   8  -6   5 17.3450 4.02087   1
   9  -6   5 -0.4055 2.78077   1
  10  13   5 4.62422 5.60032  -2
  10  -6   5 4.62422 5.60032   1
  11  13   5 19.0989 11.3598  -2
  11  -6   5 19.0989 11.3598   1
 -11   2   5 22.5129 10.7379  -2
 -11  -5   5 22.5129 10.7379   1
 -10   3   5 25.5436 6.40007  -2
 -10  -5   5 25.5436 6.40007   1
  -9   3   5 112.259 6.44721  -2
  -9  -5   5 112.259 6.44721   1
  -8   4   5 14.0307 4.92852  -2
  -8  -5   5 14.0307 4.92852   1
  -7   4   5 30.8386 4.11177  -2
  -7  -5   5 30.8386 4.11177   1
  -6  -5   5 3.24170 1.71646   1
  -5   5   5 -0.1585 2.69714  -2
  -5  -5   5 -0.1585 2.69714   1
  -4  -5   5 2.87168 1.38083   1
  -3   6   5 7.71815 1.96948  -2
  -3  -5   5 7.71815 1.96948   1
  -2  -5   5 129.794 2.72963   1
  -1   7   5 222.920 3.93571  -2
  -1  -5   5 222.920 3.93571   1
   0  -5   5 210.989 3.64509   1
   1   8   5 444.886 8.28936  -2
   1  -5   5 444.886 8.28936   1
   2   8   5 240.604 8.08483  -2
   2  -5   5 240.604 8.08483   1
   3   9   5 317.609 9.69035  -2
   3  -5   5 317.609 9.69035   1
   4   9   5 621.386 8.83686  -2
   4  -5   5 621.386 8.83686   1
   5  -5   5 235.288 4.34366   1
   6  10   5 45.8692 3.19042  -2
   6  -5   5 45.8692 3.19042   1
   7  -5   5 46.5643 2.34093   1
   8  11   5 187.989 4.62238  -2
   8  -5   5 187.989 4.62238   1
   9  -5   5 50.5729 3.46197   1
  10  12   5 26.7675 5.49425  -2
  10  -5   5 26.7675 5.49425   1
  11  -5   5 17.9395 3.62796   1
 -11   1   5 76.0045 10.9401  -2
 -11  -4   5 76.0045 10.9401   1
 -10   2   5 51.1719 6.42962  -2
 -10  -4   5 51.1719 6.42962   1
  -9   2   5 105.142 6.25259  -2
  -9  -4   5 105.142 6.25259   1
  -8   3   5 100.832 5.63266  -2
  -8  -4   5 100.832 5.63266   1
  -7   3   5 62.4811 4.28449  -2
  -7  -4   5 62.4811 4.28449   1
  -6  -4   5 38.3186 2.32317   1
  -5   4   5 155.446 4.25666  -2
  -5  -4   5 155.446 4.25666   1
  -4  -4   5 47.8815 2.11765   1
  -3   5   5 108.878 2.39479  -2
  -3  -4   5 108.878 2.39479   1
  -2  -4   5 0.24486 0.71530   1
  -1   6   5 60.6642 1.73759  -2
  -1  -4   5 60.6642 1.73759   1
   0  -4   5 4.96977 0.64445   1
   1   7   5 510.238 5.49025  -2
   1  -4   5 510.238 5.49025   1
   2   7   5 3.94081 2.13680  -2
   2  -4   5 3.94081 2.13680   1
   3   8   5 37.9440 4.44207  -2
   3  -4   5 37.9440 4.44207   1
   4   8   5 231.975 5.30553  -2
   4  -4   5 231.975 5.30553   1
   5  -4   5 88.0759 2.53123   1
   6   9   5 138.501 4.70159  -2
   6  -4   5 138.501 4.70159   1
   7  -4   5 21.2484 1.80551   1
   8  10   5 219.008 4.67785  -2
   8  -4   5 219.008 4.67785   1
   9  -4   5 104.546 4.06440   1
  10  11   5 59.1265 5.13161  -2
  10  -4   5 59.1265 5.13161   1
  11  -4   5 24.7449 3.39653   1
  12  12   5 43.8678 7.29953  -2
  12  -4   5 43.8678 7.29953   1
 -11   0   5 109.031 11.7096  -2
 -11  -3   5 109.031 11.7096   1
 -10   1   5 116.685 6.77786  -2
 -10  -3   5 116.685 6.77786   1
  -9   1   5 103.162 5.96123  -2
  -9  -3   5 103.162 5.96123   1
  -8   2   5 278.953 7.42665  -2
  -8  -3   5 278.953 7.42665   1
  -7   2   5 368.057 8.01275  -2
  -7  -3   5 368.057 8.01275   1
  -6  -3   5 71.7630 2.95245   1
  -5   3   5 272.099 5.74451  -2
  -5  -3   5 272.099 5.74451   1
  -4  -3   5 128.720 2.66006   1
  -3   4   5 36.6686 1.32536  -2
  -3  -3   5 36.6686 1.32536   1
  -2  -3   5 12.7074 0.77624   1
  -1   5   5 133.102 2.14205  -2
  -1  -3   5 133.102 2.14205   1
   0  -3   5 201.605 2.69446   1
   1   6   5 7.73019 1.31327  -2
   1  -3   5 7.73019 1.31327   1
   2   6   5 6.39540 2.08763  -2
   2  -3   5 6.39540 2.08763   1
   3   7   5 -0.6706 2.44876  -2
   3  -3   5 -0.6706 2.44876   1
   4   7   5 67.6676 3.07277  -2
   4  -3   5 67.6676 3.07277   1
   5  -3   5 9.79252 1.41444   1
   6   8   5 83.8603 3.66403  -2
   6  -3   5 83.8603 3.66403   1
   7  -3   5 97.6673 3.67351   1
   8   9   5 142.570 3.62214  -2
   8  -3   5 142.570 3.62214   1
   9  -3   5 65.7052 2.72129   1
  10  10   5 70.3618 7.36189  -2
  10  -3   5 70.3618 7.36189   1
  11  -3   5 18.2316 3.15203   1
  12  11   5 107.052 7.08273  -2
  12  -3   5 107.052 7.08273   1
 -11  -1   5 21.5547 9.81970  -2
 -11  -2   5 21.5547 9.81970   1
 -10   0   5 34.7648 6.33543  -2
 -10  -2   5 34.7648 6.33543   1
  -9   0   5 10.3245 5.02940  -2
  -9  -2   5 10.3245 5.02940   1
  -8   1   5 230.539 9.73411  -2
  -8  -2   5 230.539 9.73411   1
  -7   1   5 526.212 10.2173  -2
  -7  -2   5 526.212 10.2173   1
  -6  -2   5 184.500 4.56620   1
  -5   2   5 52.3502 2.76400  -2
  -5  -2   5 52.3502 2.76400   1
  -4  -2   5 12.3412 1.03191   1
  -3   3   5 91.0336 1.69479  -2
  -3  -2   5 91.0336 1.69479   1
  -2  -2   5 221.356 2.89816   1
  -1   4   5 793.878 8.99323  -2
  -1  -2   5 793.878 8.99323   1
   0  -2   5 114.495 1.60507   1
   1   5   5 69.6696 1.65057  -2
   1  -2   5 69.6696 1.65057   1
   2   5   5 88.8388 2.44034  -2
   2  -2   5 88.8388 2.44034   1
   3   6   5 122.875 3.22422  -2
   3  -2   5 122.875 3.22422   1
   4   6   5 214.118 3.78480  -2
   4  -2   5 214.118 3.78480   1
   5  -2   5 28.3329 1.10661   1
   6   7   5 1.86264 2.52446  -2
   6  -2   5 1.86264 2.52446   1
   7  -2   5 1.99732 1.53217   1
   8   8   5 12.1100 3.02262  -2
   8  -2   5 12.1100 3.02262   1
   9  -2   5 2.33407 2.17969   1
  10   9   5 94.0103 7.26088  -2
  10  -2   5 94.0103 7.26088   1
  11  -2   5 9.18604 2.65763   1
  12  10   5 85.9753 6.37342  -2
  12  -2   5 85.9753 6.37342   1
  13  10   5 94.4940 8.00130  -2
  13  -2   5 94.4940 8.00130   1
 -11  -2   5 27.6689 10.2619  -2
 -11  -1   5 27.6689 10.2619   1
 -10  -1   5 2.50312 5.80289  -2
 -10  -1   5 2.50312 5.80289   1
  -9  -1   5 -1.1858 5.01234  -2
  -9  -1   5 -1.1858 5.01234   1
  -8   0   5 25.3198 6.38279  -2
  -8  -1   5 25.3198 6.38279   1
  -7   0   5 164.653 5.21639  -2
  -7  -1   5 164.653 5.21639   1
  -6  -1   5 47.8593 2.35391   1
  -5   1   5 48.4908 2.68026  -2
  -5  -1   5 48.4908 2.68026   1
  -4  -1   5 30.2262 0.99747   1
  -3   2   5 11.0409 0.94765  -2
  -3  -1   5 11.0409 0.94765   1
  -2  -1   5 263.560 3.26637   1
  -1   3   5 304.468 4.18812  -2
  -1  -1   5 304.468 4.18812   1
   0  -1   5 298.045 4.29743   1
   1   4   5 1453.64 22.7981  -2
   1  -1   5 1453.64 22.7981   1
   2   4   5 370.571 8.54267  -2
   2  -1   5 370.571 8.54267   1
   3   5   5 267.435 6.90577  -2
   3  -1   5 267.435 6.90577   1
   4   5   5 461.358 11.2658  -2
   4  -1   5 461.358 11.2658   1
   5  -1   5 203.988 2.76564   1
   6   6   5 57.1951 2.46261  -2
   6  -1   5 57.1951 2.46261   1
   7  -1   5 34.7973 1.73341   1
   8   7   5 139.923 3.55317  -2
   8  -1   5 139.923 3.55317   1
   9  -1   5 58.6956 2.51051   1
  10   8   5 0.91733 5.72296  -2
  10  -1   5 0.91733 5.72296   1
  11  -1   5 0.74346 3.92838   1
  12   9   5 14.2834 9.01312  -2
  12  -1   5 14.2834 9.01312   1
  13   9   5 14.7450 11.8854  -2
  13  -1   5 14.7450 11.8854   1
 -11  -3   5 105.656 11.1416  -2
 -11   0   5 105.656 11.1416   1
 -10  -2   5 37.8413 6.22949  -2
 -10   0   5 37.8413 6.22949   1
  -9  -2   5 0.52683 5.28494  -2
  -9   0   5 0.52683 5.28494   1
  -8  -1   5 19.1653 6.17789  -2
  -8   0   5 19.1653 6.17789   1
  -7  -1   5 148.892 4.94872  -2
  -7   0   5 148.892 4.94872   1
  -6   0   5 4.30854 1.48647   1
  -5   0   5 0.30736 2.24641  -2
  -5   0   5 0.30736 2.24641   1
  -4   0   5 2.54377 0.65509   1
  -3   1   5 123.068 1.95722  -2
  -3   0   5 123.068 1.95722   1
  -2   0   5 175.909 2.14872   1
  -1   2   5 532.536 5.54414  -2
  -1   0   5 532.536 5.54414   1
   0   0   5 28.0407 2.23462   1
   1   0   5 765.982 20.1993   1
   2   0   5 202.432 3.06044   1
   3   0   5 45.9197 0.92839   1
   4   0   5 329.595 3.76620   1
   5   0   5 96.0945 1.54511   1
   6   5   5 413.999 5.59547  -2
   6   0   5 413.999 5.59547   1
   7   0   5 61.6911 2.11778   1
   8   6   5 221.130 4.37508  -2
   8   0   5 221.130 4.37508   1
   9   0   5 98.3135 2.39130   1
  10   7   5 58.9486 2.91381  -2
  10   0   5 58.9486 2.91381   1
  11   0   5 16.7497 2.04135   1
  12   8   5 26.6462 4.59580  -2
  12   0   5 26.6462 4.59580   1
  13   8   5 66.8941 6.09193  -2
  13   0   5 66.8941 6.09193   1
  14   9   5 24.1173 7.46864  -2
  14   0   5 24.1173 7.46864   1
 -11  -4   5 68.5196 10.9930  -2
 -11   1   5 68.5196 10.9930   1
 -10  -3   5 114.398 9.30382  -2
 -10   1   5 114.398 9.30382   1
  -9  -3   5 102.320 6.03247  -2
  -9   1   5 102.320 6.03247   1
  -8  -2   5 233.210 9.74127  -2
  -8   1   5 233.210 9.74127   1
  -7  -2   5 518.153 10.1420  -2
  -7   1   5 518.153 10.1420   1
  -6   1   5 116.309 3.59560   1
  -5  -1   5 38.6132 2.57504  -2
  -5   1   5 38.6132 2.57504   1
  -4   1   5 20.4486 0.87480   1
  -3   0   5 123.303 1.59244  -2
  -3   1   5 123.303 1.59244   1
  -2   1   5 61.6941 1.11506   1
  -1   1   5 2.06227 0.75465  -2
  -1   1   5 2.06227 0.75465   1
   0   1   5 4.55309 0.42901   1
   1   1   5 18.0986 1.96638   1
   2   1   5 70.3476 1.35331   1
   3   1   5 40.9812 0.83805   1
   4   1   5 135.788 1.86069   1
   5   1   5 27.7785 0.85373   1
   6   4   5 496.306 6.42054  -2
   6   1   5 496.306 6.42054   1
   7   1   5 318.807 3.84308   1
   8   5   5 115.003 2.33837  -2
   8   1   5 115.003 2.33837   1
   9   1   5 56.2249 1.79969   1
  10   6   5 239.422 4.71411  -2
  10   1   5 239.422 4.71411   1
  11   1   5 68.2659 2.93574   1
  12   7   5 139.430 5.35243  -2
  12   1   5 139.430 5.35243   1
  13   7   5 136.007 6.28977  -2
  13   1   5 136.007 6.28977   1
  14   8   5 38.7962 7.32999  -2
  14   1   5 38.7962 7.32999   1
 -11  -5   5 -1.4981 11.3157  -2
 -11   2   5 -1.4981 11.3157   1
 -10  -4   5 49.4995 9.10002  -2
 -10   2   5 49.4995 9.10002   1
  -9  -4   5 113.534 6.35223  -2
  -9   2   5 113.534 6.35223   1
  -8   2   5 128.170 4.71969   1
  -7  -3   5 383.981 8.26271  -2
  -7   2   5 383.981 8.26271   1
  -6   2   5 147.796 4.17439   1
  -5  -2   5 55.5255 2.28114  -2
  -5   2   5 55.5255 2.28114   1
  -4   2   5 2.22129 0.65356   1
  -3  -1   5 14.3646 0.85249  -2
  -3   2   5 14.3646 0.85249   1
  -2   2   5 215.057 2.60713   1
  -1   0   5 568.886 5.99570  -2
  -1   2   5 568.886 5.99570   1
   0   2   5 6.76751 0.34573   1
   1   1   5 86.8764 1.83675  -2
   1   2   5 86.8764 1.83675   1
   2   2   5 34.9478 0.67609   1
   3   2   5 0.06022 0.38936   1
   4   2   5 0.86994 0.49816   1
   5   2   5 51.4454 1.15706   1
   6   3   5 91.0107 1.70410  -2
   6   2   5 91.0107 1.70410   1
   7   2   5 59.6158 1.41349   1
   8   4   5 37.7336 1.57031  -2
   8   2   5 37.7336 1.57031   1
   9   2   5 17.0332 1.24094   1
  10   5   5 223.375 3.95975  -2
  10   2   5 223.375 3.95975   1
  11   2   5 91.1592 3.50859   1
  12   6   5 137.875 5.32272  -2
  12   2   5 137.875 5.32272   1
  13   6   5 125.795 6.17590  -2
  13   2   5 125.795 6.17590   1
  14   7   5 23.3083 6.98955  -2
  14   2   5 23.3083 6.98955   1
 -11  -6   5 24.0781 11.8967  -2
 -11   3   5 24.0781 11.8967   1
 -10  -5   5 25.4309 9.24615  -2
 -10   3   5 25.4309 9.24615   1
  -9  -5   5 115.110 9.64023  -2
  -9   3   5 115.110 9.64023   1
  -8  -4   5 98.5190 7.99642  -2
  -8   3   5 98.5190 7.99642   1
  -7  -4   5 73.7559 4.56942  -2
  -7   3   5 73.7559 4.56942   1
  -6   3   5 59.4135 2.19627   1
  -5  -3   5 265.159 4.58015  -2
  -5   3   5 265.159 4.58015   1
  -4   3   5 128.111 2.26757   1
  -3  -2   5 87.5017 1.35714  -2
  -3   3   5 87.5017 1.35714   1
  -2   3   5 263.659 3.01131   1
  -1  -1   5 303.311 3.81341  -2
  -1   3   5 303.311 3.81341   1
   0   3   5 327.552 3.91594   1
   1   0   5 1942.59 30.4162  -2
   1   3   5 1942.59 30.4162   1
   2   0   5 354.585 8.40200  -2
   2   3   5 354.585 8.40200   1
   3   3   5 104.984 1.61935   1
   4   3   5 126.006 1.76521   1
   5   3   5 77.7402 1.63503   1
   6   2   5 90.8177 1.89355  -2
   6   3   5 90.8177 1.89355   1
   7   3   5 15.3202 0.95276   1
   8   3   5 4.33016 1.29714  -2
   8   3   5 4.33016 1.29714   1
   9   3   5 1.67267 1.01629   1
  10   4   5 79.9776 2.62989  -2
  10   3   5 79.9776 2.62989   1
  11   3   5 65.3721 2.88101   1
  12   5   5 71.9181 4.66150  -2
  12   3   5 71.9181 4.66150   1
  13   5   5 39.6833 5.60375  -2
  13   3   5 39.6833 5.60375   1
  14   6   5 13.2520 7.16379  -2
  14   3   5 13.2520 7.16379   1
 -10  -6   5 -2.8792 9.58544  -2
 -10   4   5 -2.8792 9.58544   1
  -9  -6   5 11.7254 8.74556  -2
  -9   4   5 11.7254 8.74556   1
  -8  -5   5 14.5886 7.55022  -2
  -8   4   5 14.5886 7.55022   1
  -7  -5   5 32.8564 4.44715  -2
  -7   4   5 32.8564 4.44715   1
  -6   4   5 10.3871 1.57440   1
  -5  -4   5 155.465 3.55904  -2
  -5   4   5 155.465 3.55904   1
  -4   4   5 67.4436 2.16347   1
  -3  -3   5 37.4757 1.46677  -2
  -3   4   5 37.4757 1.46677   1
  -2   4   5 41.7878 1.03007   1
  -1  -2   5 769.564 7.80853  -2
  -1   4   5 769.564 7.80853   1
   0  -2   5 233.750 6.84604  -2
   0   4   5 233.750 6.84604   1
   1  -1   5 1416.39 18.2888  -2
   1   4   5 1416.39 18.2888   1
   2  -1   5 381.130 9.32807  -2
   2   4   5 381.130 9.32807   1
   3   0   5 91.8124 3.70780  -2
   3   4   5 91.8124 3.70780   1
   4   0   5 636.515 15.0088  -2
   4   4   5 636.515 15.0088   1
   5   4   5 56.5608 1.24627   1
   6   1   5 501.336 6.07262  -2
   6   4   5 501.336 6.07262   1
   7   4   5 94.8968 1.96451   1
   8   2   5 33.8675 1.61998  -2
   8   4   5 33.8675 1.61998   1
   9   4   5 19.0674 1.38655   1
  10   3   5 85.5342 2.70944  -2
  10   4   5 85.5342 2.70944   1
  11   4   5 17.2938 2.00259   1
  12   4   5 -5.4344 4.13856  -2
  12   4   5 -5.4344 4.13856   1
  13   4   5 -8.6609 5.25540  -2
  13   4   5 -8.6609 5.25540   1
  14   5   5 -1.8188 6.96075  -2
  14   4   5 -1.8188 6.96075   1
 -10  -7   5 41.8287 10.0941  -2
 -10   5   5 41.8287 10.0941   1
  -9  -7   5 131.555 10.7503  -2
  -9   5   5 131.555 10.7503   1
  -8  -6   5 95.0366 9.24706  -2
  -8   5   5 95.0366 9.24706   1
  -7  -6   5 118.509 3.07948  -2
  -7   5   5 118.509 3.07948   1
  -6   5   5 22.2904 1.15907   1
  -5  -5   5 3.55598 1.61019  -2
  -5   5   5 3.55598 1.61019   1
  -4   5   5 16.8816 1.24067   1
  -3  -4   5 111.011 2.56246  -2
  -3   5   5 111.011 2.56246   1
  -2   5   5 7.87593 0.78688   1
  -1  -3   5 117.446 2.24610  -2
  -1   5   5 117.446 2.24610   1
   0   5   5 203.812 2.33607   1
   1  -2   5 68.9301 1.46584  -2
   1   5   5 68.9301 1.46584   1
   2  -2   5 90.4111 2.92871  -2
   2   5   5 90.4111 2.92871   1
   3  -1   5 272.059 7.45709  -2
   3   5   5 272.059 7.45709   1
   4  -1   5 456.845 8.14677  -2
   4   5   5 456.845 8.14677   1
   5   5   5 66.9188 1.47399   1
   6   0   5 422.689 5.32648  -2
   6   5   5 422.689 5.32648   1
   7   5   5 313.890 4.23808   1
   8   1   5 119.708 2.72493  -2
   8   5   5 119.708 2.72493   1
   9   5   5 21.6254 1.54259   1
  10   2   5 226.348 5.41896  -2
  10   5   5 226.348 5.41896   1
  11   5   5 94.8395 3.63019   1
  12   3   5 70.0079 4.75404  -2
  12   5   5 70.0079 4.75404   1
  13   3   5 32.7227 5.40124  -2
  13   5   5 32.7227 5.40124   1
  14   4   5 -1.3701 7.19019  -2
  14   5   5 -1.3701 7.19019   1
  -9  -8   5 224.182 8.14997  -2
  -9   6   5 224.182 8.14997   1
  -8  -7   5 275.559 7.99181  -2
  -8   6   5 275.559 7.99181   1
  -7  -7   5 98.4497 3.44603  -2
  -7   6   5 98.4497 3.44603   1
  -6   6   5 29.2893 1.36989   1
  -5  -6   5 75.7346 2.32497  -2
  -5   6   5 75.7346 2.32497   1
  -4   6   5 12.8396 1.04621   1
  -3  -5   5 8.21112 1.00220  -2
  -3   6   5 8.21112 1.00220   1
  -2   6   5 66.7969 1.56005   1
  -1  -4   5 62.9557 1.24676  -2
  -1   6   5 62.9557 1.24676   1
   0   6   5 25.5481 0.67056   1
   1  -3   5 7.88564 2.00656  -2
   1   6   5 7.88564 2.00656   1
   2  -3   5 6.79036 2.40369  -2
   2   6   5 6.79036 2.40369   1
   3  -2   5 120.371 2.24194  -2
   3   6   5 120.371 2.24194   1
   4  -2   5 215.356 3.21097  -2
   4   6   5 215.356 3.21097   1
   5   6   5 331.686 4.29069   1
   6  -1   5 57.7017 1.97235  -2
   6   6   5 57.7017 1.97235   1
   7   6   5 24.4156 1.21682   1
   8   0   5 221.950 3.98427  -2
   8   6   5 221.950 3.98427   1
   9   6   5 94.8445 2.77561   1
  10   1   5 258.240 5.92304  -2
  10   6   5 258.240 5.92304   1
  11   6   5 98.1382 3.78185   1
  12   2   5 140.469 5.63179  -2
  12   6   5 140.469 5.63179   1
  13   2   5 123.027 6.40511  -2
  13   6   5 123.027 6.40511   1
  14   3   5 3.00863 7.15443  -2
  14   6   5 3.00863 7.15443   1
  -9  -9   5 83.4015 7.82874  -2
  -9   7   5 83.4015 7.82874   1
  -8  -8   5 79.1141 6.80128  -2
  -8   7   5 79.1141 6.80128   1
  -7  -8   5 31.6146 3.46843  -2
  -7   7   5 31.6146 3.46843   1
  -6   7   5 75.6324 2.29578   1
  -5  -7   5 312.894 5.22094  -2
  -5   7   5 312.894 5.22094   1
  -4   7   5 135.749 2.67157   1
  -3  -6   5 6.07307 1.16505  -2
  -3   7   5 6.07307 1.16505   1
  -2   7   5 31.8115 1.22505   1
  -1  -5   5 209.552 3.16012  -2
  -1   7   5 209.552 3.16012   1
   0   7   5 194.966 2.95638   1
   1  -4   5 522.574 5.57107  -2
   1   7   5 522.574 5.57107   1
   2  -4   5 1.04377 1.90644  -2
   2   7   5 1.04377 1.90644   1
   3  -3   5 2.01597 2.47110  -2
   3   7   5 2.01597 2.47110   1
   4  -3   5 74.4835 2.18760  -2
   4   7   5 74.4835 2.18760   1
   5   7   5 5.37249 0.87253   1
   6  -2   5 4.70921 1.80078  -2
   6   7   5 4.70921 1.80078   1
   7   7   5 9.00536 1.08952   1
   8  -1   5 139.240 3.11453  -2
   8   7   5 139.240 3.11453   1
   9   7   5 98.8355 2.91248   1
  10   0   5 52.1717 3.51986  -2
  10   7   5 52.1717 3.51986   1
  11   7   5 36.2212 2.63960   1
  12   1   5 145.566 5.78622  -2
  12   7   5 145.566 5.78622   1
  13   1   5 144.089 8.36837  -2
  13   7   5 144.089 8.36837   1
  14   2   5 40.8000 7.77297  -2
  14   7   5 40.8000 7.77297   1
  -8  -9   5 12.0456 6.96912  -2
  -8   8   5 12.0456 6.96912   1
  -7  -9   5 9.96147 3.74442  -2
  -7   8   5 9.96147 3.74442   1
  -6   8   5 15.8982 1.79083   1
  -5  -8   5 133.096 3.68710  -2
  -5   8   5 133.096 3.68710   1
  -4   8   5 62.6065 2.03324   1
  -3  -7   5 88.5343 2.29602  -2
  -3   8   5 88.5343 2.29602   1
  -2   8   5 37.1310 1.66032   1
  -1  -6   5 445.555 6.62096  -2
  -1   8   5 445.555 6.62096   1
   0   8   5 214.407 3.72749   1
   1  -5   5 437.147 5.75941  -2
   1   8   5 437.147 5.75941   1
   2  -5   5 212.990 3.69733  -2
   2   8   5 212.990 3.69733   1
   3  -4   5 52.9945 2.37532  -2
   3   8   5 52.9945 2.37532   1
   4  -4   5 218.479 3.61478  -2
   4   8   5 218.479 3.61478   1
   5   8   5 3.49130 0.96385   1
   6  -3   5 84.1732 2.55731  -2
   6   8   5 84.1732 2.55731   1
   7   8   5 19.0645 1.37264   1
   8  -2   5 13.5378 2.01348  -2
   8   8   5 13.5378 2.01348   1
   9   8   5 -0.1482 1.58589   1
  10  -1   5 1.18996 3.25084  -2
  10   8   5 1.18996 3.25084   1
  11  -1   5 1.67135 5.58471  -2
  11   8   5 1.67135 5.58471   1
  12   0   5 26.2595 4.95592  -2
  12   8   5 26.2595 4.95592   1
  13   0   5 58.5576 7.93084  -2
  13   8   5 58.5576 7.93084   1
  14   1   5 59.0586 8.23043  -2
  14   8   5 59.0586 8.23043   1
  -8 -10   5 10.2555 7.63014  -2
  -8   9   5 10.2555 7.63014   1
  -7 -10   5 2.37581 4.85486  -2
  -7   9   5 2.37581 4.85486   1
  -6   9   5 11.3199 2.16514   1
  -5  -9   5 9.40300 3.52175  -2
  -5   9   5 9.40300 3.52175   1
  -4   9   5 15.6059 1.94366   1
  -3  -8   5 222.963 4.39176  -2
  -3   9   5 222.963 4.39176   1
  -2   9   5 46.6956 1.96060   1
  -1  -7   5 142.950 3.51204  -2
  -1   9   5 142.950 3.51204   1
   0   9   5 156.311 3.28157   1
   1  -6   5 70.5768 2.74981  -2
   1   9   5 70.5768 2.74981   1
   2  -6   5 46.7362 2.90076  -2
   2   9   5 46.7362 2.90076   1
   3  -5   5 327.891 5.54032  -2
   3   9   5 327.891 5.54032   1
   4  -5   5 585.681 8.43171  -2
   4   9   5 585.681 8.43171   1
   5  -4   5 303.691 10.3066  -2
   5   9   5 303.691 10.3066   1
   6  -4   5 141.567 3.51569  -2
   6   9   5 141.567 3.51569   1
   7   9   5 90.5063 2.74874   1
   8  -3   5 136.646 4.01278  -2
   8   9   5 136.646 4.01278   1
   9   9   5 29.8143 2.38055   1
  10  -2   5 90.6682 4.38912  -2
  10   9   5 90.6682 4.38912   1
  11  -2   5 42.5060 6.51305  -2
  11   9   5 42.5060 6.51305   1
  12  -1   5 8.73432 5.13583  -2
  12   9   5 8.73432 5.13583   1
  13  -1   5 14.7048 7.69658  -2
  13   9   5 14.7048 7.69658   1
  14   0   5 30.7064 8.57968  -2
  14   9   5 30.7064 8.57968   1
  -7 -11   5 8.56709 5.43668  -2
  -7  10   5 8.56709 5.43668   1
  -6  10   5 1.01957 2.30063   1
  -5 -10   5 7.27375 4.01222  -2
  -5  10   5 7.27375 4.01222   1
  -4  10   5 0.77605 1.92100   1
  -3  -9   5 31.9061 2.40597  -2
  -3  10   5 31.9061 2.40597   1
  -2  10   5 12.0464 1.86681   1
  -1  -8   5 5.88908 2.64332  -2
  -1  10   5 5.88908 2.64332   1
   0  10   5 2.44179 1.37184   1
   1  -7   5 57.7746 3.05780  -2
   1  10   5 57.7746 3.05780   1
   2  -7   5 156.867 4.23723  -2
   2  10   5 156.867 4.23723   1
   3  -6   5 97.6870 3.54346  -2
   3  10   5 97.6870 3.54346   1
   4  -6   5 55.5712 2.94798  -2
   4  10   5 55.5712 2.94798   1
   5  -5   5 358.621 11.8975  -2
   5  10   5 358.621 11.8975   1
   6  -5   5 49.1322 3.40088  -2
   6  10   5 49.1322 3.40088   1
   7  10   5 14.9914 1.94885   1
   8  -4   5 226.585 5.51183  -2
   8  10   5 226.585 5.51183   1
   9  10   5 120.873 4.30882   1
  10  -3   5 56.3934 4.26059  -2
  10  10   5 56.3934 4.26059   1
  11  -3   5 29.9130 6.65549  -2
  11  10   5 29.9130 6.65549   1
  12  -2   5 86.3626 7.04730  -2
  12  10   5 86.3626 7.04730   1
  13  -2   5 119.311 9.26617  -2
  13  10   5 119.311 9.26617   1
  -6  11   5 42.6631 3.15397   1
  -5 -11   5 97.5759 5.18697  -2
  -5  11   5 97.5759 5.18697   1
  -4  11   5 36.9384 2.79632   1
  -3 -10   5 2.41178 2.16823  -2
  -3  11   5 2.41178 2.16823   1
  -2  11   5 2.25022 1.89048   1
  -1  -9   5 30.4508 3.63856  -2
  -1  11   5 30.4508 3.63856   1
   0  -9   5 103.188 5.07768  -2
   0  11   5 103.188 5.07768   1
   1  -8   5 21.1933 3.57804  -2
   1  11   5 21.1933 3.57804   1
   2  -8   5 73.1776 4.40931  -2
   2  11   5 73.1776 4.40931   1
   3  -7   5 71.5589 4.09283  -2
   3  11   5 71.5589 4.09283   1
   4  -7   5 5.03794 3.65923  -2
   4  11   5 5.03794 3.65923   1
   5  -6   5 27.5015 7.96363  -2
   5  11   5 27.5015 7.96363   1
   6  -6   5 111.225 4.42526  -2
   6  11   5 111.225 4.42526   1
   7  11   5 49.5678 2.83871   1
   8  -5   5 202.050 5.38121  -2
   8  11   5 202.050 5.38121   1
   9  11   5 83.8050 3.65154   1
  10  -4   5 57.8476 4.75387  -2
  10  11   5 57.8476 4.75387   1
  11  -4   5 47.3896 7.37162  -2
  11  11   5 47.3896 7.37162   1
  12  -3   5 120.402 7.97308  -2
  12  11   5 120.402 7.97308   1
  13  11   5 97.6431 5.75198   1
  -5 -12   5 48.3365 5.20488  -2
  -5  12   5 48.3365 5.20488   1
  -4  12   5 12.1071 2.62245   1
  -3 -11   5 118.888 4.88858  -2
  -3  12   5 118.888 4.88858   1
  -2  12   5 39.1167 2.80515   1
  -1 -10   5 128.661 5.11059  -2
  -1  12   5 128.661 5.11059   1
   0 -10   5 134.317 5.98761  -2
   0  12   5 134.317 5.98761   1
   1  -9   5 64.6367 4.47503  -2
   1  12   5 64.6367 4.47503   1
   2  -9   5 35.3007 4.58152  -2
   2  12   5 35.3007 4.58152   1
   3  -8   5 19.6368 4.21494  -2
   3  12   5 19.6368 4.21494   1
   4  -8   5 56.1686 4.51198  -2
   4  12   5 56.1686 4.51198   1
   5  -7   5 -2.0327 8.79259  -2
   5  12   5 -2.0327 8.79259   1
   6  -7   5 6.18735 4.01656  -2
   6  12   5 6.18735 4.01656   1
   7  12   5 11.6424 2.38173   1
   8  -6   5 11.1710 2.57532  -2
   8  12   5 11.1710 2.57532   1
   9  12   5 6.47174 2.52592   1
  10  -5   5 25.4028 5.88324  -2
  10  12   5 25.4028 5.88324   1
  11  -5   5 50.8203 8.74659  -2
  11  12   5 50.8203 8.74659   1
  12  -4   5 38.1600 7.69179  -2
  12  12   5 38.1600 7.69179   1
  -4  13   5 9.45353 2.93872   1
  -3 -12   5 167.429 5.85454  -2
  -3  13   5 167.429 5.85454   1
  -2  13   5 67.5171 3.63851   1
  -1 -11   5 66.0324 4.96035  -2
  -1  13   5 66.0324 4.96035   1
   0 -11   5 59.9345 5.98858  -2
   0  13   5 59.9345 5.98858   1
   1 -10   5 73.5606 5.16750  -2
   1  13   5 73.5606 5.16750   1
   2 -10   5 123.710 5.92671  -2
   2  13   5 123.710 5.92671   1
   3  -9   5 87.6528 5.37631  -2
   3  13   5 87.6528 5.37631   1
   4  -9   5 110.577 5.45894  -2
   4  13   5 110.577 5.45894   1
   5  -8   5 84.0464 6.10534  -2
   5  13   5 84.0464 6.10534   1
   6  -8   5 15.3171 4.49112  -2
   6  13   5 15.3171 4.49112   1
   7  13   5 5.83546 2.56067   1
   8  -7   5 23.8488 3.46813  -2
   8  13   5 23.8488 3.46813   1
   9  13   5 7.32911 3.46758   1
  10  -6   5 -2.8549 6.20108  -2
  10  13   5 -2.8549 6.20108   1
  11  -6   5 11.2532 9.39507  -2
  11  13   5 11.2532 9.39507   1
  -2  14   5 25.5426 3.23470   1
  -1 -12   5 5.29559 5.19110  -2
  -1  14   5 5.29559 5.19110   1
   0 -12   5 0.16565 7.66041  -2
   0  14   5 0.16565 7.66041   1
   1 -11   5 59.6034 5.74946  -2
   1  14   5 59.6034 5.74946   1
   2 -11   5 177.332 7.22153  -2
   2  14   5 177.332 7.22153   1
   3 -10   5 149.974 6.57007  -2
   3  14   5 149.974 6.57007   1
   4 -10   5 32.5267 5.50745  -2
   4  14   5 32.5267 5.50745   1
   5  -9   5 137.110 7.12309  -2
   5  14   5 137.110 7.12309   1
   6  -9   5 95.1694 6.88125  -2
   6  14   5 95.1694 6.88125   1
   7  14   5 29.2497 3.97115   1
   8  -8   5 78.5805 5.01443  -2
   8  14   5 78.5805 5.01443   1
   9  14   5 27.2179 4.20215   1
  10  -7   5 10.6400 6.88391  -2
  10  14   5 10.6400 6.88391   1
   0  15   5 -1.8397 3.33894   1
   1 -12   5 12.5534 7.15818  -2
   1  15   5 12.5534 7.15818   1
   2 -12   5 86.4914 8.43509  -2
   2  15   5 86.4914 8.43509   1
   3 -11   5 37.6721 7.62369  -2
   3  15   5 37.6721 7.62369   1
   4 -11   5 -1.8058 7.07713  -2
   4  15   5 -1.8058 7.07713   1
   5 -10   5 24.5379 8.27852  -2
   5  15   5 24.5379 8.27852   1
   6 -10   5 106.279 7.79544  -2
   6  15   5 106.279 7.79544   1
   7  15   5 57.1587 5.00520   1
   8  -9   5 80.9922 5.39583  -2
   8  15   5 80.9922 5.39583   1
  -3 -12   6 12.9344 3.64771   1
  -2  14   6 24.4408 6.32274  -2
  -2 -12   6 24.4408 6.32274   1
  -1  14   6 22.2379 12.2730  -2
  -1 -12   6 22.2379 12.2730   1
   0 -12   6 24.5250 4.19610   1
   1  15   6 70.6803 12.2710  -2
   1 -12   6 70.6803 12.2710   1
  -5 -11   6 -0.9827 3.13306   1
  -4  12   6 29.1283 4.25508  -2
  -4 -11   6 29.1283 4.25508   1
  -3 -11   6 3.19331 3.07593   1
  -2  13   6 33.9283 5.60418  -2
  -2 -11   6 33.9283 5.60418   1
  -1  13   6 16.8852 10.2929  -2
  -1 -11   6 16.8852 10.2929   1
   0  14   6 4.29216 6.36524  -2
   0 -11   6 4.29216 6.36524   1
   1  14   6 -2.8530 7.29887  -2
   1 -11   6 -2.8530 7.29887   1
   2  15   6 12.8488 10.8345  -2
   2 -11   6 12.8488 10.8345   1
   3  15   6 11.1052 10.5959  -2
   3 -11   6 11.1052 10.5959   1
   4 -11   6 13.7335 5.74426   1
  -7 -10   6 63.0707 4.19390   1
  -6  10   6 57.7400 5.97059  -2
  -6 -10   6 57.7400 5.97059   1
  -5 -10   6 25.9888 3.30239   1
  -4  11   6 82.1572 4.20848  -2
  -4 -10   6 82.1572 4.20848   1
  -3 -10   6 17.6761 2.94686   1
  -2  12   6 24.8787 4.57880  -2
  -2 -10   6 24.8787 4.57880   1
  -1 -10   6 5.60812 2.66277   1
   0  13   6 46.5337 5.88816  -2
   0 -10   6 46.5337 5.88816   1
   1  13   6 16.3157 6.23672  -2
   1 -10   6 16.3157 6.23672   1
   2  14   6 22.2954 6.80401  -2
   2 -10   6 22.2954 6.80401   1
   3  14   6 18.9208 6.76531  -2
   3 -10   6 18.9208 6.76531   1
   4  15   6 8.49155 11.0968  -2
   4 -10   6 8.49155 11.0968   1
   5  15   6 2.50127 9.76157  -2
   5 -10   6 2.50127 9.76157   1
   6 -10   6 19.1395 5.85299   1
  -8   8   6 3.02800 6.45002  -2
  -8  -9   6 3.02800 6.45002   1
  -7   9   6 65.3812 10.5696  -2
  -7  -9   6 65.3812 10.5696   1
  -6   9   6 171.431 6.54839  -2
  -6  -9   6 171.431 6.54839   1
  -5  -9   6 64.4826 3.67513   1
  -4  10   6 48.4682 3.26922  -2
  -4  -9   6 48.4682 3.26922   1
  -3  -9   6 39.2342 3.03261   1
  -2  11   6 130.498 5.33040  -2
  -2  -9   6 130.498 5.33040   1
  -1  11   6 129.620 8.76782  -2
  -1  -9   6 129.620 8.76782   1
   0  12   6 66.4817 5.24453  -2
   0  -9   6 66.4817 5.24453   1
   1  12   6 160.371 6.78748  -2
   1  -9   6 160.371 6.78748   1
   2  13   6 63.4093 6.23850  -2
   2  -9   6 63.4093 6.23850   1
   3  13   6 42.1877 5.92433  -2
   3  -9   6 42.1877 5.92433   1
   4  14   6 10.3351 6.93357  -2
   4  -9   6 10.3351 6.93357   1
   5  14   6 33.6865 6.19139  -2
   5  -9   6 33.6865 6.19139   1
   6  -9   6 -2.2193 4.59523   1
   7  15   6 40.2578 8.06454  -2
   7  -9   6 40.2578 8.06454   1
  -9  -8   6 8.41639 3.24241   1
  -8   7   6 3.41372 5.75999  -2
  -8  -8   6 3.41372 5.75999   1
  -7   8   6 7.98519 9.03791  -2
  -7  -8   6 7.98519 9.03791   1
  -6   8   6 108.398 5.42551  -2
  -6  -8   6 108.398 5.42551   1
  -5  -8   6 38.6764 2.92893   1
  -4   9   6 51.3212 3.03759  -2
  -4  -8   6 51.3212 3.03759   1
  -3  -8   6 52.0401 2.99462   1
  -2  10   6 237.528 6.18087  -2
  -2  -8   6 237.528 6.18087   1
  -1  -8   6 133.450 4.46522   1
   0  11   6 110.773 5.01689  -2
   0  -8   6 110.773 5.01689   1
   1  11   6 96.4386 5.42600  -2
   1  -8   6 96.4386 5.42600   1
   2  12   6 160.799 6.36708  -2
   2  -8   6 160.799 6.36708   1
   3  12   6 165.411 6.47048  -2
   3  -8   6 165.411 6.47048   1
   4  13   6 79.1856 6.45340  -2
   4  -8   6 79.1856 6.45340   1
   5  13   6 45.7222 5.45884  -2
   5  -8   6 45.7222 5.45884   1
   6  -8   6 21.3551 3.25157   1
   7  14   6 7.09037 7.05323  -2
   7  -8   6 7.09037 7.05323   1
   8  -8   6 5.32657 5.05989   1
  -9   6   6 0.84531 6.75851  -2
  -9  -7   6 0.84531 6.75851   1
  -8   6   6 5.69813 5.50957  -2
  -8  -7   6 5.69813 5.50957   1
  -7  -7   6 24.6191 2.75921   1
  -6   7   6 10.6223 3.86668  -2
  -6  -7   6 10.6223 3.86668   1
  -5  -7   6 5.98934 2.04945   1
  -4   8   6 3.17251 1.84981  -2
  -4  -7   6 3.17251 1.84981   1
  -3  -7   6 6.10045 1.84133   1
  -2   9   6 131.711 4.40249  -2
  -2  -7   6 131.711 4.40249   1
  -1  -7   6 43.8883 2.52791   1
   0  10   6 30.8133 3.63743  -2
   0  -7   6 30.8133 3.63743   1
   1  10   6 15.8587 4.15053  -2
   1  -7   6 15.8587 4.15053   1
   2  11   6 78.8799 4.92790  -2
   2  -7   6 78.8799 4.92790   1
   3  11   6 210.383 6.19972  -2
   3  -7   6 210.383 6.19972   1
   4  12   6 205.161 9.66073  -2
   4  -7   6 205.161 9.66073   1
   5  12   6 174.055 6.17877  -2
   5  -7   6 174.055 6.17877   1
   6  -7   6 44.7315 3.34454   1
   7  13   6 95.7240 5.57105  -2
   7  -7   6 95.7240 5.57105   1
   8  -7   6 16.6035 4.80874   1
   9  14   6 75.5030 9.12537  -2
   9  -7   6 75.5030 9.12537   1
 -10   4   6 141.196 8.06845  -2
 -10  -6   6 141.196 8.06845   1
  -9   5   6 45.0757 6.72436  -2
  -9  -6   6 45.0757 6.72436   1
  -8   5   6 1.28069 5.06844  -2
  -8  -6   6 1.28069 5.06844   1
  -7  -6   6 53.4805 3.15010   1
  -6   6   6 167.604 5.31343  -2
  -6  -6   6 167.604 5.31343   1
  -5  -6   6 22.5157 2.20106   1
  -4   7   6 2.07724 1.57647  -2
  -4  -6   6 2.07724 1.57647   1
  -3  -6   6 1.29723 1.53508   1
  -2   8   6 12.8216 2.67443  -2
  -2  -6   6 12.8216 2.67443   1
  -1  -6   6 0.14192 1.36660   1
   0   9   6 0.20393 2.90523  -2
   0  -6   6 0.20393 2.90523   1
   1   9   6 30.4962 3.65614  -2
   1  -6   6 30.4962 3.65614   1
   2  10   6 140.417 4.92116  -2
   2  -6   6 140.417 4.92116   1
   3  10   6 31.1268 3.92334  -2
   3  -6   6 31.1268 3.92334   1
   4  -6   6 4.34153 1.83779   1
   5  11   6 6.33917 4.03239  -2
   5  -6   6 6.33917 4.03239   1
   6  -6   6 107.375 4.54189   1
   7  12   6 272.521 7.27719  -2
   7  -6   6 272.521 7.27719   1
   8  -6   6 60.6185 3.87907   1
   9  13   6 67.1350 8.35689  -2
   9  -6   6 67.1350 8.35689   1
  10  -6   6 39.7520 3.98267   1
 -10   3   6 11.3399 7.17625  -2
 -10  -5   6 11.3399 7.17625   1
  -9   4   6 134.196 7.08324  -2
  -9  -5   6 134.196 7.08324   1
  -8   4   6 107.875 5.70522  -2
  -8  -5   6 107.875 5.70522   1
  -7  -5   6 46.4543 2.91215   1
  -6   5   6 354.409 7.61069  -2
  -6  -5   6 354.409 7.61069   1
  -5  -5   6 134.396 3.98172   1
  -4   6   6 34.3538 2.08921  -2
  -4  -5   6 34.3538 2.08921   1
  -3  -5   6 22.7933 1.73470   1
  -2   7   6 318.050 6.31682  -2
  -2  -5   6 318.050 6.31682   1
  -1  -5   6 102.235 3.00713   1
   0   8   6 1.80029 2.57617  -2
   0  -5   6 1.80029 2.57617   1
   1   8   6 64.9207 4.85956  -2
   1  -5   6 64.9207 4.85956   1
   2   9   6 54.9291 3.51827  -2
   2  -5   6 54.9291 3.51827   1
   3   9   6 13.5879 3.20364  -2
   3  -5   6 13.5879 3.20364   1
   4  -5   6 4.86953 1.59571   1
   5  10   6 12.4286 3.55344  -2
   5  -5   6 12.4286 3.55344   1
   6  -5   6 36.6808 2.58249   1
   7  11   6 201.812 5.90135  -2
   7  -5   6 201.812 5.90135   1
   8  -5   6 80.9933 3.85898   1
   9  12   6 21.8680 6.92758  -2
   9  -5   6 21.8680 6.92758   1
  10  -5   6 3.83343 3.01813   1
  11  13   6 47.6076 7.06421  -2
  11  -5   6 47.6076 7.06421   1
 -10   2   6 17.0083 6.79304  -2
 -10  -4   6 17.0083 6.79304   1
  -9   3   6 64.0402 6.39702  -2
  -9  -4   6 64.0402 6.39702   1
  -8   3   6 119.930 5.62449  -2
  -8  -4   6 119.930 5.62449   1
  -7  -4   6 4.88510 1.92369   1
  -6   4   6 129.637 4.43581  -2
  -6  -4   6 129.637 4.43581   1
  -5  -4   6 123.605 3.61007   1
  -4   5   6 320.428 6.29664  -2
  -4  -4   6 320.428 6.29664   1
  -3  -4   6 209.779 4.45762   1
  -2   6   6 453.389 6.56040  -2
  -2  -4   6 453.389 6.56040   1
  -1  -4   6 282.313 3.78631   1
   0   7   6 114.116 2.65590  -2
   0  -4   6 114.116 2.65590   1
   1   7   6 9.92272 3.58831  -2
   1  -4   6 9.92272 3.58831   1
   2   8   6 248.024 5.39837  -2
   2  -4   6 248.024 5.39837   1
   3   8   6 450.368 8.27525  -2
   3  -4   6 450.368 8.27525   1
   4  -4   6 29.5337 1.83451   1
   5   9   6 10.5723 3.10353  -2
   5  -4   6 10.5723 3.10353   1
   6  -4   6 1.17619 1.66593   1
   7  10   6 2.81336 3.22023  -2
   7  -4   6 2.81336 3.22023   1
   8  -4   6 25.4001 2.67340   1
   9  11   6 3.72781 4.39333  -2
   9  -4   6 3.72781 4.39333   1
  10  -4   6 12.1930 2.89549   1
  11  12   6 22.7879 6.30020  -2
  11  -4   6 22.7879 6.30020   1
  12  12   6 44.1286 7.92890  -2
  12  -4   6 44.1286 7.92890   1
 -11   1   6 11.4920 10.0201  -2
 -11  -3   6 11.4920 10.0201   1
 -10   1   6 28.2243 6.65102  -2
 -10  -3   6 28.2243 6.65102   1
  -9   2   6 24.9404 5.79866  -2
  -9  -3   6 24.9404 5.79866   1
  -8   2   6 30.0200 4.70557  -2
  -8  -3   6 30.0200 4.70557   1
  -7  -3   6 0.67088 1.76375   1
  -6   3   6 14.1519 3.05498  -2
  -6  -3   6 14.1519 3.05498   1
  -5  -3   6 24.1854 1.82161   1
  -4   4   6 185.631 4.13136  -2
  -4  -3   6 185.631 4.13136   1
  -3  -3   6 158.958 2.89188   1
  -2   5   6 153.033 2.46015  -2
  -2  -3   6 153.033 2.46015   1
  -1  -3   6 64.5321 1.39080   1
   0   6   6 320.878 4.10788  -2
   0  -3   6 320.878 4.10788   1
   1   6   6 391.161 6.96873  -2
   1  -3   6 391.161 6.96873   1
   2   7   6 166.149 3.21330  -2
   2  -3   6 166.149 3.21330   1
   3   7   6 390.991 5.85943  -2
   3  -3   6 390.991 5.85943   1
   4  -3   6 141.412 2.83551   1
   5   8   6 149.533 4.16791  -2
   5  -3   6 149.533 4.16791   1
   6  -3   6 33.7628 2.11451   1
   7   9   6 256.329 6.00045  -2
   7  -3   6 256.329 6.00045   1
   8  -3   6 25.3146 2.47570   1
   9  10   6 -1.3342 3.95044  -2
   9  -3   6 -1.3342 3.95044   1
  10  -3   6 44.8267 3.25324   1
  11  11   6 12.6569 5.78305  -2
  11  -3   6 12.6569 5.78305   1
  12  11   6 6.09470 7.42696  -2
  12  -3   6 6.09470 7.42696   1
 -11   0   6 49.2113 9.79317  -2
 -11  -2   6 49.2113 9.79317   1
 -10   0   6 6.94936 6.38035  -2
 -10  -2   6 6.94936 6.38035   1
  -9   1   6 52.0136 5.84501  -2
  -9  -2   6 52.0136 5.84501   1
  -8   1   6 16.9589 4.63867  -2
  -8  -2   6 16.9589 4.63867   1
  -7  -2   6 13.0052 2.00970   1
  -6   2   6 66.4419 3.54977  -2
  -6  -2   6 66.4419 3.54977   1
  -5  -2   6 2.25246 1.32957   1
  -4   3   6 48.4738 1.80537  -2
  -4  -2   6 48.4738 1.80537   1
  -3  -2   6 81.6184 1.68345   1
  -2   4   6 2.62635 1.08191  -2
  -2  -2   6 2.62635 1.08191   1
  -1  -2   6 11.2017 0.60669   1
   0   5   6 178.987 2.82529  -2
   0  -2   6 178.987 2.82529   1
   1  -2   6 212.611 2.67616   1
   2   6   6 343.118 4.97925  -2
   2  -2   6 343.118 4.97925   1
   3   6   6 7.42836 1.60698  -2
   3  -2   6 7.42836 1.60698   1
   4  -2   6 53.3172 1.36745   1
   5   7   6 300.936 6.01495  -2
   5  -2   6 300.936 6.01495   1
   6  -2   6 369.958 6.06416   1
   7   8   6 512.242 9.52871  -2
   7  -2   6 512.242 9.52871   1
   8  -2   6 135.034 4.36461   1
   9   9   6 77.9136 4.32848  -2
   9  -2   6 77.9136 4.32848   1
  10  -2   6 14.0918 2.68779   1
  11  10   6 87.0834 8.70702  -2
  11  -2   6 87.0834 8.70702   1
  12  -2   6 35.9919 5.68222   1
  13  11   6 7.94921 7.33140  -2
  13  -2   6 7.94921 7.33140   1
 -11  -1   6 55.5308 10.2591  -2
 -11  -1   6 55.5308 10.2591   1
 -10  -1   6 -5.2937 6.07309  -2
 -10  -1   6 -5.2937 6.07309   1
  -9   0   6 170.440 6.73029  -2
  -9  -1   6 170.440 6.73029   1
  -8   0   6 298.398 7.53554  -2
  -8  -1   6 298.398 7.53554   1
  -7  -1   6 24.5429 2.21635   1
  -6   1   6 88.5910 3.69861  -2
  -6  -1   6 88.5910 3.69861   1
  -5  -1   6 37.1557 1.95959   1
  -4   2   6 26.0020 1.53194  -2
  -4  -1   6 26.0020 1.53194   1
  -3  -1   6 22.3119 0.91484   1
  -2   3   6 181.315 2.50949  -2
  -2  -1   6 181.315 2.50949   1
  -1  -1   6 26.7114 0.67142   1
   0   4   6 117.931 3.41393  -2
   0  -1   6 117.931 3.41393   1
   1  -1   6 4.90567 0.56396   1
   2   5   6 22.6915 1.12116  -2
   2  -1   6 22.6915 1.12116   1
   3   5   6 25.0433 2.33369  -2
   3  -1   6 25.0433 2.33369   1
   4  -1   6 22.9556 0.84753   1
   5   6   6 340.080 4.20906  -2
   5  -1   6 340.080 4.20906   1
   6  -1   6 121.325 2.86227   1
   7   7   6 215.236 4.25404  -2
   7  -1   6 215.236 4.25404   1
   8  -1   6 223.389 4.54218   1
   9   8   6 169.239 5.25678  -2
   9  -1   6 169.239 5.25678   1
  10  -1   6 11.4029 2.46688   1
  11   9   6 120.495 9.00552  -2
  11  -1   6 120.495 9.00552   1
  12  -1   6 93.4546 7.06752   1
  13  10   6 56.8361 11.2931  -2
  13  -1   6 56.8361 11.2931   1
 -11  -2   6 46.7865 9.86361  -2
 -11   0   6 46.7865 9.86361   1
 -10  -2   6 17.7092 6.30003  -2
 -10   0   6 17.7092 6.30003   1
  -9  -1   6 168.730 6.81748  -2
  -9   0   6 168.730 6.81748   1
  -8  -1   6 288.843 7.41075  -2
  -8   0   6 288.843 7.41075   1
  -7   0   6 7.75488 1.86353   1
  -6   0   6 166.871 4.63223  -2
  -6   0   6 166.871 4.63223   1
  -5   0   6 181.328 4.23912   1
  -4   1   6 619.193 8.55994  -2
  -4   0   6 619.193 8.55994   1
  -3   0   6 321.808 4.08396   1
  -2   2   6 12.6615 0.95990  -2
  -2   0   6 12.6615 0.95990   1
  -1   0   6 88.4564 1.70641   1
   0   0   6 112.195 4.65334   1
   1   0   6 -0.8919 1.54466   1
   2   0   6 21.8803 0.74742   1
   3   4   6 115.611 3.33580  -2
   3   0   6 115.611 3.33580   1
   4   0   6 5.46839 0.56530   1
   5   5   6 301.802 3.73627  -2
   5   0   6 301.802 3.73627   1
   6   0   6 96.2407 2.08109   1
   7   6   6 -0.8265 1.79667  -2
   7   0   6 -0.8265 1.79667   1
   8   0   6 96.7804 2.93879   1
   9   7   6 235.031 4.92891  -2
   9   0   6 235.031 4.92891   1
  10   0   6 3.90179 1.80366   1
  11   8   6 48.6956 7.24239  -2
  11   0   6 48.6956 7.24239   1
  12   0   6 43.4505 5.44907   1
  13   9   6 103.458 10.7847  -2
  13   0   6 103.458 10.7847   1
  14   9   6 68.1533 12.8868  -2
  14   0   6 68.1533 12.8868   1
 -11  -3   6 9.99224 9.53120  -2
 -11   1   6 9.99224 9.53120   1
 -10  -3   6 22.7991 9.01899  -2
 -10   1   6 22.7991 9.01899   1
  -9  -2   6 59.2791 6.00790  -2
  -9   1   6 59.2791 6.00790   1
  -8  -2   6 22.0738 4.52471  -2
  -8   1   6 22.0738 4.52471   1
  -7   1   6 25.4080 2.32126   1
  -6  -1   6 105.316 3.92386  -2
  -6   1   6 105.316 3.92386   1
  -5   1   6 82.3212 2.86558   1
  -4   0   6 643.917 8.89927  -2
  -4   1   6 643.917 8.89927   1
  -3   1   6 444.383 4.95609   1
  -2   1   6 376.360 4.19646  -2
  -2   1   6 376.360 4.19646   1
  -1   1   6 100.465 1.31988   1
   0   1   6 374.258 10.8284   1
   1   1   6 361.082 10.6053   1
   2   1   6 35.1602 0.86418   1
   3   1   6 79.8248 1.15603   1
   4   1   6 115.182 1.65996   1
   5   4   6 232.951 3.06028  -2
   5   1   6 232.951 3.06028   1
   6   1   6 27.8692 0.99947   1
   7   5   6 100.334 2.71555  -2
   7   1   6 100.334 2.71555   1
   8   1   6 9.94281 1.41169   1
   9   6   6 34.5273 2.69285  -2
   9   1   6 34.5273 2.69285   1
  10   1   6 3.45944 1.71731   1
  11   7   6 -0.8720 3.26066  -2
  11   1   6 -0.8720 3.26066   1
  12   7   6 -4.9807 5.27186  -2
  12   1   6 -4.9807 5.27186   1
  13   8   6 57.0197 10.5688  -2
  13   1   6 57.0197 10.5688   1
  14   8   6 83.8854 6.12914  -2
  14   1   6 83.8854 6.12914   1
 -10  -4   6 14.9773 9.70686  -2
 -10   2   6 14.9773 9.70686   1
  -9  -3   6 27.4132 5.74206  -2
  -9   2   6 27.4132 5.74206   1
  -8  -3   6 27.5297 4.68670  -2
  -8   2   6 27.5297 4.68670   1
  -7   2   6 5.11351 1.94656   1
  -6  -2   6 69.8334 3.58003  -2
  -6   2   6 69.8334 3.58003   1
  -5   2   6 29.3468 1.91337   1
  -4  -1   6 25.1112 1.35399  -2
  -4   2   6 25.1112 1.35399   1
  -3   2   6 102.731 1.72876   1
  -2   0   6 12.8648 1.04780  -2
  -2   2   6 12.8648 1.04780   1
  -1   2   6 77.1248 1.21770   1
   0   1   6 709.697 16.0386  -2
   0   2   6 709.697 16.0386   1
   1   1   6 832.323 18.6130  -2
   1   2   6 832.323 18.6130   1
   2   2   6 222.091 3.35668   1
   3   2   6 51.6034 2.13388  -2
   3   2   6 51.6034 2.13388   1
   4   2   6 84.2656 1.37363   1
   5   3   6 846.415 9.00510  -2
   5   2   6 846.415 9.00510   1
   6   2   6 412.906 4.39030   1
   7   4   6 91.3021 2.59619  -2
   7   2   6 91.3021 2.59619   1
   8   2   6 55.0418 2.11632   1
   9   5   6 37.8854 1.87766  -2
   9   2   6 37.8854 1.87766   1
  10   2   6 0.57470 1.08431   1
  11   6   6 28.9603 3.47123  -2
  11   2   6 28.9603 3.47123   1
  12   6   6 22.2056 5.09413  -2
  12   2   6 22.2056 5.09413   1
  13   7   6 8.61406 4.97600  -2
  13   2   6 8.61406 4.97600   1
  14   7   6 25.9333 5.63064  -2
  14   2   6 25.9333 5.63064   1
 -10  -5   6 10.1912 10.1464  -2
 -10   3   6 10.1912 10.1464   1
  -9  -4   6 68.0116 6.46186  -2
  -9   3   6 68.0116 6.46186   1
  -8  -4   6 133.497 5.96431  -2
  -8   3   6 133.497 5.96431   1
  -7   3   6 2.40005 2.01278   1
  -6  -3   6 15.2615 3.19168  -2
  -6   3   6 15.2615 3.19168   1
  -5   3   6 0.58689 1.46670   1
  -4  -2   6 48.7549 1.84553  -2
  -4   3   6 48.7549 1.84553   1
  -3   3   6 32.2491 1.18429   1
  -2  -1   6 184.447 2.23057  -2
  -2   3   6 184.447 2.23057   1
  -1   3   6 96.8682 1.50712   1
   0   0   6 118.447 2.12956  -2
   0   3   6 118.447 2.12956   1
   1   0   6 5.11800 2.14415  -2
   1   3   6 5.11800 2.14415   1
   2   3   6 24.2930 0.70958   1
   3   1   6 99.8319 3.38444  -2
   3   3   6 99.8319 3.38444   1
   4   3   6 139.956 2.06597   1
   5   2   6 851.308 9.87203  -2
   5   3   6 851.308 9.87203   1
   6   3   6 347.481 4.55576   1
   7   3   6 231.784 3.25592  -2
   7   3   6 231.784 3.25592   1
   8   3   6 402.979 5.24033   1
   9   4   6 520.497 6.71628  -2
   9   3   6 520.497 6.71628   1
  10   3   6 9.45513 1.20791   1
  11   5   6 16.1541 3.29047  -2
  11   3   6 16.1541 3.29047   1
  12   5   6 33.3144 5.09032  -2
  12   3   6 33.3144 5.09032   1
  13   6   6 44.3811 4.99872  -2
  13   3   6 44.3811 4.99872   1
  14   6   6 36.3857 5.70958  -2
  14   3   6 36.3857 5.70958   1
 -10  -6   6 140.814 12.1279  -2
 -10   4   6 140.814 12.1279   1
  -9  -5   6 129.457 10.3235  -2
  -9   4   6 129.457 10.3235   1
  -8  -5   6 105.154 5.97487  -2
  -8   4   6 105.154 5.97487   1
  -7   4   6 16.6172 2.52178   1
  -6  -4   6 122.860 4.66350  -2
  -6   4   6 122.860 4.66350   1
  -5   4   6 56.1281 2.69886   1
  -4  -3   6 183.129 4.43898  -2
  -4   4   6 183.129 4.43898   1
  -3   4   6 117.242 2.30087   1
  -2  -2   6 1.06470 1.20150  -2
  -2   4   6 1.06470 1.20150   1
  -1   4   6 19.4416 0.75353   1
   0  -1   6 114.549 2.01325  -2
   0   4   6 114.549 2.01325   1
   1  -1   6 0.44953 2.67923  -2
   1   4   6 0.44953 2.67923   1
   2   0   6 41.5375 2.87709  -2
   2   4   6 41.5375 2.87709   1
   3   0   6 116.268 3.95154  -2
   3   4   6 116.268 3.95154   1
   4   4   6 29.9709 0.97688   1
   5   1   6 239.424 3.12765  -2
   5   4   6 239.424 3.12765   1
   6   4   6 249.160 3.57377   1
   7   2   6 94.3405 2.01365  -2
   7   4   6 94.3405 2.01365   1
   8   4   6 167.809 3.06757   1
   9   3   6 525.493 6.80462  -2
   9   4   6 525.493 6.80462   1
  10   4   6 51.6628 1.93693   1
  11   4   6 79.3625 3.38593  -2
  11   4   6 79.3625 3.38593   1
  12   4   6 58.5545 5.42689  -2
  12   4   6 58.5545 5.42689   1
  13   5   6 148.988 6.03737  -2
  13   4   6 148.988 6.03737   1
  14   5   6 195.584 7.25597  -2
  14   4   6 195.584 7.25597   1
  -9  -6   6 40.2373 9.68642  -2
  -9   5   6 40.2373 9.68642   1
  -8  -6   6 0.67194 7.44465  -2
  -8   5   6 0.67194 7.44465   1
  -7   5   6 51.4456 2.77256   1
  -6  -5   6 347.922 7.92772  -2
  -6   5   6 347.922 7.92772   1
  -5   5   6 143.398 3.66450   1
  -4  -4   6 316.028 5.38613  -2
  -4   5   6 316.028 5.38613   1
  -3   5   6 188.475 3.56941   1
  -2  -3   6 154.459 3.04150  -2
  -2   5   6 154.459 3.04150   1
  -1   5   6 17.2206 0.83059   1
   0  -2   6 171.689 2.38257  -2
   0   5   6 171.689 2.38257   1
   1  -2   6 300.129 8.33877  -2
   1   5   6 300.129 8.33877   1
   2  -1   6 21.7931 2.13001  -2
   2   5   6 21.7931 2.13001   1
   3  -1   6 24.7550 1.85089  -2
   3   5   6 24.7550 1.85089   1
   4   5   6 9.46360 0.73475   1
   5   0   6 297.305 4.17489  -2
   5   5   6 297.305 4.17489   1
   6   5   6 13.6694 0.74193   1
   7   1   6 103.975 2.23526  -2
   7   5   6 103.975 2.23526   1
   8   5   6 21.6113 1.23808   1
   9   2   6 40.3508 2.16215  -2
   9   5   6 40.3508 2.16215   1
  10   5   6 3.43019 1.28693   1
  11   3   6 12.8182 3.02271  -2
  11   5   6 12.8182 3.02271   1
  12   3   6 35.6708 4.70919  -2
  12   5   6 35.6708 4.70919   1
  13   4   6 142.883 5.99956  -2
  13   5   6 142.883 5.99956   1
  14   4   6 201.220 7.24355  -2
  14   5   6 201.220 7.24355   1
  -9  -7   6 1.30783 9.70735  -2
  -9   6   6 1.30783 9.70735   1
  -8  -7   6 6.04963 8.06503  -2
  -8   6   6 6.04963 8.06503   1
  -7   6   6 65.3701 3.12339   1
  -6  -6   6 172.577 4.74015  -2
  -6   6   6 172.577 4.74015   1
  -5   6   6 74.9847 3.32264   1
  -4  -5   6 34.5517 2.63837  -2
  -4   6   6 34.5517 2.63837   1
  -3   6   6 82.0838 2.55504   1
  -2  -4   6 461.831 8.12826  -2
  -2   6   6 461.831 8.12826   1
  -1   6   6 308.228 4.69840   1
   0  -3   6 319.628 4.30348  -2
   0   6   6 319.628 4.30348   1
   1  -3   6 397.526 10.6478  -2
   1   6   6 397.526 10.6478   1
   2  -2   6 360.053 5.65121  -2
   2   6   6 360.053 5.65121   1
   3  -2   6 8.18766 2.12731  -2
   3   6   6 8.18766 2.12731   1
   4   6   6 20.4777 1.05652   1
   5  -1   6 328.855 3.64989  -2
   5   6   6 328.855 3.64989   1
   6   6   6 136.777 2.32838   1
   7   0   6 0.20594 1.34941  -2
   7   6   6 0.20594 1.34941   1
   8   6   6 20.2301 1.33655   1
   9   1   6 37.4638 2.33454  -2
   9   6   6 37.4638 2.33454   1
  10   6   6 4.62210 1.39185   1
  11   2   6 27.0387 3.65033  -2
  11   6   6 27.0387 3.65033   1
  12   2   6 24.8566 5.56236  -2
  12   6   6 24.8566 5.56236   1
  13   3   6 37.9984 5.21457  -2
  13   6   6 37.9984 5.21457   1
  14   3   6 32.0944 5.95929  -2
  14   6   6 32.0944 5.95929   1
  -8  -8   6 1.98332 9.30718  -2
  -8   7   6 1.98332 9.30718   1
  -7   7   6 -0.7295 3.94593   1
  -6  -7   6 18.2716 6.67643  -2
  -6   7   6 18.2716 6.67643   1
  -5   7   6 4.66739 2.05253   1
  -4  -6   6 3.68553 1.99026  -2
  -4   7   6 3.68553 1.99026   1
  -3   7   6 0.42058 1.38211   1
  -2  -5   6 302.884 5.16055  -2
  -2   7   6 302.884 5.16055   1
  -1   7   6 145.845 3.07453   1
   0  -4   6 111.062 2.95794  -2
   0   7   6 111.062 2.95794   1
   1  -4   6 12.2125 4.48170  -2
   1   7   6 12.2125 4.48170   1
   2  -3   6 160.888 4.40397  -2
   2   7   6 160.888 4.40397   1
   3  -3   6 383.791 5.44031  -2
   3   7   6 383.791 5.44031   1
   4  -2   6 122.622 2.85046  -2
   4   7   6 122.622 2.85046   1
   5  -2   6 313.511 4.79615  -2
   5   7   6 313.511 4.79615   1
   6   7   6 236.598 3.83346   1
   7  -1   6 211.356 3.74878  -2
   7   7   6 211.356 3.74878   1
   8   7   6 208.584 3.81723   1
   9   0   6 242.636 4.55615  -2
   9   7   6 242.636 4.55615   1
  10   7   6 1.00846 1.62501   1
  11   1   6 3.60059 3.73226  -2
  11   7   6 3.60059 3.73226   1
  12   1   6 2.08253 4.91508  -2
  12   7   6 2.08253 4.91508   1
  13   2   6 10.2515 5.29994  -2
  13   7   6 10.2515 5.29994   1
  14   2   6 25.5548 6.88571  -2
  14   7   6 25.5548 6.88571   1
  -8  -9   6 -8.8877 10.6640  -2
  -8   8   6 -8.8877 10.6640   1
  -7   8   6 2.15330 4.58350   1
  -6  -8   6 89.4254 8.42436  -2
  -6   8   6 89.4254 8.42436   1
  -5   8   6 25.4533 2.32089   1
  -4  -7   6 4.01819 1.50750  -2
  -4   8   6 4.01819 1.50750   1
  -3   8   6 -1.1675 0.95145   1
  -2  -6   6 10.7251 1.66414  -2
  -2   8   6 10.7251 1.66414   1
  -1   8   6 0.85346 0.92190   1
   0  -5   6 -0.5974 1.73806  -2
   0   8   6 -0.5974 1.73806   1
   1  -5   6 63.3979 2.38525  -2
   1   8   6 63.3979 2.38525   1
   2  -4   6 255.223 4.20961  -2
   2   8   6 255.223 4.20961   1
   3  -4   6 471.172 6.81647  -2
   3   8   6 471.172 6.81647   1
   4  -3   6 253.758 8.56165  -2
   4   8   6 253.758 8.56165   1
   5  -3   6 157.962 3.26589  -2
   5   8   6 157.962 3.26589   1
   6   8   6 216.289 3.79803   1
   7  -2   6 494.861 7.21305  -2
   7   8   6 494.861 7.21305   1
   8   8   6 239.689 4.32872   1
   9  -1   6 186.682 4.08409  -2
   9   8   6 186.682 4.08409   1
  10   8   6 23.0098 2.16667   1
  11   0   6 44.3679 4.34525  -2
  11   8   6 44.3679 4.34525   1
  12   0   6 68.9018 5.66394  -2
  12   8   6 68.9018 5.66394   1
  13   1   6 58.2590 5.88764  -2
  13   8   6 58.2590 5.88764   1
  14   1   6 85.5799 7.69966  -2
  14   8   6 85.5799 7.69966   1
  -7   9   6 40.4072 3.84424   1
  -6  -9   6 186.922 7.05048  -2
  -6   9   6 186.922 7.05048   1
  -5   9   6 34.3910 1.86163   1
  -4  -8   6 51.6496 2.15719  -2
  -4   9   6 51.6496 2.15719   1
  -3   9   6 35.4519 1.77451   1
  -2  -7   6 136.425 3.25025  -2
  -2   9   6 136.425 3.25025   1
  -1   9   6 28.5485 1.53242   1
   0  -6   6 1.84015 2.18190  -2
   0   9   6 1.84015 2.18190   1
   1  -6   6 28.6447 2.76555  -2
   1   9   6 28.6447 2.76555   1
   2  -5   6 51.9401 2.61512  -2
   2   9   6 51.9401 2.61512   1
   3  -5   6 14.2994 2.45450  -2
   3   9   6 14.2994 2.45450   1
   4  -4   6 35.7275 5.84999  -2
   4   9   6 35.7275 5.84999   1
   5  -4   6 13.9357 2.16955  -2
   5   9   6 13.9357 2.16955   1
   6   9   6 8.19954 1.28102   1
   7  -3   6 262.044 4.62312  -2
   7   9   6 262.044 4.62312   1
   8   9   6 45.2388 2.05537   1
   9  -2   6 77.5506 3.62387  -2
   9   9   6 77.5506 3.62387   1
  10   9   6 14.9479 2.14231   1
  11  -1   6 124.686 5.16513  -2
  11   9   6 124.686 5.16513   1
  12  -1   6 180.166 7.05544  -2
  12   9   6 180.166 7.05544   1
  13   0   6 94.6147 6.47535  -2
  13   9   6 94.6147 6.47535   1
  14   0   6 96.2116 8.26016  -2
  14   9   6 96.2116 8.26016   1
  -6 -10   6 42.7904 9.93007  -2
  -6  10   6 42.7904 9.93007   1
  -5  10   6 63.7228 2.71931   1
  -4  -9   6 43.8437 3.08816  -2
  -4  10   6 43.8437 3.08816   1
  -3  10   6 26.7120 2.08578   1
  -2  -8   6 231.153 4.62916  -2
  -2  10   6 231.153 4.62916   1
  -1  10   6 123.762 3.17166   1
   0  -7   6 31.9504 2.80922  -2
   0  10   6 31.9504 2.80922   1
   1  -7   6 14.1574 3.09469  -2
   1  10   6 14.1574 3.09469   1
   2  -6   6 133.739 3.77445  -2
   2  10   6 133.739 3.77445   1
   3  -6   6 35.1014 2.95799  -2
   3  10   6 35.1014 2.95799   1
   4  -5   6 0.70414 4.56066  -2
   4  10   6 0.70414 4.56066   1
   5  -5   6 12.8319 2.45825  -2
   5  10   6 12.8319 2.45825   1
   6  10   6 16.6370 1.56956   1
   7  -4   6 0.95037 2.41159  -2
   7  10   6 0.95037 2.41159   1
   8  10   6 1.62127 1.67308   1
   9  -3   6 0.44762 2.87440  -2
   9  10   6 0.44762 2.87440   1
  10  10   6 37.2229 2.68525   1
  11  -2   6 88.6300 5.08150  -2
  11  10   6 88.6300 5.08150   1
  12  -2   6 88.1760 6.56903  -2
  12  10   6 88.1760 6.56903   1
  13  -1   6 61.4043 7.63721  -2
  13  10   6 61.4043 7.63721   1
  -5  11   6 6.21399 2.20817   1
  -4 -10   6 63.9444 3.63746  -2
  -4  11   6 63.9444 3.63746   1
  -3  11   6 36.4598 2.40673   1
  -2  -9   6 113.115 4.27908  -2
  -2  11   6 113.115 4.27908   1
  -1  11   6 58.9901 2.69550   1
   0  -8   6 122.865 4.40269  -2
   0  11   6 122.865 4.40269   1
   1  -8   6 90.7626 4.57019  -2
   1  11   6 90.7626 4.57019   1
   2  -7   6 87.1348 3.74403  -2
   2  11   6 87.1348 3.74403   1
   3  -7   6 209.294 4.82920  -2
   3  11   6 209.294 4.82920   1
   4  -6   6 13.6183 5.36117  -2
   4  11   6 13.6183 5.36117   1
   5  -6   6 7.68933 3.24630  -2
   5  11   6 7.68933 3.24630   1
   6  11   6 35.2110 2.29045   1
   7  -5   6 207.462 5.20289  -2
   7  11   6 207.462 5.20289   1
   8  11   6 98.6466 3.81677   1
   9  -4   6 0.13366 3.12652  -2
   9  11   6 0.13366 3.12652   1
  10  -4   6 33.0600 6.47003  -2
  10  11   6 33.0600 6.47003   1
  11  -3   6 17.2589 4.93007  -2
  11  11   6 17.2589 4.93007   1
  12  -3   6 7.27028 7.53217  -2
  12  11   6 7.27028 7.53217   1
  13  -2   6 2.12340 7.46880  -2
  13  11   6 2.12340 7.46880   1
  -4 -11   6 33.3215 3.93415  -2
  -4  12   6 33.3215 3.93415   1
  -3  12   6 14.7478 2.41444   1
  -2 -10   6 25.1353 3.87376  -2
  -2  12   6 25.1353 3.87376   1
  -1 -10   6 8.97869 10.6870  -2
  -1  12   6 8.97869 10.6870   1
   0  -9   6 68.4561 4.30685  -2
   0  12   6 68.4561 4.30685   1
   1  -9   6 154.232 5.62840  -2
   1  12   6 154.232 5.62840   1
   2  -8   6 148.439 5.25625  -2
   2  12   6 148.439 5.25625   1
   3  -8   6 161.943 5.50502  -2
   3  12   6 161.943 5.50502   1
   4  -7   6 226.206 11.3472  -2
   4  12   6 226.206 11.3472   1
   5  -7   6 170.230 5.37981  -2
   5  12   6 170.230 5.37981   1
   6  12   6 132.000 4.45841   1
   7  -6   6 273.155 6.40099  -2
   7  12   6 273.155 6.40099   1
   8  12   6 92.5582 4.09558   1
   9  -5   6 29.4185 4.13109  -2
   9  12   6 29.4185 4.13109   1
  10  -5   6 9.26326 6.88112  -2
  10  12   6 9.26326 6.88112   1
  11  -4   6 31.0703 6.58379  -2
  11  12   6 31.0703 6.58379   1
  12  -4   6 44.6024 8.43737  -2
  12  12   6 44.6024 8.43737   1
  -3  13   6 3.19642 2.45845   1
  -2 -11   6 19.0513 4.43425  -2
  -2  13   6 19.0513 4.43425   1
  -1 -11   6 4.65047 5.75364  -2
  -1  13   6 4.65047 5.75364   1
   0 -10   6 45.4448 4.65925  -2
   0  13   6 45.4448 4.65925   1
   1 -10   6 19.8712 5.05593  -2
   1  13   6 19.8712 5.05593   1
   2  -9   6 52.6802 4.86905  -2
   2  13   6 52.6802 4.86905   1
   3  -9   6 39.3701 4.84375  -2
   3  13   6 39.3701 4.84375   1
   4  -8   6 66.4688 10.3071  -2
   4  13   6 66.4688 10.3071   1
   5  -8   6 44.8423 4.53089  -2
   5  13   6 44.8423 4.53089   1
   6  13   6 23.8191 2.64360   1
   7  -7   6 95.7445 4.50970  -2
   7  13   6 95.7445 4.50970   1
   8  13   6 25.0696 2.90578   1
   9  -6   6 72.6877 4.92982  -2
   9  13   6 72.6877 4.92982   1
  10  13   6 23.9074 3.15299   1
  11  -5   6 45.7403 7.15972  -2
  11  13   6 45.7403 7.15972   1
  -2 -12   6 23.3933 5.15893  -2
  -2  14   6 23.3933 5.15893   1
  -1 -12   6 19.9408 6.55866  -2
  -1  14   6 19.9408 6.55866   1
   0 -11   6 12.2733 5.13675  -2
   0  14   6 12.2733 5.13675   1
   1 -11   6 13.4117 5.86983  -2
   1  14   6 13.4117 5.86983   1
   2 -10   6 20.1194 5.11922  -2
   2  14   6 20.1194 5.11922   1
   3 -10   6 8.57512 5.11948  -2
   3  14   6 8.57512 5.11948   1
   4  -9   6 26.0207 5.98771  -2
   4  14   6 26.0207 5.98771   1
   5  -9   6 39.7586 4.86465  -2
   5  14   6 39.7586 4.86465   1
   6  14   6 5.05497 2.64139   1
   7  -8   6 0.27019 4.14041  -2
   7  14   6 0.27019 4.14041   1
   8  14   6 3.98223 2.75836   1
   9  -7   6 71.1789 6.57281  -2
   9  14   6 71.1789 6.57281   1
  10  14   6 92.0863 5.45810   1
   0 -12   6 52.6569 13.1986  -2
   0  15   6 52.6569 13.1986   1
   1 -12   6 63.9679 6.93388  -2
   1  15   6 63.9679 6.93388   1
   2 -11   6 11.8158 5.87083  -2
   2  15   6 11.8158 5.87083   1
   3 -11   6 -1.9274 5.89711  -2
   3  15   6 -1.9274 5.89711   1
   4 -10   6 6.68195 6.36091  -2
   4  15   6 6.68195 6.36091   1
   5 -10   6 6.51325 5.40283  -2
   5  15   6 6.51325 5.40283   1
   6  15   6 10.5219 3.02633   1
   7  -9   6 50.9952 5.94283  -2
   7  15   6 50.9952 5.94283   1
   8  15   6 9.98043 3.79988   1
  -3  13   7 26.0763 5.41192  -2
  -3 -11   7 26.0763 5.41192   1
  -2 -11   7 18.0953 3.46272   1
  -1  14   7 99.3512 7.13478  -2
  -1 -11   7 99.3512 7.13478   1
   0  14   7 88.9970 7.80323  -2
   0 -11   7 88.9970 7.80323   1
   1  15   7 0.24885 7.15566  -2
   1 -11   7 0.24885 7.15566   1
   2  15   7 -3.1538 7.17306  -2
   2 -11   7 -3.1538 7.17306   1
  -5  11   7 0.87879 4.62962  -2
  -5 -10   7 0.87879 4.62962   1
  -4 -10   7 11.5501 3.03703   1
  -3  12   7 120.521 5.79824  -2
  -3 -10   7 120.521 5.79824   1
  -2 -10   7 40.8843 3.46535   1
  -1  13   7 89.3279 6.22389  -2
  -1 -10   7 89.3279 6.22389   1
   0  13   7 145.993 7.42719  -2
   0 -10   7 145.993 7.42719   1
   1  14   7 73.8949 6.94231  -2
   1 -10   7 73.8949 6.94231   1
   2  14   7 11.0548 6.58425  -2
   2 -10   7 11.0548 6.58425   1
   3  15   7 101.525 8.44047  -2
   3 -10   7 101.525 8.44047   1
   4  15   7 180.147 8.12355  -2
   4 -10   7 180.147 8.12355   1
   5 -10   7 7.30359 5.34844   1
  -7   9   7 4.23576 5.55959  -2
  -7  -9   7 4.23576 5.55959   1
  -6  -9   7 0.01742 2.69288   1
  -5  10   7 9.02330 4.15031  -2
  -5  -9   7 9.02330 4.15031   1
  -4  -9   7 0.79046 2.48137   1
  -3  11   7 42.0217 4.43508  -2
  -3  -9   7 42.0217 4.43508   1
  -2  -9   7 11.7181 2.53527   1
  -1  12   7 1.38190 4.71476  -2
  -1  -9   7 1.38190 4.71476   1
   0  12   7 7.98247 5.43850  -2
   0  -9   7 7.98247 5.43850   1
   1  13   7 208.754 7.40508  -2
   1  -9   7 208.754 7.40508   1
   2  13   7 100.545 6.45282  -2
   2  -9   7 100.545 6.45282   1
   3  14   7 48.5898 6.92719  -2
   3  -9   7 48.5898 6.92719   1
   4  14   7 106.900 6.76298  -2
   4  -9   7 106.900 6.76298   1
   5  -9   7 52.0871 4.00727   1
   6  15   7 28.7974 8.24779  -2
   6  -9   7 28.7974 8.24779   1
   7  -9   7 38.3164 6.30112   1
  -8  -8   7 21.9285 3.43438   1
  -7   8   7 94.1379 5.91301  -2
  -7  -8   7 94.1379 5.91301   1
  -6  -8   7 21.3494 2.80962   1
  -5   9   7 37.0526 4.05643  -2
  -5  -8   7 37.0526 4.05643   1
  -4  -8   7 19.9473 2.52283   1
  -3  10   7 6.05025 3.48065  -2
  -3  -8   7 6.05025 3.48065   1
  -2  -8   7 3.68024 2.03774   1
  -1  11   7 -0.1959 4.03231  -2
  -1  -8   7 -0.1959 4.03231   1
   0  11   7 45.0522 4.74106  -2
   0  -8   7 45.0522 4.74106   1
   1  12   7 61.0248 5.26920  -2
   1  -8   7 61.0248 5.26920   1
   2  12   7 251.551 7.37910  -2
   2  -8   7 251.551 7.37910   1
   3  13   7 25.6434 5.72001  -2
   3  -8   7 25.6434 5.72001   1
   4  13   7 1.89927 4.92791  -2
   4  -8   7 1.89927 4.92791   1
   5  -8   7 24.4019 3.16565   1
   6  14   7 109.755 6.09039  -2
   6  -8   7 109.755 6.09039   1
   7  -8   7 49.2540 4.12479   1
   8  15   7 76.3342 9.32010  -2
   8  -8   7 76.3342 9.32010   1
  -8   7   7 121.996 7.64502  -2
  -8  -7   7 121.996 7.64502   1
  -7   7   7 248.151 7.22807  -2
  -7  -7   7 248.151 7.22807   1
  -6  -7   7 68.1515 3.49901   1
  -5   8   7 39.5711 3.58168  -2
  -5  -7   7 39.5711 3.58168   1
  -4  -7   7 52.5041 2.89497   1
  -3   9   7 179.236 5.09558  -2
  -3  -7   7 179.236 5.09558   1
  -2  -7   7 51.2038 2.70594   1
  -1  10   7 32.5490 3.83284  -2
  -1  -7   7 32.5490 3.83284   1
   0  10   7 53.2486 4.28081  -2
   0  -7   7 53.2486 4.28081   1
   1  11   7 39.7448 4.41194  -2
   1  -7   7 39.7448 4.41194   1
   2  11   7 4.07677 4.26011  -2
   2  -7   7 4.07677 4.26011   1
   3  12   7 10.4439 4.94313  -2
   3  -7   7 10.4439 4.94313   1
   4  12   7 50.4509 4.65033  -2
   4  -7   7 50.4509 4.65033   1
   5  -7   7 0.96400 2.32895   1
   6  13   7 31.0776 4.63601  -2
   6  -7   7 31.0776 4.63601   1
   7  -7   7 2.60075 2.84732   1
   8  14   7 -0.1035 7.22041  -2
   8  -7   7 -0.1035 7.22041   1
   9  -7   7 24.4260 5.77488   1
  -9   5   7 -1.3514 6.34898  -2
  -9  -6   7 -1.3514 6.34898   1
  -8   6   7 55.0187 6.36845  -2
  -8  -6   7 55.0187 6.36845   1
  -7   6   7 125.178 5.44493  -2
  -7  -6   7 125.178 5.44493   1
  -6  -6   7 64.4748 3.22963   1
  -5   7   7 19.0603 2.99290  -2
  -5  -6   7 19.0603 2.99290   1
  -4  -6   7 42.1991 2.47704   1
  -3   8   7 380.121 7.58079  -2
  -3  -6   7 380.121 7.58079   1
  -2  -6   7 127.991 3.81764   1
  -1   9   7 43.6613 3.41820  -2
  -1  -6   7 43.6613 3.41820   1
   0   9   7 101.177 6.09044  -2
   0  -6   7 101.177 6.09044   1
   1  10   7 157.723 5.01897  -2
   1  -6   7 157.723 5.01897   1
   2  10   7 50.8851 3.94005  -2
   2  -6   7 50.8851 3.94005   1
   3  11   7 61.7718 6.65437  -2
   3  -6   7 61.7718 6.65437   1
   4  11   7 156.162 5.33171  -2
   4  -6   7 156.162 5.33171   1
   5  -6   7 10.0834 2.19891   1
   6  12   7 6.21172 3.88583  -2
   6  -6   7 6.21172 3.88583   1
   7  -6   7 31.4245 3.09269   1
   8  13   7 3.46656 4.83044  -2
   8  -6   7 3.46656 4.83044   1
   9  -6   7 19.8609 4.91975   1
  10  14   7 28.9026 9.81172  -2
  10  -6   7 28.9026 9.81172   1
  -9   4   7 2.76493 5.95153  -2
  -9  -5   7 2.76493 5.95153   1
  -8  -5   7 1.04357 2.38519   1
  -7   5   7 4.35090 4.08350  -2
  -7  -5   7 4.35090 4.08350   1
  -6  -5   7 34.9650 2.51071   1
  -5   6   7 114.793 3.80875  -2
  -5  -5   7 114.793 3.80875   1
  -4  -5   7 60.2857 2.65329   1
  -3   7   7 122.678 3.64918  -2
  -3  -5   7 122.678 3.64918   1
  -2  -5   7 38.7982 2.04215   1
  -1   8   7 23.1951 2.76916  -2
  -1  -5   7 23.1951 2.76916   1
   0   8   7 74.4613 5.09414  -2
   0  -5   7 74.4613 5.09414   1
   1   9   7 670.229 11.8013  -2
   1  -5   7 670.229 11.8013   1
   2   9   7 459.213 8.69790  -2
   2  -5   7 459.213 8.69790   1
   3  10   7 33.0340 5.40578  -2
   3  -5   7 33.0340 5.40578   1
   4  10   7 40.1944 3.50779  -2
   4  -5   7 40.1944 3.50779   1
   5  -5   7 83.6404 3.54457   1
   6  11   7 120.477 4.57918  -2
   6  -5   7 120.477 4.57918   1
   7  -5   7 68.8366 3.42214   1
   8  12   7 39.2330 4.56025  -2
   8  -5   7 39.2330 4.56025   1
   9  -5   7 1.55691 2.82013   1
  10  13   7 -4.5710 8.41222  -2
  10  -5   7 -4.5710 8.41222   1
  11  13   7 -2.4924 11.3124  -2
  11  -5   7 -2.4924 11.3124   1
 -10   3   7 27.2821 7.15286  -2
 -10  -4   7 27.2821 7.15286   1
  -9   3   7 6.54869 5.68440  -2
  -9  -4   7 6.54869 5.68440   1
  -8   4   7 24.6034 7.66846  -2
  -8  -4   7 24.6034 7.66846   1
  -7   4   7 156.580 5.41317  -2
  -7  -4   7 156.580 5.41317   1
  -6  -4   7 11.9365 1.97185   1
  -5   5   7 24.1727 2.49614  -2
  -5  -4   7 24.1727 2.49614   1
  -4  -4   7 2.81990 1.39194   1
  -3   6   7 29.8430 2.45583  -2
  -3  -4   7 29.8430 2.45583   1
  -2  -4   7 5.17458 1.00286   1
  -1   7   7 260.083 4.31720  -2
  -1  -4   7 260.083 4.31720   1
   0   7   7 0.91151 3.54126  -2
   0  -4   7 0.91151 3.54126   1
   1   8   7 149.807 3.29811  -2
   1  -4   7 149.807 3.29811   1
   2   8   7 857.975 11.6574  -2
   2  -4   7 857.975 11.6574   1
   3   9   7 185.007 7.03101  -2
   3  -4   7 185.007 7.03101   1
   4   9   7 45.3621 3.07445  -2
   4  -4   7 45.3621 3.07445   1
   5  -4   7 120.871 3.69252   1
   6  10   7 416.608 8.32970  -2
   6  -4   7 416.608 8.32970   1
   7  -4   7 64.7117 3.14789   1
   8  11   7 48.0059 4.26544  -2
   8  -4   7 48.0059 4.26544   1
   9  -4   7 59.0937 3.68762   1
  10  12   7 166.119 9.96216  -2
  10  -4   7 166.119 9.96216   1
  11  12   7 76.9908 10.6820  -2
  11  -4   7 76.9908 10.6820   1
 -10   2   7 58.4314 7.09336  -2
 -10  -3   7 58.4314 7.09336   1
  -9   2   7 83.1890 6.19450  -2
  -9  -3   7 83.1890 6.19450   1
  -8   3   7 76.7459 7.92635  -2
  -8  -3   7 76.7459 7.92635   1
  -7   3   7 115.336 4.72299  -2
  -7  -3   7 115.336 4.72299   1
  -6  -3   7 84.0308 3.47917   1
  -5   4   7 47.4195 2.65578  -2
  -5  -3   7 47.4195 2.65578   1
  -4  -3   7 16.3474 1.49637   1
  -3   5   7 239.824 4.96880  -2
  -3  -3   7 239.824 4.96880   1
  -2  -3   7 81.5716 1.94914   1
  -1   6   7 79.5931 1.84210  -2
  -1  -3   7 79.5931 1.84210   1
   0   6   7 10.1402 3.29253  -2
   0  -3   7 10.1402 3.29253   1
   1   7   7 70.5731 2.09257  -2
   1  -3   7 70.5731 2.09257   1
   2   7   7 10.9429 1.48232  -2
   2  -3   7 10.9429 1.48232   1
   3   8   7 216.948 6.93313  -2
   3  -3   7 216.948 6.93313   1
   4   8   7 14.0651 2.50325  -2
   4  -3   7 14.0651 2.50325   1
   5  -3   7 22.8602 1.73018   1
   6   9   7 148.504 4.24015  -2
   6  -3   7 148.504 4.24015   1
   7  -3   7 9.82601 1.89470   1
   8  10   7 29.1901 3.54455  -2
   8  -3   7 29.1901 3.54455   1
   9  -3   7 100.557 4.13838   1
  10  11   7 307.910 8.45549  -2
  10  -3   7 307.910 8.45549   1
  11  -3   7 72.5369 6.39516   1
  12  12   7 15.9474 10.6353  -2
  12  -3   7 15.9474 10.6353   1
 -10   1   7 70.6827 7.05872  -2
 -10  -2   7 70.6827 7.05872   1
  -9   1   7 109.995 6.21127  -2
  -9  -2   7 109.995 6.21127   1
  -8  -2   7 70.0992 3.48392   1
  -7   2   7 64.7033 4.09578  -2
  -7  -2   7 64.7033 4.09578   1
  -6  -2   7 88.1297 3.44053   1
  -5   3   7 313.064 6.29594  -2
  -5  -2   7 313.064 6.29594   1
  -4  -2   7 148.841 3.60513   1
  -3   4   7 258.364 4.14252  -2
  -3  -2   7 258.364 4.14252   1
  -2  -2   7 112.100 1.86196   1
  -1   5   7 97.3691 1.71996  -2
  -1  -2   7 97.3691 1.71996   1
   0  -2   7 67.4689 1.20594   1
   1   6   7 260.165 4.80688  -2
   1  -2   7 260.165 4.80688   1
   2   6   7 204.462 3.28504  -2
   2  -2   7 204.462 3.28504   1
   3   7   7 14.1630 3.26587  -2
   3  -2   7 14.1630 3.26587   1
   4   7   7 0.59745 1.95581  -2
   4  -2   7 0.59745 1.95581   1
   5  -2   7 -0.2690 1.00286   1
   6   8   7 19.2770 2.49553  -2
   6  -2   7 19.2770 2.49553   1
   7  -2   7 6.21642 1.64106   1
   8   9   7 137.741 4.51792  -2
   8  -2   7 137.741 4.51792   1
   9  -2   7 142.838 4.82315   1
  10  10   7 117.240 5.83287  -2
  10  -2   7 117.240 5.83287   1
  11  -2   7 50.7782 5.35446   1
  12  11   7 37.2949 9.99459  -2
  12  -2   7 37.2949 9.99459   1
  13  11   7 47.0077 11.7629  -2
  13  -2   7 47.0077 11.7629   1
 -10   0   7 13.6565 6.61962  -2
 -10  -1   7 13.6565 6.61962   1
  -9   0   7 20.3421 5.50260  -2
  -9  -1   7 20.3421 5.50260   1
  -8  -1   7 0.78318 2.07660   1
  -7   1   7 3.95931 3.49078  -2
  -7  -1   7 3.95931 3.49078   1
  -6  -1   7 111.289 3.69754   1
  -5   2   7 389.071 7.36808  -2
  -5  -1   7 389.071 7.36808   1
  -4  -1   7 120.801 3.17216   1
  -3   3   7 13.2787 1.48992  -2
  -3  -1   7 13.2787 1.48992   1
  -2  -1   7 22.0731 0.81357   1
  -1   4   7 436.171 5.88211  -2
  -1  -1   7 436.171 5.88211   1
   0  -1   7 109.278 1.93343   1
   1   5   7 242.605 5.90343  -2
   1  -1   7 242.605 5.90343   1
   2   5   7 216.092 5.56318  -2
   2  -1   7 216.092 5.56318   1
   3  -1   7 19.3931 0.71336   1
   4   6   7 63.3249 1.58421  -2
   4  -1   7 63.3249 1.58421   1
   5  -1   7 96.7334 2.01466   1
   6   7   7 166.525 3.56025  -2
   6  -1   7 166.525 3.56025   1
   7  -1   7 26.7803 1.65749   1
   8   8   7 12.5092 2.87833  -2
   8  -1   7 12.5092 2.87833   1
   9  -1   7 50.6025 2.48975   1
  10   9   7 5.09391 4.48863  -2
  10  -1   7 5.09391 4.48863   1
  11  -1   7 -1.2090 2.77771   1
  12  10   7 51.6074 9.55991  -2
  12  -1   7 51.6074 9.55991   1
  13  10   7 10.3257 10.7821  -2
  13  -1   7 10.3257 10.7821   1
 -10  -1   7 9.22792 6.56691  -2
 -10   0   7 9.22792 6.56691   1
  -9  -1   7 18.9277 5.64364  -2
  -9   0   7 18.9277 5.64364   1
  -8   0   7 -0.4666 2.14525   1
  -7   0   7 3.74944 3.51660  -2
  -7   0   7 3.74944 3.51660   1
  -6   0   7 5.10125 1.59611   1
  -5   1   7 253.706 5.36149  -2
  -5   0   7 253.706 5.36149   1
  -4   0   7 43.3382 1.89598   1
  -3   2   7 5.13159 1.39794  -2
  -3   0   7 5.13159 1.39794   1
  -2   0   7 61.1777 1.17330   1
  -1   3   7 805.129 13.7847  -2
  -1   0   7 805.129 13.7847   1
   0   0   7 94.1741 4.56676   1
   1   0   7 32.5715 2.87093   1
   2   4   7 1797.83 39.8867  -2
   2   0   7 1797.83 39.8867   1
   3   0   7 511.460 5.42916   1
   4   5   7 182.398 2.46937  -2
   4   0   7 182.398 2.46937   1
   5   0   7 93.0986 1.67228   1
   6   6   7 309.398 5.17035  -2
   6   0   7 309.398 5.17035   1
   7   0   7 57.5282 2.16699   1
   8   7   7 50.5779 2.64014  -2
   8   0   7 50.5779 2.64014   1
   9   0   7 62.3953 2.53338   1
  10   8   7 168.213 4.83705  -2
  10   0   7 168.213 4.83705   1
  11   0   7 45.7142 3.39564   1
  12   9   7 1.73983 8.50829  -2
  12   0   7 1.73983 8.50829   1
  13   9   7 -7.7475 10.2165  -2
  13   0   7 -7.7475 10.2165   1
 -10  -2   7 69.4196 6.97523  -2
 -10   1   7 69.4196 6.97523   1
  -9  -2   7 109.969 6.29857  -2
  -9   1   7 109.969 6.29857   1
  -8  -1   7 25.3231 7.02363  -2
  -8   1   7 25.3231 7.02363   1
  -7  -1   7 1.45372 3.62366  -2
  -7   1   7 1.45372 3.62366   1
  -6   1   7 59.6943 2.76679   1
  -5   0   7 238.569 5.16621  -2
  -5   1   7 238.569 5.16621   1
  -4   1   7 8.29005 1.25575   1
  -3   1   7 1.97416 1.40549  -2
  -3   1   7 1.97416 1.40549   1
  -2   1   7 0.78190 0.52026   1
  -1   2   7 435.647 6.20025  -2
  -1   1   7 435.647 6.20025   1
   0   1   7 138.588 5.36326   1
   1   1   7 6.61552 1.99219   1
   2   1   7 60.2360 3.94991   1
   3   1   7 364.363 5.28895   1
   4   4   7 310.900 3.61031  -2
   4   1   7 310.900 3.61031   1
   5   1   7 60.9406 1.35522   1
   6   5   7 64.8034 1.86900  -2
   6   1   7 64.8034 1.86900   1
   7   1   7 16.3184 1.34808   1
   8   6   7 334.060 5.83484  -2
   8   1   7 334.060 5.83484   1
   9   1   7 247.376 4.93687   1
  10   7   7 227.172 5.38235  -2
  10   1   7 227.172 5.38235   1
  11   1   7 48.6604 3.35932   1
  12   8   7 13.8557 8.32078  -2
  12   1   7 13.8557 8.32078   1
  13   8   7 17.9508 9.93823  -2
  13   1   7 17.9508 9.93823   1
  14   9   7 38.3121 12.4514  -2
  14   1   7 38.3121 12.4514   1
 -10  -3   7 44.9134 10.0161  -2
 -10   2   7 44.9134 10.0161   1
  -9  -3   7 81.0208 6.42917  -2
  -9   2   7 81.0208 6.42917   1
  -8   2   7 75.0028 3.70689   1
  -7  -2   7 61.0884 4.17512  -2
  -7   2   7 61.0884 4.17512   1
  -6   2   7 83.1469 3.48696   1
  -5  -1   7 386.691 7.48463  -2
  -5   2   7 386.691 7.48463   1
  -4   2   7 94.0171 2.90891   1
  -3   0   7 4.59934 1.38255  -2
  -3   2   7 4.59934 1.38255   1
  -2   0   7 73.8453 3.80425  -2
  -2   2   7 73.8453 3.80425   1
  -1   1   7 450.219 5.53955  -2
  -1   2   7 450.219 5.53955   1
   0   2   7 101.364 1.82891   1
   1   2   7 4.77979 1.92083   1
   2   2   7 10.8450 1.63267  -2
   2   2   7 10.8450 1.63267   1
   3   2   7 10.9206 0.46040   1
   4   3   7 111.523 1.73342  -2
   4   2   7 111.523 1.73342   1
   5   2   7 22.6168 0.85056   1
   6   4   7 11.7583 1.41476  -2
   6   2   7 11.7583 1.41476   1
   7   2   7 3.82475 1.12738   1
   8   5   7 441.191 7.13296  -2
   8   2   7 441.191 7.13296   1
   9   2   7 280.165 5.28998   1
  10   6   7 41.1112 3.49523  -2
  10   2   7 41.1112 3.49523   1
  11   2   7 63.2738 2.85665   1
  12   7   7 172.314 10.4457  -2
  12   2   7 172.314 10.4457   1
  13   7   7 113.000 11.1710  -2
  13   2   7 113.000 11.1710   1
  14   8   7 65.0770 12.3415  -2
  14   2   7 65.0770 12.3415   1
 -10  -4   7 28.9373 10.6475  -2
 -10   3   7 28.9373 10.6475   1
  -9  -4   7 5.86884 6.03229  -2
  -9   3   7 5.86884 6.03229   1
  -8   3   7 28.7635 2.98379   1
  -7  -3   7 124.331 5.03358  -2
  -7   3   7 124.331 5.03358   1
  -6   3   7 103.783 3.88860   1
  -5  -2   7 330.938 6.78764  -2
  -5   3   7 330.938 6.78764   1
  -4   3   7 177.308 4.21955   1
  -3  -1   7 12.9184 1.77508  -2
  -3   3   7 12.9184 1.77508   1
  -2   3   7 32.2465 0.91355   1
  -1   0   7 781.217 8.23496  -2
  -1   3   7 781.217 8.23496   1
   0   3   7 71.2995 1.17271   1
   1   1   7 7.60256 1.36856  -2
   1   3   7 7.60256 1.36856   1
   2   1   7 57.6441 2.82344  -2
   2   3   7 57.6441 2.82344   1
   3   3   7 61.9044 1.09354   1
   4   2   7 113.107 1.83084  -2
   4   3   7 113.107 1.83084   1
   5   3   7 3.36076 0.62535   1
   6   3   7 -0.5187 1.32578  -2
   6   3   7 -0.5187 1.32578   1
   7   3   7 17.2457 1.37020   1
   8   4   7 212.190 4.27776  -2
   8   3   7 212.190 4.27776   1
   9   3   7 188.545 4.14284   1
  10   5   7 13.7320 3.25296  -2
  10   3   7 13.7320 3.25296   1
  11   5   7 44.2743 3.74245  -2
  11   3   7 44.2743 3.74245   1
  12   6   7 210.534 5.69297  -2
  12   3   7 210.534 5.69297   1
  13   6   7 148.343 5.65949  -2
  13   3   7 148.343 5.65949   1
  14   7   7 62.4863 5.58171  -2
  14   3   7 62.4863 5.58171   1
  -9  -5   7 2.03057 8.62946  -2
  -9   4   7 2.03057 8.62946   1
  -8   4   7 16.8937 2.89430   1
  -7  -4   7 168.582 5.92085  -2
  -7   4   7 168.582 5.92085   1
  -6   4   7 37.5288 2.71737   1
  -5  -3   7 43.9817 2.95146  -2
  -5   4   7 43.9817 2.95146   1
  -4   4   7 28.4046 1.63691   1
  -3  -2   7 255.212 4.50282  -2
  -3   4   7 255.212 4.50282   1
  -2   4   7 102.348 2.04078   1
  -1  -1   7 432.228 5.37376  -2
  -1   4   7 432.228 5.37376   1
   0   4   7 103.714 1.74473   1
   1   0   7 86.3441 2.53671  -2
   1   4   7 86.3441 2.53671   1
   2   0   7 1980.39 25.3624  -2
   2   4   7 1980.39 25.3624   1
   3   4   7 716.095 8.21792   1
   4   1   7 323.518 4.16789  -2
   4   4   7 323.518 4.16789   1
   5   4   7 33.5773 1.10778   1
   6   2   7 14.0503 1.62650  -2
   6   4   7 14.0503 1.62650   1
   7   4   7 27.9739 1.80570   1
   8   3   7 216.879 4.37738  -2
   8   4   7 216.879 4.37738   1
   9   4   7 60.3420 1.61050   1
  10   4   7 1.51786 1.96273  -2
  10   4   7 1.51786 1.96273   1
  11   4   7 0.02339 3.63153  -2
  11   4   7 0.02339 3.63153   1
  12   5   7 17.9200 3.83147  -2
  12   4   7 17.9200 3.83147   1
  13   5   7 16.9306 4.53422  -2
  13   4   7 16.9306 4.53422   1
  14   6   7 12.8486 5.29736  -2
  14   4   7 12.8486 5.29736   1
  -9  -6   7 0.79249 9.15632  -2
  -9   5   7 0.79249 9.15632   1
  -8   5   7 2.95496 2.32958   1
  -7  -5   7 8.73637 4.44256  -2
  -7   5   7 8.73637 4.44256   1
  -6   5   7 1.67153 1.72162   1
  -5  -4   7 19.3539 2.35850  -2
  -5   5   7 19.3539 2.35850   1
  -4   5   7 18.6636 1.57654   1
  -3  -3   7 234.826 5.35078  -2
  -3   5   7 234.826 5.35078   1
  -2   5   7 112.919 3.19030   1
  -1  -2   7 100.333 2.57950  -2
  -1   5   7 100.333 2.57950   1
   0   5   7 96.2171 1.84370   1
   1  -1   7 310.040 5.90008  -2
   1   5   7 310.040 5.90008   1
   2  -1   7 230.701 3.85848  -2
   2   5   7 230.701 3.85848   1
   3   5   7 136.421 2.17208   1
   4   0   7 183.657 2.90599  -2
   4   5   7 183.657 2.90599   1
   5   5   7 110.911 2.09772   1
   6   1   7 65.7960 2.68215  -2
   6   5   7 65.7960 2.68215   1
   7   5   7 4.96703 1.39868   1
   8   2   7 453.079 8.68758  -2
   8   5   7 453.079 8.68758   1
   9   5   7 264.856 4.32287   1
  10   3   7 16.6979 2.30718  -2
  10   5   7 16.6979 2.30718   1
  11   3   7 36.3348 4.10334  -2
  11   5   7 36.3348 4.10334   1
  12   4   7 30.8643 3.99645  -2
  12   5   7 30.8643 3.99645   1
  13   4   7 12.0403 4.58531  -2
  13   5   7 12.0403 4.58531   1
  14   5   7 -3.4876 5.22084  -2
  14   5   7 -3.4876 5.22084   1
  -8   6   7 48.9327 3.99732   1
  -7  -6   7 123.041 6.07751  -2
  -7   6   7 123.041 6.07751   1
  -6   6   7 37.6927 3.07551   1
  -5  -5   7 104.343 4.25585  -2
  -5   6   7 104.343 4.25585   1
  -4   6   7 29.0488 2.37316   1
  -3  -4   7 25.7241 2.97567  -2
  -3   6   7 25.7241 2.97567   1
  -2   6   7 2.34387 1.40005   1
  -1  -3   7 78.4754 4.78382  -2
  -1   6   7 78.4754 4.78382   1
   0   6   7 1.72187 0.92395   1
   1  -2   7 251.186 4.28435  -2
   1   6   7 251.186 4.28435   1
   2  -2   7 200.017 4.56225  -2
   2   6   7 200.017 4.56225   1
   3   6   7 30.5076 1.14556   1
   4  -1   7 61.5710 2.28118  -2
   4   6   7 61.5710 2.28118   1
   5   6   7 96.5991 2.46436   1
   6   0   7 314.365 6.28966  -2
   6   6   7 314.365 6.28966   1
   7   6   7 35.7107 2.10611   1
   8   1   7 339.451 5.12812  -2
   8   6   7 339.451 5.12812   1
   9   6   7 271.218 4.46879   1
  10   2   7 42.4439 2.67795  -2
  10   6   7 42.4439 2.67795   1
  11   2   7 101.995 5.05813  -2
  11   6   7 101.995 5.05813   1
  12   3   7 203.949 5.90748  -2
  12   6   7 203.949 5.90748   1
  13   3   7 147.757 5.93589  -2
  13   6   7 147.757 5.93589   1
  14   4   7 8.62131 5.70141  -2
  14   6   7 8.62131 5.70141   1
  -8  -7   7 116.992 11.9846  -2
  -8   7   7 116.992 11.9846   1
  -7  -7   7 233.464 11.0309  -2
  -7   7   7 233.464 11.0309   1
  -6   7   7 70.4053 3.93497   1
  -5  -6   7 18.0714 3.54499  -2
  -5   7   7 18.0714 3.54499   1
  -4   7   7 49.0403 2.96177   1
  -3  -5   7 135.979 6.54015  -2
  -3   7   7 135.979 6.54015   1
  -2   7   7 42.1164 2.39577   1
  -1  -4   7 246.398 5.70890  -2
  -1   7   7 246.398 5.70890   1
   0  -4   7 2.42052 4.83930  -2
   0   7   7 2.42052 4.83930   1
   1  -3   7 66.9829 3.34157  -2
   1   7   7 66.9829 3.34157   1
   2  -3   7 9.79737 2.86547  -2
   2   7   7 9.79737 2.86547   1
   3   7   7 9.63579 1.39572   1
   4  -2   7 1.14893 2.18745  -2
   4   7   7 1.14893 2.18745   1
   5   7   7 54.2308 2.33238   1
   6  -1   7 167.856 4.38202  -2
   6   7   7 167.856 4.38202   1
   7   7   7 100.773 2.16684   1
   8   0   7 57.1541 2.04764  -2
   8   7   7 57.1541 2.04764   1
   9   7   7 109.292 2.76546   1
  10   1   7 225.073 4.54495  -2
  10   7   7 225.073 4.54495   1
  11   1   7 115.746 5.63953  -2
  11   7   7 115.746 5.63953   1
  12   2   7 168.661 5.67396  -2
  12   7   7 168.661 5.67396   1
  13   2   7 98.5751 5.59951  -2
  13   7   7 98.5751 5.59951   1
  14   3   7 54.9098 6.31987  -2
  14   7   7 54.9098 6.31987   1
  -7  -8   7 101.427 9.68087  -2
  -7   8   7 101.427 9.68087   1
  -6   8   7 43.0834 3.90583   1
  -5  -7   7 43.0144 4.36686  -2
  -5   8   7 43.0144 4.36686   1
  -4   8   7 50.3642 3.19880   1
  -3  -6   7 369.925 8.14502  -2
  -3   8   7 369.925 8.14502   1
  -2   8   7 92.1073 3.81327   1
  -1  -5   7 26.7236 3.69570  -2
  -1   8   7 26.7236 3.69570   1
   0  -5   7 63.7368 6.22217  -2
   0   8   7 63.7368 6.22217   1
   1  -4   7 166.378 5.01060  -2
   1   8   7 166.378 5.01060   1
   2  -4   7 835.293 14.4913  -2
   2   8   7 835.293 14.4913   1
   3  -3   7 228.891 8.12412  -2
   3   8   7 228.891 8.12412   1
   4  -3   7 17.7464 2.70390  -2
   4   8   7 17.7464 2.70390   1
   5   8   7 5.46215 1.58179   1
   6  -2   7 15.7829 1.50061  -2
   6   8   7 15.7829 1.50061   1
   7   8   7 3.84863 1.00002   1
   8  -1   7 11.4557 1.93988  -2
   8   8   7 11.4557 1.93988   1
   9   8   7 -0.5890 1.20370   1
  10   0   7 166.608 4.80718  -2
  10   8   7 166.608 4.80718   1
  11   0   7 84.7582 4.87738  -2
  11   8   7 84.7582 4.87738   1
  12   1   7 9.31902 4.46993  -2
  12   8   7 9.31902 4.46993   1
  13   1   7 24.4239 5.31193  -2
  13   8   7 24.4239 5.31193   1
  14   2   7 52.2211 6.36507  -2
  14   8   7 52.2211 6.36507   1
  -7  -9   7 6.49973 9.85175  -2
  -7   9   7 6.49973 9.85175   1
  -6   9   7 4.54747 4.65166   1
  -5  -8   7 25.1457 6.54555  -2
  -5   9   7 25.1457 6.54555   1
  -4   9   7 23.5322 2.94193   1
  -3  -7   7 162.592 5.74962  -2
  -3   9   7 162.592 5.74962   1
  -2   9   7 95.5198 4.21951   1
  -1  -6   7 43.7548 4.24944  -2
  -1   9   7 43.7548 4.24944   1
   0  -6   7 108.754 5.23359  -2
   0   9   7 108.754 5.23359   1
   1  -5   7 674.012 12.4796  -2
   1   9   7 674.012 12.4796   1
   2  -5   7 457.388 9.19619  -2
   2   9   7 457.388 9.19619   1
   3  -4   7 190.082 5.73199  -2
   3   9   7 190.082 5.73199   1
   4  -4   7 43.9635 1.93337  -2
   4   9   7 43.9635 1.93337   1
   5   9   7 93.6150 2.32982   1
   6  -3   7 142.097 3.07385  -2
   6   9   7 142.097 3.07385   1
   7   9   7 -0.9779 1.07309   1
   8  -2   7 140.015 3.24458  -2
   8   9   7 140.015 3.24458   1
   9   9   7 164.047 3.74809   1
  10  -1   7 6.95023 3.51275  -2
  10   9   7 6.95023 3.51275   1
  11  -1   7 7.02019 5.56730  -2
  11   9   7 7.02019 5.56730   1
  12   0   7 6.83386 4.88264  -2
  12   9   7 6.83386 4.88264   1
  13   0   7 0.41338 5.54674  -2
  13   9   7 0.41338 5.54674   1
  14   1   7 42.7110 6.66124  -2
  14   9   7 42.7110 6.66124   1
  -6  10   7 4.94792 5.07628   1
  -5  -9   7 3.86520 6.99964  -2
  -5  10   7 3.86520 6.99964   1
  -4  10   7 -2.0914 3.98122   1
  -3  -8   7 1.06232 4.37686  -2
  -3  10   7 1.06232 4.37686   1
  -2  10   7 4.75622 2.51238   1
  -1  -7   7 22.6770 4.71772  -2
  -1  10   7 22.6770 4.71772   1
   0  -7   7 56.2238 2.80246  -2
   0  10   7 56.2238 2.80246   1
   1  -6   7 154.475 3.39207  -2
   1  10   7 154.475 3.39207   1
   2  -6   7 53.8488 2.66818  -2
   2  10   7 53.8488 2.66818   1
   3  -5   7 33.1007 2.48372  -2
   3  10   7 33.1007 2.48372   1
   4  -5   7 39.0815 2.40026  -2
   4  10   7 39.0815 2.40026   1
   5  10   7 99.3645 2.72151   1
   6  -4   7 408.563 6.34143  -2
   6  10   7 408.563 6.34143   1
   7  10   7 69.9352 2.42741   1
   8  -3   7 32.1431 2.18858  -2
   8  10   7 32.1431 2.18858   1
   9  10   7 73.2284 2.98276   1
  10  -2   7 123.036 4.74908  -2
  10  10   7 123.036 4.74908   1
  11  -2   7 89.7871 5.76091  -2
  11  10   7 89.7871 5.76091   1
  12  -1   7 37.7603 5.41790  -2
  12  10   7 37.7603 5.41790   1
  13  -1   7 25.6835 6.12058  -2
  13  10   7 25.6835 6.12058   1
  -5 -10   7 -3.4326 7.93155  -2
  -5  11   7 -3.4326 7.93155   1
  -4  11   7 -2.4447 4.63372   1
  -3  -9   7 34.8369 7.77826  -2
  -3  11   7 34.8369 7.77826   1
  -2  11   7 3.73583 3.94672   1
  -1  -8   7 -3.8166 2.70321  -2
  -1  11   7 -3.8166 2.70321   1
   0  -8   7 53.4142 3.54786  -2
   0  11   7 53.4142 3.54786   1
   1  -7   7 38.1598 3.08267  -2
   1  11   7 38.1598 3.08267   1
   2  -7   7 2.78673 2.97989  -2
   2  11   7 2.78673 2.97989   1
   3  -6   7 69.3744 3.48334  -2
   3  11   7 69.3744 3.48334   1
   4  -6   7 135.982 3.59934  -2
   4  11   7 135.982 3.59934   1
   5  11   7 60.4837 2.40305   1
   6  -5   7 118.712 3.27091  -2
   6  11   7 118.712 3.27091   1
   7  11   7 93.9141 3.38202   1
   8  -4   7 42.7292 3.05072  -2
   8  11   7 42.7292 3.05072   1
   9  11   7 79.9926 3.56560   1
  10  -3   7 295.575 7.03236  -2
  10  11   7 295.575 7.03236   1
  11  -3   7 144.796 6.58506  -2
  11  11   7 144.796 6.58506   1
  12  -2   7 49.9273 5.75927  -2
  12  11   7 49.9273 5.75927   1
  13  -2   7 41.6338 7.44558  -2
  13  11   7 41.6338 7.44558   1
  -4  12   7 41.1881 6.48866   1
  -3 -10   7 134.031 10.2959  -2
  -3  12   7 134.031 10.2959   1
  -2  12   7 34.4112 5.39518   1
  -1  -9   7 -2.4714 3.44399  -2
  -1  12   7 -2.4714 3.44399   1
   0  -9   7 7.12996 4.31675  -2
   0  12   7 7.12996 4.31675   1
   1  -8   7 64.3102 4.25562  -2
   1  12   7 64.3102 4.25562   1
   2  -8   7 244.734 6.24592  -2
   2  12   7 244.734 6.24592   1
   3  -7   7 8.02892 4.14925  -2
   3  12   7 8.02892 4.14925   1
   4  -7   7 52.9709 3.79403  -2
   4  12   7 52.9709 3.79403   1
   5  12   7 1.42936 1.75924   1
   6  -6   7 -0.8617 2.80485  -2
   6  12   7 -0.8617 2.80485   1
   7  12   7 43.2380 2.63424   1
   8  -5   7 37.4748 3.34420  -2
   8  12   7 37.4748 3.34420   1
   9  12   7 7.37098 2.19811   1
  10  -4   7 160.759 5.88067  -2
  10  12   7 160.759 5.88067   1
  11  -4   7 67.4298 6.33312  -2
  11  12   7 67.4298 6.33312   1
  12  -3   7 14.1021 5.90034  -2
  12  12   7 14.1021 5.90034   1
  -3 -11   7 37.9615 10.1447  -2
  -3  13   7 37.9615 10.1447   1
  -2 -11   7 33.7299 13.4079  -2
  -2  13   7 33.7299 13.4079   1
  -1 -10   7 90.3140 4.57414  -2
  -1  13   7 90.3140 4.57414   1
   0 -10   7 142.413 5.90259  -2
   0  13   7 142.413 5.90259   1
   1  -9   7 197.837 6.07847  -2
   1  13   7 197.837 6.07847   1
   2  -9   7 94.2392 5.09914  -2
   2  13   7 94.2392 5.09914   1
   3  -8   7 28.2525 4.83764  -2
   3  13   7 28.2525 4.83764   1
   4  -8   7 6.48395 3.95970  -2
   4  13   7 6.48395 3.95970   1
   5  13   7 16.7204 2.24083   1
   6  -7   7 30.3786 3.53233  -2
   6  13   7 30.3786 3.53233   1
   7  13   7 9.96392 2.25476   1
   8  -6   7 1.82692 3.39305  -2
   8  13   7 1.82692 3.39305   1
   9  13   7 15.4850 2.56765   1
  10  -5   7 5.69815 4.98468  -2
  10  13   7 5.69815 4.98468   1
  11  -5   7 18.4114 7.54291  -2
  11  13   7 18.4114 7.54291   1
  -1 -11   7 106.629 12.4341  -2
  -1  14   7 106.629 12.4341   1
   0 -11   7 89.5828 6.18996  -2
   0  14   7 89.5828 6.18996   1
   1 -10   7 77.0707 5.38305  -2
   1  14   7 77.0707 5.38305   1
   2 -10   7 20.5119 5.13870  -2
   2  14   7 20.5119 5.13870   1
   3  -9   7 38.2024 5.61865  -2
   3  14   7 38.2024 5.61865   1
   4  -9   7 121.612 5.42464  -2
   4  14   7 121.612 5.42464   1
   5  14   7 34.7126 2.86270   1
   6  -8   7 96.8754 4.60899  -2
   6  14   7 96.8754 4.60899   1
   7  14   7 28.8257 2.96260   1
   8  -7   7 2.90643 3.92399  -2
   8  14   7 2.90643 3.92399   1
   9  14   7 7.70364 2.77924   1
  10  -6   7 41.6024 5.71374  -2
  10  14   7 41.6024 5.71374   1
   1 -11   7 -1.0915 5.61823  -2
   1  15   7 -1.0915 5.61823   1
   2 -11   7 0.79347 5.77279  -2
   2  15   7 0.79347 5.77279   1
   3 -10   7 78.2610 6.37385  -2
   3  15   7 78.2610 6.37385   1
   4 -10   7 165.761 6.41419  -2
   4  15   7 165.761 6.41419   1
   5  15   7 32.7804 3.12528   1
   6  -9   7 22.3805 4.33464  -2
   6  15   7 22.3805 4.33464   1
   7  15   7 53.8840 3.70157   1
   8  -8   7 88.4918 5.24718  -2
   8  15   7 88.4918 5.24718   1
  -3 -10   8 19.8221 3.19640   1
  -2  13   8 57.9416 5.99334  -2
  -2 -10   8 57.9416 5.99334   1
  -1  13   8 -5.8862 6.45475  -2
  -1 -10   8 -5.8862 6.45475   1
   0  14   8 25.4557 6.57768  -2
   0 -10   8 25.4557 6.57768   1
   1  14   8 11.3427 6.53722  -2
   1 -10   8 11.3427 6.53722   1
   2  15   8 26.4151 7.66065  -2
   2 -10   8 26.4151 7.66065   1
   3  15   8 1.76414 6.54982  -2
   3 -10   8 1.76414 6.54982   1
  -5  -9   8 27.2830 3.25912   1
  -4  11   8 91.4223 5.18694  -2
  -4  -9   8 91.4223 5.18694   1
  -3  -9   8 42.0665 3.28132   1
  -2  12   8 71.6658 5.34746  -2
  -2  -9   8 71.6658 5.34746   1
  -1  12   8 73.2179 6.11987  -2
  -1  -9   8 73.2179 6.11987   1
   0  13   8 1.61422 5.42636  -2
   0  -9   8 1.61422 5.42636   1
   1  13   8 -2.7509 5.49406  -2
   1  -9   8 -2.7509 5.49406   1
   2  14   8 35.8176 6.73565  -2
   2  -9   8 35.8176 6.73565   1
   3  14   8 28.0004 5.85939  -2
   3  -9   8 28.0004 5.85939   1
   4  -9   8 9.06335 3.15352   1
   5  15   8 13.6683 5.79376  -2
   5  -9   8 13.6683 5.79376   1
   6  -9   8 -3.3800 3.36515   1
  -6   9   8 8.94227 4.05250  -2
  -6  -8   8 8.94227 4.05250   1
  -5  -8   8 35.8261 3.08368   1
  -4  10   8 210.315 5.99094  -2
  -4  -8   8 210.315 5.99094   1
  -3  -8   8 61.2776 3.35362   1
  -2  11   8 20.5092 4.35998  -2
  -2  -8   8 20.5092 4.35998   1
  -1  11   8 128.349 8.65864  -2
  -1  -8   8 128.349 8.65864   1
   0  12   8 201.826 6.59882  -2
   0  -8   8 201.826 6.59882   1
   1  12   8 57.4799 5.21961  -2
   1  -8   8 57.4799 5.21961   1
   2  13   8 65.4389 6.03905  -2
   2  -8   8 65.4389 6.03905   1
   3  13   8 162.531 6.40033  -2
   3  -8   8 162.531 6.40033   1
   4  -8   8 15.6989 2.81236   1
   5  14   8 17.5407 5.04202  -2
   5  -8   8 17.5407 5.04202   1
   6  -8   8 18.3736 3.37390   1
   7  15   8 70.7209 5.91759  -2
   7  -8   8 70.7209 5.91759   1
  -7  -7   8 -0.3219 2.50816   1
  -6   8   8 0.51688 3.67513  -2
  -6  -7   8 0.51688 3.67513   1
  -5  -7   8 22.7377 2.60877   1
  -4   9   8 69.9319 3.91901  -2
  -4  -7   8 69.9319 3.91901   1
  -3  -7   8 18.9233 2.27273   1
  -2  10   8 14.2316 3.71358  -2
  -2  -7   8 14.2316 3.71358   1
  -1  10   8 15.6106 6.37104  -2
  -1  -7   8 15.6106 6.37104   1
   0  11   8 223.775 6.27809  -2
   0  -7   8 223.775 6.27809   1
   1  11   8 305.244 7.36508  -2
   1  -7   8 305.244 7.36508   1
   2  12   8 108.503 5.69781  -2
   2  -7   8 108.503 5.69781   1
   3  12   8 110.092 5.18057  -2
   3  -7   8 110.092 5.18057   1
   4  -7   8 66.7921 3.46729   1
   5  13   8 180.917 6.13507  -2
   5  -7   8 180.917 6.13507   1
   6  -7   8 28.7377 3.19055   1
   7  14   8 44.6771 4.99964  -2
   7  -7   8 44.6771 4.99964   1
   8  -7   8 62.1298 4.36419   1
  -8   6   8 95.6507 5.91307  -2
  -8  -6   8 95.6507 5.91307   1
  -7  -6   8 4.15337 2.46474   1
  -6   7   8 4.86071 3.36273  -2
  -6  -6   8 4.86071 3.36273   1
  -5  -6   8 -0.4911 1.86668   1
  -4   8   8 28.3015 3.23874  -2
  -4  -6   8 28.3015 3.23874   1
  -3  -6   8 14.6120 1.93483   1
  -2   9   8 0.51482 3.21208  -2
  -2  -6   8 0.51482 3.21208   1
  -1  -6   8 27.3007 2.07414   1
   0  10   8 109.412 4.44772  -2
   0  -6   8 109.412 4.44772   1
   1  10   8 61.6685 3.96925  -2
   1  -6   8 61.6685 3.96925   1
   2  11   8 35.7963 4.42593  -2
   2  -6   8 35.7963 4.42593   1
   3  11   8 5.92192 3.66982  -2
   3  -6   8 5.92192 3.66982   1
   4  -6   8 47.2204 2.80081   1
   5  12   8 217.997 6.12866  -2
   5  -6   8 217.997 6.12866   1
   6  -6   8 32.8901 2.84284   1
   7  13   8 15.4646 4.14444  -2
   7  -6   8 15.4646 4.14444   1
   8  -6   8 50.6441 3.80474   1
   9  14   8 89.8754 9.51152  -2
   9  -6   8 89.8754 9.51152   1
  -8   5   8 205.195 6.92967  -2
  -8  -5   8 205.195 6.92967   1
  -7  -5   8 27.9753 2.73227   1
  -6   6   8 7.39916 3.11333  -2
  -6  -5   8 7.39916 3.11333   1
  -5  -5   8 47.0830 2.62376   1
  -4   7   8 242.202 5.65112  -2
  -4  -5   8 242.202 5.65112   1
  -3  -5   8 27.7392 2.01812   1
  -2   8   8 11.1169 2.89878  -2
  -2  -5   8 11.1169 2.89878   1
  -1   8   8 17.9933 4.52173  -2
  -1  -5   8 17.9933 4.52173   1
   0   9   8 20.4061 3.13590  -2
   0  -5   8 20.4061 3.13590   1
   1   9   8 42.5011 3.35203  -2
   1  -5   8 42.5011 3.35203   1
   2  -5   8 6.39988 1.59300   1
   3  10   8 18.2677 3.28361  -2
   3  -5   8 18.2677 3.28361   1
   4  -5   8 61.2350 2.79509   1
   5  11   8 56.6213 3.70121  -2
   5  -5   8 56.6213 3.70121   1
   6  -5   8 9.38808 2.14958   1
   7  12   8 17.5012 3.55429  -2
   7  -5   8 17.5012 3.55429   1
   8  -5   8 54.0828 3.48183   1
   9  13   8 216.168 7.63405  -2
   9  -5   8 216.168 7.63405   1
  10  13   8 95.0964 11.1508  -2
  10  -5   8 95.0964 11.1508   1
  -9   4   8 35.1751 6.62571  -2
  -9  -4   8 35.1751 6.62571   1
  -8   4   8 57.7265 5.18506  -2
  -8  -4   8 57.7265 5.18506   1
  -7  -4   8 43.8666 2.97847   1
  -6   5   8 96.3434 4.01147  -2
  -6  -4   8 96.3434 4.01147   1
  -5  -4   8 116.053 3.81488   1
  -4   6   8 296.594 6.22788  -2
  -4  -4   8 296.594 6.22788   1
  -3  -4   8 70.7513 2.75374   1
  -2   7   8 12.4670 2.49051  -2
  -2  -4   8 12.4670 2.49051   1
  -1  -4   8 87.1638 2.22845   1
   0   8   8 475.417 8.53901  -2
   0  -4   8 475.417 8.53901   1
   1   8   8 139.973 3.17375  -2
   1  -4   8 139.973 3.17375   1
   2   9   8 0.99354 4.31234  -2
   2  -4   8 0.99354 4.31234   1
   3   9   8 52.1664 3.07579  -2
   3  -4   8 52.1664 3.07579   1
   4  -4   8 12.9829 1.60622   1
   5  10   8 24.4696 2.94260  -2
   5  -4   8 24.4696 2.94260   1
   6  -4   8 0.94839 1.73288   1
   7  11   8 3.54683 3.04342  -2
   7  -4   8 3.54683 3.04342   1
   8  -4   8 1.01640 2.21717   1
   9  12   8 149.097 6.28872  -2
   9  -4   8 149.097 6.28872   1
  10  -4   8 57.5249 4.05565   1
  11  13   8 6.54798 10.1103  -2
  11  -4   8 6.54798 10.1103   1
  -9   3   8 6.23885 6.34235  -2
  -9  -3   8 6.23885 6.34235   1
  -8   3   8 -0.5896 4.46770  -2
  -8  -3   8 -0.5896 4.46770   1
  -7  -3   8 7.32615 2.10226   1
  -6   4   8 121.533 4.26483  -2
  -6  -3   8 121.533 4.26483   1
  -5  -3   8 56.6439 2.62469   1
  -4   5   8 44.8043 2.72180  -2
  -4  -3   8 44.8043 2.72180   1
  -3  -3   8 80.6714 2.69158   1
  -2   6   8 264.946 4.30215  -2
  -2  -3   8 264.946 4.30215   1
  -1  -3   8 117.499 2.29396   1
   0   7   8 481.889 6.78372  -2
   0  -3   8 481.889 6.78372   1
   1   7   8 679.666 9.16399  -2
   1  -3   8 679.666 9.16399   1
   2   8   8 40.3800 3.82892  -2
   2  -3   8 40.3800 3.82892   1
   3   8   8 30.8300 2.02231  -2
   3  -3   8 30.8300 2.02231   1
   4  -3   8 135.987 3.45878   1
   5   9   8 439.811 8.20487  -2
   5  -3   8 439.811 8.20487   1
   6  -3   8 7.63285 1.65822   1
   7  10   8 17.1306 2.84225  -2
   7  -3   8 17.1306 2.84225   1
   8  -3   8 58.3757 3.12304   1
   9  11   8 -0.0327 4.46480  -2
   9  -3   8 -0.0327 4.46480   1
  10  -3   8 28.1809 3.17727   1
  11  12   8 -6.7281 9.05724  -2
  11  -3   8 -6.7281 9.05724   1
  12  12   8 16.8236 10.9587  -2
  12  -3   8 16.8236 10.9587   1
  -9   2   8 13.4757 6.26132  -2
  -9  -2   8 13.4757 6.26132   1
  -8   2   8 27.6931 4.67051  -2
  -8  -2   8 27.6931 4.67051   1
  -7  -2   8 0.60292 1.89366   1
  -6   3   8 38.2040 3.14320  -2
  -6  -2   8 38.2040 3.14320   1
  -5  -2   8 16.5436 1.75713   1
  -4   4   8 41.4006 2.57656  -2
  -4  -2   8 41.4006 2.57656   1
  -3  -2   8 2.97672 0.88833   1
  -2   5   8 336.327 4.97569  -2
  -2  -2   8 336.327 4.97569   1
  -1  -2   8 131.540 1.96697   1
   0   6   8 42.7857 1.58661  -2
   0  -2   8 42.7857 1.58661   1
   1   6   8 138.664 2.96922  -2
   1  -2   8 138.664 2.96922   1
   2   7   8 449.348 10.8828  -2
   2  -2   8 449.348 10.8828   1
   3   7   8 229.096 3.16608  -2
   3  -2   8 229.096 3.16608   1
   4  -2   8 169.816 2.79557   1
   5   8   8 365.283 6.86441  -2
   5  -2   8 365.283 6.86441   1
   6  -2   8 36.9149 1.84548   1
   7   9   8 8.39340 2.57170  -2
   7  -2   8 8.39340 2.57170   1
   8  -2   8 73.3475 3.21639   1
   9  10   8 222.512 6.47704  -2
   9  -2   8 222.512 6.47704   1
  10  -2   8 3.89528 2.53624   1
  11  11   8 5.25682 8.23735  -2
  11  -2   8 5.25682 8.23735   1
  12  11   8 19.2047 10.4012  -2
  12  -2   8 19.2047 10.4012   1
  -9   1   8 33.7216 6.36006  -2
  -9  -1   8 33.7216 6.36006   1
  -8   1   8 34.5955 4.59677  -2
  -8  -1   8 34.5955 4.59677   1
  -7  -1   8 18.5366 2.24312   1
  -6   2   8 23.0317 2.92897  -2
  -6  -1   8 23.0317 2.92897   1
  -5  -1   8 21.6714 1.78816   1
  -4   3   8 108.481 3.23305  -2
  -4  -1   8 108.481 3.23305   1
  -3  -1   8 8.28747 0.93260   1
  -2   4   8 119.037 2.07866  -2
  -2  -1   8 119.037 2.07866   1
  -1  -1   8 70.0257 1.21381   1
   0   5   8 2.19852 1.74872  -2
   0  -1   8 2.19852 1.74872   1
   1  -1   8 37.5833 3.47520   1
   2  -1   8 182.052 2.97828   1
   3   6   8 250.836 3.00803  -2
   3  -1   8 250.836 3.00803   1
   4  -1   8 29.5457 0.95937   1
   5   7   8 5.73352 1.52321  -2
   5  -1   8 5.73352 1.52321   1
   6  -1   8 171.789 3.53708   1
   7   8   8 252.778 5.48209  -2
   7  -1   8 252.778 5.48209   1
   8  -1   8 71.5126 2.61254   1
   9   9   8 475.820 9.68649  -2
   9  -1   8 475.820 9.68649   1
  10  -1   8 133.962 4.15535   1
  11  10   8 35.5595 5.86395  -2
  11  -1   8 35.5595 5.86395   1
  12  10   8 44.8026 9.63306  -2
  12  -1   8 44.8026 9.63306   1
  13  11   8 103.327 11.8480  -2
  13  -1   8 103.327 11.8480   1
  -9   0   8 24.6935 8.34955  -2
  -9   0   8 24.6935 8.34955   1
  -8   0   8 58.3923 4.97152  -2
  -8   0   8 58.3923 4.97152   1
  -7   0   8 92.9059 3.88612   1
  -6   1   8 297.507 6.48309  -2
  -6   0   8 297.507 6.48309   1
  -5   0   8 89.5884 3.11479   1
  -4   2   8 -1.0665 1.97962  -2
  -4   0   8 -1.0665 1.97962   1
  -3   0   8 0.77056 0.80366   1
  -2   3   8 48.2087 1.43506  -2
  -2   0   8 48.2087 1.43506   1
  -1   0   8 75.1351 1.57774   1
   0   0   8 102.497 5.12431   1
   1   0   8 0.33898 2.07362   1
   2   0   8 39.5509 3.46606   1
   3   5   8 8.07873 0.94251  -2
   3   0   8 8.07873 0.94251   1
   4   0   8 1.42563 0.53581   1
   5   6   8 49.6685 1.64530  -2
   5   0   8 49.6685 1.64530   1
   6   0   8 77.4363 2.28228   1
   7   7   8 384.565 6.33021  -2
   7   0   8 384.565 6.33021   1
   8   0   8 1.67628 1.38834   1
   9   8   8 116.571 3.94333  -2
   9   0   8 116.571 3.94333   1
  10   0   8 181.488 4.53219   1
  11   9   8 106.542 6.05763  -2
  11   0   8 106.542 6.05763   1
  12   9   8 73.0174 9.69930  -2
  12   0   8 73.0174 9.69930   1
  13  10   8 150.583 12.1051  -2
  13   0   8 150.583 12.1051   1
  -9  -1   8 27.8799 8.39327  -2
  -9   1   8 27.8799 8.39327   1
  -8  -1   8 35.4468 4.67452  -2
  -8   1   8 35.4468 4.67452   1
  -7   1   8 35.8875 2.61972   1
  -6   0   8 291.176 6.46225  -2
  -6   1   8 291.176 6.46225   1
  -5   1   8 114.409 3.50138   1
  -4   1   8 89.3070 3.01308  -2
  -4   1   8 89.3070 3.01308   1
  -3   1   8 203.062 3.05672   1
  -2   2   8 834.245 8.78942  -2
  -2   1   8 834.245 8.78942   1
  -1   1   8 250.842 2.83137   1
   0   1   8 37.7149 3.20959   1
   1   1   8 268.696 8.95075   1
   2   1   8 90.9438 4.74904   1
   3   4   8 17.1084 4.70018  -2
   3   1   8 17.1084 4.70018   1
   4   1   8 58.4284 1.12741   1
   5   5   8 131.834 2.09234  -2
   5   1   8 131.834 2.09234   1
   6   1   8 0.56608 0.79832   1
   7   6   8 95.2017 2.73279  -2
   7   1   8 95.2017 2.73279   1
   8   1   8 18.7511 1.59758   1
   9   7   8 9.61442 2.89028  -2
   9   1   8 9.61442 2.89028   1
  10   1   8 90.9469 3.28868   1
  11   8   8 110.248 4.85048  -2
  11   1   8 110.248 4.85048   1
  12   8   8 40.3737 8.50524  -2
  12   1   8 40.3737 8.50524   1
  13   9   8 68.9664 10.4161  -2
  13   1   8 68.9664 10.4161   1
  -9   2   8 5.46044 2.83630   1
  -8  -2   8 25.0762 4.72485  -2
  -8   2   8 25.0762 4.72485   1
  -7   2   8 2.55706 2.04121   1
  -6  -1   8 22.5337 3.05919  -2
  -6   2   8 22.5337 3.05919   1
  -5   2   8 74.7864 3.07379   1
  -4   0   8 0.65595 2.13540  -2
  -4   2   8 0.65595 2.13540   1
  -3   2   8 2.97402 0.81122   1
  -2   1   8 838.890 8.88305  -2
  -2   2   8 838.890 8.88305   1
  -1   2   8 214.948 2.57521   1
   0   2   8 1.06734 0.74559   1
   1   2   8 75.2391 4.53353   1
   2   2   8 674.701 18.7987   1
   3   3   8 619.060 11.0285  -2
   3   2   8 619.060 11.0285   1
   4   2   8 67.8846 1.20489   1
   5   4   8 16.7076 1.13431  -2
   5   2   8 16.7076 1.13431   1
   6   2   8 12.8953 0.95640   1
   7   5   8 14.7804 1.89265  -2
   7   2   8 14.7804 1.89265   1
   8   2   8 6.07342 1.35486   1
   9   6   8 82.8361 3.44748  -2
   9   2   8 82.8361 3.44748   1
  10   2   8 3.41096 1.70954   1
  11   7   8 42.8919 4.24563  -2
  11   2   8 42.8919 4.24563   1
  12   7   8 10.0546 8.18704  -2
  12   2   8 10.0546 8.18704   1
  13   8   8 -0.3391 9.47906  -2
  13   2   8 -0.3391 9.47906   1
  14   8   8 2.79320 10.2411  -2
  14   2   8 2.79320 10.2411   1
  -9   3   8 1.45290 2.92682   1
  -8  -3   8 2.62935 4.82136  -2
  -8   3   8 2.62935 4.82136   1
  -7   3   8 3.85150 2.17414   1
  -6  -2   8 35.3356 3.18752  -2
  -6   3   8 35.3356 3.18752   1
  -5   3   8 1.04591 1.52190   1
  -4  -1   8 118.105 3.66337  -2
  -4   3   8 118.105 3.66337   1
  -3   3   8 18.5203 1.32782   1
  -2   0   8 51.8029 1.81799  -2
  -2   3   8 51.8029 1.81799   1
  -1   3   8 135.476 1.93717   1
   0   1   8 177.396 3.45561  -2
   0   3   8 177.396 3.45561   1
   1   1   8 490.037 11.4070  -2
   1   3   8 490.037 11.4070   1
   2   3   8 543.313 7.62584   1
   3   2   8 632.571 7.57140  -2
   3   3   8 632.571 7.57140   1
   4   3   8 44.1905 1.05840   1
   5   3   8 1.66985 1.09985  -2
   5   3   8 1.66985 1.09985   1
   6   3   8 436.965 5.70949   1
   7   4   8 906.663 12.9404  -2
   7   3   8 906.663 12.9404   1
   8   3   8 12.2310 1.45892   1
   9   5   8 109.280 3.68384  -2
   9   3   8 109.280 3.68384   1
  10   3   8 145.248 3.89882   1
  11   6   8 29.9005 4.11963  -2
  11   3   8 29.9005 4.11963   1
  12   6   8 11.1199 8.26539  -2
  12   3   8 11.1199 8.26539   1
  13   7   8 42.0237 10.3071  -2
  13   3   8 42.0237 10.3071   1
  14   7   8 9.98623 10.8925  -2
  14   3   8 9.98623 10.8925   1
  -9  -4   8 39.2849 9.93380  -2
  -9   4   8 39.2849 9.93380   1
  -8  -4   8 57.5243 5.56505  -2
  -8   4   8 57.5243 5.56505   1
  -7   4   8 24.7373 2.78326   1
  -6  -3   8 118.280 4.48077  -2
  -6   4   8 118.280 4.48077   1
  -5   4   8 34.6879 1.95474   1
  -4  -2   8 43.1948 2.90091  -2
  -4   4   8 43.1948 2.90091   1
  -3   4   8 6.35721 1.18819   1
  -2  -1   8 123.098 2.98727  -2
  -2   4   8 123.098 2.98727   1
  -1   4   8 28.0381 1.00812   1
   0   0   8 137.058 3.23341  -2
   0   4   8 137.058 3.23341   1
   1   0   8 35.6442 2.09001  -2
   1   4   8 35.6442 2.09001   1
   2   4   8 0.08191 0.49472   1
   3   1   8 17.9581 1.19449  -2
   3   4   8 17.9581 1.19449   1
   4   4   8 98.3350 1.72529   1
   5   2   8 17.8778 1.31493  -2
   5   4   8 17.8778 1.31493   1
   6   4   8 170.670 2.87161   1
   7   3   8 864.072 12.3898  -2
   7   4   8 864.072 12.3898   1
   8   4   8 3.68045 1.32051   1
   9   4   8 123.657 3.82928  -2
   9   4   8 123.657 3.82928   1
  10   4   8 310.506 5.93496   1
  11   5   8 296.578 6.59810  -2
  11   4   8 296.578 6.59810   1
  12   5   8 123.585 9.82540  -2
  12   4   8 123.585 9.82540   1
  13   6   8 39.4384 9.85901  -2
  13   4   8 39.4384 9.85901   1
  14   6   8 24.6806 11.0770  -2
  14   4   8 24.6806 11.0770   1
  -8  -5   8 190.278 7.34193  -2
  -8   5   8 190.278 7.34193   1
  -7   5   8 31.7714 2.56687   1
  -6  -4   8 94.5755 3.60210  -2
  -6   5   8 94.5755 3.60210   1
  -5   5   8 74.5991 2.69425   1
  -4  -3   8 48.4013 3.31658  -2
  -4   5   8 48.4013 3.31658   1
  -3   5   8 41.0907 2.20099   1
  -2  -2   8 331.502 5.64623  -2
  -2   5   8 331.502 5.64623   1
  -1   5   8 111.195 2.44184   1
   0  -1   8 0.82834 2.32449  -2
   0   5   8 0.82834 2.32449   1
   1  -1   8 101.390 2.55851  -2
   1   5   8 101.390 2.55851   1
   2   5   8 78.7511 1.56782   1
   3   0   8 8.91488 1.37117  -2
   3   5   8 8.91488 1.37117   1
   4   5   8 10.3610 0.80024   1
   5   1   8 140.370 2.82163  -2
   5   5   8 140.370 2.82163   1
   6   5   8 -0.1007 1.09941   1
   7   2   8 17.7770 2.20325  -2
   7   5   8 17.7770 2.20325   1
   8   5   8 8.92497 1.67467   1
   9   3   8 112.343 3.78627  -2
   9   5   8 112.343 3.78627   1
  10   5   8 151.204 4.07960   1
  11   4   8 295.813 6.63293  -2
  11   5   8 295.813 6.63293   1
  12   4   8 131.321 7.00716  -2
  12   5   8 131.321 7.00716   1
  13   5   8 53.7143 10.0742  -2
  13   5   8 53.7143 10.0742   1
  14   5   8 12.2067 10.6669  -2
  14   5   8 12.2067 10.6669   1
  -8  -6   8 91.5879 9.69008  -2
  -8   6   8 91.5879 9.69008   1
  -7   6   8 10.8873 3.02408   1
  -6  -5   8 10.1029 3.93785  -2
  -6   6   8 10.1029 3.93785   1
  -5   6   8 103.458 4.33176   1
  -4  -4   8 306.510 6.87200  -2
  -4   6   8 306.510 6.87200   1
  -3   6   8 75.4372 3.29154   1
  -2  -3   8 247.393 5.66947  -2
  -2   6   8 247.393 5.66947   1
  -1   6   8 111.003 3.25481   1
   0  -2   8 50.0658 3.03402  -2
   0   6   8 50.0658 3.03402   1
   1  -2   8 139.381 3.87898  -2
   1   6   8 139.381 3.87898   1
   2   6   8 216.132 3.58413   1
   3  -1   8 257.514 4.27886  -2
   3   6   8 257.514 4.27886   1
   4   6   8 5.10798 0.89921   1
   5   0   8 45.8935 2.42184  -2
   5   6   8 45.8935 2.42184   1
   6   6   8 11.0827 1.44291   1
   7   1   8 97.1536 3.28486  -2
   7   6   8 97.1536 3.28486   1
   8   6   8 32.2176 2.21130   1
   9   2   8 80.3564 4.22188  -2
   9   6   8 80.3564 4.22188   1
  10   6   8 22.3873 2.51295   1
  11   3   8 28.8497 4.28862  -2
  11   6   8 28.8497 4.28862   1
  12   3   8 20.6153 3.16702  -2
  12   6   8 20.6153 3.16702   1
  13   4   8 55.6737 10.4051  -2
  13   6   8 55.6737 10.4051   1
  14   4   8 21.5697 11.2482  -2
  14   6   8 21.5697 11.2482   1
  -7   7   8 11.7104 3.32842   1
  -6  -6   8 1.53072 4.20584  -2
  -6   7   8 1.53072 4.20584   1
  -5   7   8 4.06399 1.93175   1
  -4  -5   8 236.911 8.83476  -2
  -4   7   8 236.911 8.83476   1
  -3   7   8 37.1432 2.54359   1
  -2  -4   8 10.9853 4.88278  -2
  -2   7   8 10.9853 4.88278   1
  -1   7   8 86.5701 3.24648   1
   0  -3   8 505.287 9.41099  -2
   0   7   8 505.287 9.41099   1
   1  -3   8 685.811 11.9982  -2
   1   7   8 685.811 11.9982   1
   2  -2   8 479.213 12.6454  -2
   2   7   8 479.213 12.6454   1
   3  -2   8 238.426 5.28371  -2
   3   7   8 238.426 5.28371   1
   4   7   8 112.542 3.21238   1
   5  -1   8 3.10205 2.13767  -2
   5   7   8 3.10205 2.13767   1
   6   7   8 133.101 3.73201   1
   7   0   8 389.791 7.65960  -2
   7   7   8 389.791 7.65960   1
   8   7   8 5.50297 1.77913   1
   9   1   8 13.9839 3.78425  -2
   9   7   8 13.9839 3.78425   1
  10   7   8 98.8187 4.11009   1
  11   2   8 33.7185 2.81092  -2
  11   7   8 33.7185 2.81092   1
  12   2   8 5.34576 3.53296  -2
  12   7   8 5.34576 3.53296   1
  13   3   8 26.4241 4.24801  -2
  13   7   8 26.4241 4.24801   1
  14   3   8 21.4079 11.1678  -2
  14   7   8 21.4079 11.1678   1
  -7   8   8 -0.0884 4.86013   1
  -6  -7   8 3.60430 6.48199  -2
  -6   8   8 3.60430 6.48199   1
  -5   8   8 1.33477 2.63377   1
  -4  -6   8 29.3130 4.11632  -2
  -4   8   8 29.3130 4.11632   1
  -3   8   8 37.0534 2.75838   1
  -2  -5   8 8.99169 3.84562  -2
  -2   8   8 8.99169 3.84562   1
  -1   8   8 9.34406 1.86407   1
   0  -4   8 456.261 8.99683  -2
   0   8   8 456.261 8.99683   1
   1  -4   8 145.017 4.75044  -2
   1   8   8 145.017 4.75044   1
   2  -3   8 37.0341 3.68378  -2
   2   8   8 37.0341 3.68378   1
   3  -3   8 28.6912 3.12301  -2
   3   8   8 28.6912 3.12301   1
   4   8   8 155.858 4.10107   1
   5  -2   8 356.603 7.16960  -2
   5   8   8 356.603 7.16960   1
   6   8   8 129.443 3.98379   1
   7  -1   8 256.508 5.92202  -2
   7   8   8 256.508 5.92202   1
   8   8   8 22.1931 2.23649   1
   9   0   8 119.566 2.77557  -2
   9   8   8 119.566 2.77557   1
  10   0   8 334.058 6.62234  -2
  10   8   8 334.058 6.62234   1
  11   1   8 107.313 4.06314  -2
  11   8   8 107.313 4.06314   1
  12   1   8 47.4478 4.26912  -2
  12   8   8 47.4478 4.26912   1
  13   2   8 5.87942 4.59797  -2
  13   8   8 5.87942 4.59797   1
  14   2   8 2.36151 4.78004  -2
  14   8   8 2.36151 4.78004   1
  -6  -8   8 6.98551 6.91141  -2
  -6   9   8 6.98551 6.91141   1
  -5   9   8 30.4532 3.47316   1
  -4  -7   8 71.8624 5.05637  -2
  -4   9   8 71.8624 5.05637   1
  -3   9   8 5.12497 2.40123   1
  -2  -6   8 1.27928 4.13345  -2
  -2   9   8 1.27928 4.13345   1
  -1  -6   8 42.4143 7.51037  -2
  -1   9   8 42.4143 7.51037   1
   0  -5   8 18.5277 4.03406  -2
   0   9   8 18.5277 4.03406   1
   1  -5   8 48.6423 4.34294  -2
   1   9   8 48.6423 4.34294   1
   2  -4   8 -4.4875 3.63393  -2
   2   9   8 -4.4875 3.63393   1
   3  -4   8 50.0224 3.80745  -2
   3   9   8 50.0224 3.80745   1
   4   9   8 117.518 3.92236   1
   5  -3   8 433.561 8.57409  -2
   5   9   8 433.561 8.57409   1
   6   9   8 6.13019 1.87331   1
   7  -2   8 3.72733 2.19509  -2
   7   9   8 3.72733 2.19509   1
   8   9   8 99.7657 4.24965   1
   9  -1   8 460.347 7.02391  -2
   9   9   8 460.347 7.02391   1
  10  -1   8 305.680 7.94446  -2
  10   9   8 305.680 7.94446   1
  11   0   8 105.657 4.40094  -2
  11   9   8 105.657 4.40094   1
  12   0   8 87.6352 5.02599  -2
  12   9   8 87.6352 5.02599   1
  13   1   8 76.8691 5.45237  -2
  13   9   8 76.8691 5.45237   1
  14   9   8 10.1674 6.07714   1
  -5  10   8 33.3209 5.40216   1
  -4  -8   8 228.740 10.5594  -2
  -4  10   8 228.740 10.5594   1
  -3  10   8 38.8352 3.39051   1
  -2  -7   8 9.39633 4.93688  -2
  -2  10   8 9.39633 4.93688   1
  -1  -7   8 25.8418 5.49054  -2
  -1  10   8 25.8418 5.49054   1
   0  -6   8 110.484 5.54692  -2
   0  10   8 110.484 5.54692   1
   1  -6   8 62.0742 5.01262  -2
   1  10   8 62.0742 5.01262   1
   2  -5   8 11.0268 4.52680  -2
   2  10   8 11.0268 4.52680   1
   3  -5   8 24.9072 4.05181  -2
   3  10   8 24.9072 4.05181   1
   4  10   8 12.8759 2.10277   1
   5  -4   8 29.8331 3.42440  -2
   5  10   8 29.8331 3.42440   1
   6  10   8 2.76642 2.05708   1
   7  -3   8 16.6003 1.56558  -2
   7  10   8 16.6003 1.56558   1
   8  10   8 92.8555 2.56312   1
   9  -2   8 211.613 4.49312  -2
   9  10   8 211.613 4.49312   1
  10  -2   8 17.8258 4.22081  -2
  10  10   8 17.8258 4.22081   1
  11  -1   8 27.4641 4.27614  -2
  11  10   8 27.4641 4.27614   1
  12  -1   8 54.5981 5.26729  -2
  12  10   8 54.5981 5.26729   1
  13   0   8 140.570 6.29954  -2
  13  10   8 140.570 6.29954   1
  -4  -9   8 81.0711 8.00386  -2
  -4  11   8 81.0711 8.00386   1
  -3  11   8 36.9298 5.31305   1
  -2  -8   8 14.1899 5.76399  -2
  -2  11   8 14.1899 5.76399   1
  -1  -8   8 112.795 7.11221  -2
  -1  11   8 112.795 7.11221   1
   0  -7   8 245.371 7.74688  -2
   0  11   8 245.371 7.74688   1
   1  -7   8 287.249 8.01053  -2
   1  11   8 287.249 8.01053   1
   2  -6   8 37.0444 5.49740  -2
   2  11   8 37.0444 5.49740   1
   3  -6   8 9.52312 4.48946  -2
   3  11   8 9.52312 4.48946   1
   4  11   8 40.3947 2.99040   1
   5  -5   8 48.0210 2.02725  -2
   5  11   8 48.0210 2.02725   1
   6  11   8 5.43581 1.22042   1
   7  -4   8 0.27335 1.89240  -2
   7  11   8 0.27335 1.89240   1
   8  11   8 27.4040 1.77624   1
   9  -3   8 5.21095 3.33404  -2
   9  11   8 5.21095 3.33404   1
  10  -3   8 39.9734 4.86739  -2
  10  11   8 39.9734 4.86739   1
  11  -2   8 4.25980 4.46947  -2
  11  11   8 4.25980 4.46947   1
  12  -2   8 28.1255 5.58095  -2
  12  11   8 28.1255 5.58095   1
  13  -1   8 103.963 6.64063  -2
  13  11   8 103.963 6.64063   1
  -3  12   8 43.4334 6.08539   1
  -2  -9   8 77.4006 9.48251  -2
  -2  12   8 77.4006 9.48251   1
  -1  -9   8 77.5355 11.1628  -2
  -1  12   8 77.5355 11.1628   1
   0  -8   8 190.794 11.0196  -2
   0  12   8 190.794 11.0196   1
   1  -8   8 51.6681 9.01800  -2
   1  12   8 51.6681 9.01800   1
   2  -7   8 109.361 6.99118  -2
   2  12   8 109.361 6.99118   1
   3  -7   8 109.159 6.00344  -2
   3  12   8 109.159 6.00344   1
   4  12   8 85.7534 2.53943   1
   5  -6   8 199.226 4.14959  -2
   5  12   8 199.226 4.14959   1
   6  12   8 25.8594 1.77279   1
   7  -5   8 16.0120 2.63225  -2
   7  12   8 16.0120 2.63225   1
   8  12   8 28.1101 2.14995   1
   9  -4   8 157.705 5.15663  -2
   9  12   8 157.705 5.15663   1
  10  -4   8 110.432 5.86437  -2
  10  12   8 110.432 5.86437   1
  11  -3   8 -5.2098 4.81754  -2
  11  12   8 -5.2098 4.81754   1
  12  -3   8 4.24822 5.88462  -2
  12  12   8 4.24822 5.88462   1
  -2 -10   8 33.4270 10.7068  -2
  -2  13   8 33.4270 10.7068   1
  -1 -10   8 -4.2915 11.6892  -2
  -1  13   8 -4.2915 11.6892   1
   0  -9   8 -3.4740 10.0347  -2
   0  13   8 -3.4740 10.0347   1
   1  -9   8 -7.2372 9.94726  -2
   1  13   8 -7.2372 9.94726   1
   2  -8   8 60.9221 10.4008  -2
   2  13   8 60.9221 10.4008   1
   3  -8   8 166.025 10.2100  -2
   3  13   8 166.025 10.2100   1
   4  13   8 40.4773 2.28184   1
   5  -7   8 172.630 4.77968  -2
   5  13   8 172.630 4.77968   1
   6  13   8 23.6686 2.17683   1
   7  -6   8 15.3531 2.95098  -2
   7  13   8 15.3531 2.95098   1
   8  13   8 77.4638 3.66919   1
   9  -5   8 223.191 6.20984  -2
   9  13   8 223.191 6.20984   1
  10  -5   8 89.0444 6.03853  -2
  10  13   8 89.0444 6.03853   1
  11  -4   8 4.78503 5.21984  -2
  11  13   8 4.78503 5.21984   1
  -1  14   8 3.19462 5.65375   1
   0 -10   8 24.5273 11.6188  -2
   0  14   8 24.5273 11.6188   1
   1 -10   8 7.20348 11.1127  -2
   1  14   8 7.20348 11.1127   1
   2  -9   8 52.3966 11.7088  -2
   2  14   8 52.3966 11.7088   1
   3  -9   8 27.3624 9.93152  -2
   3  14   8 27.3624 9.93152   1
   4  14   8 -0.7431 2.01804   1
   5  -8   8 16.8074 3.69921  -2
   5  14   8 16.8074 3.69921   1
   6  14   8 29.3424 2.52619   1
   7  -7   8 46.8209 3.73215  -2
   7  14   8 46.8209 3.73215   1
   8  14   8 83.0380 4.00789   1
   9  -6   8 75.3835 5.16513  -2
   9  14   8 75.3835 5.16513   1
  10  14   8 24.3101 2.81328   1
   2 -10   8 35.0592 12.6807  -2
   2  15   8 35.0592 12.6807   1
   3 -10   8 9.45573 10.6250  -2
   3  15   8 9.45573 10.6250   1
   4  15   8 6.13140 2.50177   1
   5  -9   8 16.8619 3.81234  -2
   5  15   8 16.8619 3.81234   1
   6  15   8 2.75960 2.41340   1
   7  -8   8 67.1604 4.39062  -2
   7  15   8 67.1604 4.39062   1
   8  15   8 31.8260 2.99401   1
  -3  12   9 1.88300 5.11739  -2
  -3  -9   9 1.88300 5.11739   1
  -2  12   9 39.4472 9.48148  -2
  -2  -9   9 39.4472 9.48148   1
  -1  13   9 70.2283 6.05963  -2
  -1  -9   9 70.2283 6.05963   1
   0  13   9 35.2550 6.00376  -2
   0  -9   9 35.2550 6.00376   1
   1  14   9 106.430 7.03876  -2
   1  -9   9 106.430 7.03876   1
   2  14   9 56.0557 6.00294  -2
   2  -9   9 56.0557 6.00294   1
   3  15   9 22.7229 10.0603  -2
   3  -9   9 22.7229 10.0603   1
   4  15   9 74.8294 6.16986  -2
   4  -9   9 74.8294 6.16986   1
  -5  10   9 4.27266 4.17838  -2
  -5  -8   9 4.27266 4.17838   1
  -4  -8   9 0.45364 2.43580   1
  -3  11   9 5.58846 4.56163  -2
  -3  -8   9 5.58846 4.56163   1
  -2  11   9 6.56491 7.96737  -2
  -2  -8   9 6.56491 7.96737   1
  -1  12   9 57.7825 5.38723  -2
  -1  -8   9 57.7825 5.38723   1
   0  12   9 3.52556 4.96885  -2
   0  -8   9 3.52556 4.96885   1
   1  13   9 8.47885 5.43250  -2
   1  -8   9 8.47885 5.43250   1
   2  13   9 36.4214 5.11245  -2
   2  -8   9 36.4214 5.11245   1
   3  -8   9 89.3017 4.10826   1
   4  14   9 114.490 5.94793  -2
   4  -8   9 114.490 5.94793   1
   5  -8   9 33.6160 3.47054   1
   6  15   9 77.9151 4.43637  -2
   6  -8   9 77.9151 4.43637   1
  -6  -7   9 65.7221 3.64679   1
  -5   9   9 126.179 4.96356  -2
  -5  -7   9 126.179 4.96356   1
  -4  -7   9 14.6219 2.41966   1
  -3  10   9 28.5311 4.16452  -2
  -3  -7   9 28.5311 4.16452   1
  -2  10   9 87.1046 7.50180  -2
  -2  -7   9 87.1046 7.50180   1
  -1  11   9 8.76917 4.35451  -2
  -1  -7   9 8.76917 4.35451   1
   0  11   9 45.5299 4.59188  -2
   0  -7   9 45.5299 4.59188   1
   1  12   9 123.456 5.56936  -2
   1  -7   9 123.456 5.56936   1
   2  12   9 9.92701 4.28916  -2
   2  -7   9 9.92701 4.28916   1
   3  -7   9 49.2725 3.12000   1
   4  13   9 104.290 5.15537  -2
   4  -7   9 104.290 5.15537   1
   5  -7   9 -0.8863 2.44148   1
   6  14   9 5.16048 2.78631  -2
   6  -7   9 5.16048 2.78631   1
   7  -7   9 26.0829 3.46170   1
   8  -7   9 46.6887 4.05841   1
  -7   7   9 14.7500 4.25738  -2
  -7  -6   9 14.7500 4.25738   1
  -6  -6   9 45.4609 3.07548   1
  -5   8   9 232.700 5.99377  -2
  -5  -6   9 232.700 5.99377   1
  -4  -6   9 57.8975 3.02303   1
  -3   9   9 18.4238 3.65416  -2
  -3  -6   9 18.4238 3.65416   1
  -2   9   9 52.9859 6.19440  -2
  -2  -6   9 52.9859 6.19440   1
  -1  10   9 143.841 4.98155  -2
  -1  -6   9 143.841 4.98155   1
   0  10   9 151.002 5.05003  -2
   0  -6   9 151.002 5.05003   1
   1  11   9 104.559 4.89893  -2
   1  -6   9 104.559 4.89893   1
   2  11   9 1.83506 3.66696  -2
   2  -6   9 1.83506 3.66696   1
   3  -6   9 3.20632 1.90164   1
   4  12   9 8.26273 3.72548  -2
   4  -6   9 8.26273 3.72548   1
   5  -6   9 -0.0701 2.12577   1
   6  13   9 1.50474 2.32786  -2
   6  -6   9 1.50474 2.32786   1
   7  -6   9 4.67072 2.65538   1
   8  14   9 14.8211 5.61415  -2
   8  -6   9 14.8211 5.61415   1
   9  -6   9 -1.6014 3.32209   1
  -7   6   9 8.61922 4.09539  -2
  -7  -5   9 8.61922 4.09539   1
  -6  -5   9 14.0488 2.30592   1
  -5   7   9 143.041 4.54696  -2
  -5  -5   9 143.041 4.54696   1
  -4  -5   9 55.6376 2.73556   1
  -3   8   9 58.7264 3.62037  -2
  -3  -5   9 58.7264 3.62037   1
  -2   8   9 176.605 7.36428  -2
  -2  -5   9 176.605 7.36428   1
  -1   9   9 350.691 7.19751  -2
  -1  -5   9 350.691 7.19751   1
   0   9   9 131.456 4.33128  -2
   0  -5   9 131.456 4.33128   1
   1  10   9 30.9186 3.65566  -2
   1  -5   9 30.9186 3.65566   1
   2  10   9 24.5236 3.19655  -2
   2  -5   9 24.5236 3.19655   1
   3  -5   9 73.8368 3.06984   1
   4  11   9 213.277 5.47719  -2
   4  -5   9 213.277 5.47719   1
   5  -5   9 23.8540 2.29374   1
   6  12   9 29.6588 2.57567  -2
   6  -5   9 29.6588 2.57567   1
   7  -5   9 9.49909 2.42964   1
   8  13   9 24.8765 4.98653  -2
   8  -5   9 24.8765 4.98653   1
   9  -5   9 13.2323 3.16134   1
  10  14   9 15.6517 9.75136  -2
  10  -5   9 15.6517 9.75136   1
  -8  -4   9 1.97636 2.46435   1
  -7   5   9 0.53930 3.88329  -2
  -7  -4   9 0.53930 3.88329   1
  -6  -4   9 16.4977 2.29474   1
  -5   6   9 4.67586 2.73558  -2
  -5  -4   9 4.67586 2.73558   1
  -4  -4   9 57.6749 2.57503   1
  -3   7   9 139.456 4.21288  -2
  -3  -4   9 139.456 4.21288   1
  -2  -4   9 15.6980 1.58401   1
  -1   8   9 126.080 3.78618  -2
  -1  -4   9 126.080 3.78618   1
   0   8   9 21.1681 2.72559  -2
   0  -4   9 21.1681 2.72559   1
   1   9   9 8.61982 2.98114  -2
   1  -4   9 8.61982 2.98114   1
   2   9   9 287.747 5.90370  -2
   2  -4   9 287.747 5.90370   1
   3  -4   9 348.171 6.66911   1
   4  10   9 350.951 7.05720  -2
   4  -4   9 350.951 7.05720   1
   5  -4   9 37.2395 2.25939   1
   6  11   9 34.8977 2.68353  -2
   6  -4   9 34.8977 2.68353   1
   7  -4   9 71.0408 3.33182   1
   8  12   9 139.468 5.63711  -2
   8  -4   9 139.468 5.63711   1
   9  -4   9 28.9949 3.20181   1
  10  13   9 28.4610 6.36848  -2
  10  -4   9 28.4610 6.36848   1
  11  13   9 5.59725 10.4596  -2
  11  -4   9 5.59725 10.4596   1
  -8  -3   9 22.4358 2.78790   1
  -7   4   9 10.5541 3.70582  -2
  -7  -3   9 10.5541 3.70582   1
  -6  -3   9 44.4822 2.70174   1
  -5   5   9 150.576 4.37166  -2
  -5  -3   9 150.576 4.37166   1
  -4  -3   9 8.02273 1.53924   1
  -3   6   9 15.8300 2.68857  -2
  -3  -3   9 15.8300 2.68857   1
  -2  -3   9 24.3975 1.53889   1
  -1   7   9 17.4712 1.85033  -2
  -1  -3   9 17.4712 1.85033   1
   0   7   9 2.97937 2.00318  -2
   0  -3   9 2.97937 2.00318   1
   1   8   9 10.0690 2.37538  -2
   1  -3   9 10.0690 2.37538   1
   2   8   9 52.6512 2.10437  -2
   2  -3   9 52.6512 2.10437   1
   3  -3   9 111.730 2.44928   1
   4   9   9 245.509 5.23015  -2
   4  -3   9 245.509 5.23015   1
   5  -3   9 27.3960 1.90624   1
   6  10   9 79.5249 3.25987  -2
   6  -3   9 79.5249 3.25987   1
   7  -3   9 110.052 3.95147   1
   8  11   9 204.223 5.97837  -2
   8  -3   9 204.223 5.97837   1
   9  -3   9 23.1539 2.79970   1
  10  12   9 35.3236 6.09489  -2
  10  -3   9 35.3236 6.09489   1
  11  12   9 97.5666 7.61126  -2
  11  -3   9 97.5666 7.61126   1
  -8  -2   9 91.0732 4.04661   1
  -7   3   9 104.534 4.56817  -2
  -7  -2   9 104.534 4.56817   1
  -6  -2   9 37.3581 2.40234   1
  -5   4   9 231.707 5.31223  -2
  -5  -2   9 231.707 5.31223   1
  -4  -2   9 102.620 3.21767   1
  -3   5   9 18.0265 2.46092  -2
  -3  -2   9 18.0265 2.46092   1
  -2  -2   9 11.6644 0.97236   1
  -1   6   9 223.475 4.35790  -2
  -1  -2   9 223.475 4.35790   1
   0   6   9 193.742 3.77447  -2
   0  -2   9 193.742 3.77447   1
   1   7   9 3.80159 2.41742  -2
   1  -2   9 3.80159 2.41742   1
   2   7   9 52.0697 1.40851  -2
   2  -2   9 52.0697 1.40851   1
   3  -2   9 11.3157 0.90435   1
   4   8   9 -0.3910 1.54255  -2
   4  -2   9 -0.3910 1.54255   1
   5  -2   9 80.0173 2.45047   1
   6   9   9 201.232 4.10619  -2
   6  -2   9 201.232 4.10619   1
   7  -2   9 61.6918 2.71867   1
   8  10   9 66.5968 4.06393  -2
   8  -2   9 66.5968 4.06393   1
   9  -2   9 10.5077 2.33566   1
  10  11   9 19.0578 5.23149  -2
  10  -2   9 19.0578 5.23149   1
  11  11   9 85.4629 6.97961  -2
  11  -2   9 85.4629 6.97961   1
  12  12   9 233.363 13.2781  -2
  12  -2   9 233.363 13.2781   1
  -8  -1   9 86.5866 3.91061   1
  -7   2   9 84.4100 4.29521  -2
  -7  -1   9 84.4100 4.29521   1
  -6  -1   9 5.67096 1.77975   1
  -5   3   9 37.7357 2.69576  -2
  -5  -1   9 37.7357 2.69576   1
  -4  -1   9 113.296 3.25015   1
  -3   4   9 473.136 8.36023  -2
  -3  -1   9 473.136 8.36023   1
  -2  -1   9 133.076 2.39033   1
  -1   5   9 204.465 3.90029  -2
  -1  -1   9 204.465 3.90029   1
   0  -1   9 38.7557 3.86279   1
   1  -1   9 13.1181 2.95990   1
   3  -1   9 116.114 1.68401   1
   4   7   9 286.824 5.30569  -2
   4  -1   9 286.824 5.30569   1
   5  -1   9 0.68420 0.83760   1
   6   8   9 19.9704 1.67519  -2
   6  -1   9 19.9704 1.67519   1
   7  -1   9 22.3371 1.68734   1
   8   9   9 96.2803 4.16169  -2
   8  -1   9 96.2803 4.16169   1
   9  -1   9 2.48544 1.74680   1
  10  10   9 29.5026 4.93106  -2
  10  -1   9 29.5026 4.93106   1
  11  10   9 22.7456 5.87664  -2
  11  -1   9 22.7456 5.87664   1
  12  11   9 91.6819 10.7124  -2
  12  -1   9 91.6819 10.7124   1
  -8   0   9 1.36754 2.31310   1
  -7   1   9 36.0626 3.85394  -2
  -7   0   9 36.0626 3.85394   1
  -6   0   9 5.49743 1.76972   1
  -5   2   9 65.8468 3.05174  -2
  -5   0   9 65.8468 3.05174   1
  -4   0   9 187.038 4.23993   1
  -3   3   9 547.507 9.42745  -2
  -3   0   9 547.507 9.42745   1
  -2   0   9 63.0636 1.40469   1
  -1   4   9 21.8313 1.87915  -2
  -1   0   9 21.8313 1.87915   1
   0   0   9 30.0476 3.39984   1
   1   0   9 55.0849 4.24059   1
   2   5   9 560.846 16.9280  -2
   2   0   9 560.846 16.9280   1
   3   0   9 209.301 8.08664   1
   4   6   9 244.141 3.00819  -2
   4   0   9 244.141 3.00819   1
   5   0   9 108.457 2.09576   1
   6   7   9 39.2169 1.92594  -2
   6   0   9 39.2169 1.92594   1
   7   0   9 69.1705 2.46978   1
   8   8   9 162.574 4.14557  -2
   8   0   9 162.574 4.14557   1
   9   0   9 2.53436 1.61190   1
  10   9   9 10.8576 4.45260  -2
  10   0   9 10.8576 4.45260   1
  11   9   9 1.30055 7.66312  -2
  11   0   9 1.30055 7.66312   1
  12  10   9 10.6379 6.59559  -2
  12   0   9 10.6379 6.59559   1
  13  10   9 -5.6384 9.99748  -2
  13   0   9 -5.6384 9.99748   1
  -8   1   9 30.4156 2.93942   1
  -7   0   9 35.9898 3.81800  -2
  -7   1   9 35.9898 3.81800   1
  -6   1   9 1.90653 1.78540   1
  -5   1   9 0.28434 2.42637  -2
  -5   1   9 0.28434 2.42637   1
  -4   1   9 1.77242 1.30257   1
  -3   2   9 132.950 3.47390  -2
  -3   1   9 132.950 3.47390   1
  -2   1   9 3.29215 0.67922   1
  -1   3   9 3.64217 1.13929  -2
  -1   1   9 3.64217 1.13929   1
   0   1   9 20.8156 2.97681   1
   1   1   9 84.1543 5.08023   1
   2   4   9 555.362 16.6646  -2
   2   1   9 555.362 16.6646   1
   3   1   9 186.689 7.55237   1
   4   5   9 175.524 2.27585  -2
   4   1   9 175.524 2.27585   1
   5   1   9 201.535 2.65693   1
   6   6   9 542.764 6.90256  -2
   6   1   9 542.764 6.90256   1
   7   1   9 84.0903 2.55026   1
   8   7   9 98.6147 3.31462  -2
   8   1   9 98.6147 3.31462   1
   9   1   9 50.7649 2.40693   1
  10   8   9 35.7246 3.86471  -2
  10   1   9 35.7246 3.86471   1
  11   8   9 80.5888 6.09903  -2
  11   1   9 80.5888 6.09903   1
  12   9   9 105.851 6.97671  -2
  12   1   9 105.851 6.97671   1
  13   9   9 43.9581 10.2677  -2
  13   1   9 43.9581 10.2677   1
  -8   2   9 91.7100 4.16077   1
  -7  -1   9 80.9129 4.44955  -2
  -7   2   9 80.9129 4.44955   1
  -6   2   9 4.31158 1.86899   1
  -5   0   9 62.7077 3.22540  -2
  -5   2   9 62.7077 3.22540   1
  -4   2   9 107.585 3.26504   1
  -3   1   9 131.642 3.12256  -2
  -3   2   9 131.642 3.12256   1
  -2   1   9 4.99275 3.42192  -2
  -2   2   9 4.99275 3.42192   1
  -1   2   9 4.70044 1.53661  -2
  -1   2   9 4.70044 1.53661   1
   0   2   9 1.16381 2.28399   1
   1   2   9 15.5734 2.81902   1
   2   3   9 127.257 7.03355  -2
   2   2   9 127.257 7.03355   1
   3   2   9 1.01640 2.36616   1
   4   4   9 30.1865 1.01588  -2
   4   2   9 30.1865 1.01588   1
   5   2   9 265.539 3.25464   1
   6   5   9 700.369 8.62321  -2
   6   2   9 700.369 8.62321   1
   7   2   9 105.178 2.77364   1
   8   6   9 4.46545 2.40865  -2
   8   2   9 4.46545 2.40865   1
   9   2   9 33.7471 2.06927   1
  10   7   9 150.589 4.76532  -2
  10   2   9 150.589 4.76532   1
  11   7   9 120.344 5.02600  -2
  11   2   9 120.344 5.02600   1
  12   8   9 116.624 6.77760  -2
  12   2   9 116.624 6.77760   1
  13   8   9 95.1867 10.1392  -2
  13   2   9 95.1867 10.1392   1
  -8   3   9 48.4275 3.56943   1
  -7  -2   9 103.565 4.89324  -2
  -7   3   9 103.565 4.89324   1
  -6   3   9 25.1357 2.41639   1
  -5  -1   9 42.2633 3.15010  -2
  -5   3   9 42.2633 3.15010   1
  -4   3   9 113.988 3.48086   1
  -3   0   9 559.982 9.88713  -2
  -3   3   9 559.982 9.88713   1
  -2   0   9 99.3485 5.09486  -2
  -2   3   9 99.3485 5.09486   1
  -1   1   9 4.36608 1.44872  -2
  -1   3   9 4.36608 1.44872   1
   0   1   9 31.9159 1.90795  -2
   0   3   9 31.9159 1.90795   1
   1   3   9 44.6772 1.56937   1
   2   2   9 126.908 3.09376  -2
   2   3   9 126.908 3.09376   1
   3   3   9 -0.4471 0.40568   1
   4   3   9 -1.0688 0.91496  -2
   4   3   9 -1.0688 0.91496   1
   5   3   9 50.2091 1.26977   1
   6   4   9 172.382 2.85211  -2
   6   3   9 172.382 2.85211   1
   7   3   9 5.00801 1.17091   1
   8   5   9 9.94420 2.42732  -2
   8   3   9 9.94420 2.42732   1
   9   3   9 50.9152 2.29318   1
  10   6   9 222.691 5.35798  -2
  10   3   9 222.691 5.35798   1
  11   6   9 91.1138 4.82448  -2
  11   3   9 91.1138 4.82448   1
  12   7   9 66.1757 5.13283  -2
  12   3   9 66.1757 5.13283   1
  13   7   9 147.205 10.9769  -2
  13   3   9 147.205 10.9769   1
  14   8   9 250.519 13.8918  -2
  14   3   9 250.519 13.8918   1
  -8   4   9 4.02091 2.30639   1
  -7  -3   9 8.96404 4.17060  -2
  -7   4   9 8.96404 4.17060   1
  -6   4   9 36.3236 2.26968   1
  -5  -2   9 244.215 5.88998  -2
  -5   4   9 244.215 5.88998   1
  -4   4   9 135.907 3.25654   1
  -3  -1   9 451.005 8.40075  -2
  -3   4   9 451.005 8.40075   1
  -2   4   9 142.732 3.06109   1
  -1   0   9 27.8199 1.78724  -2
  -1   4   9 27.8199 1.78724   1
   0   0   9 54.4690 2.48757  -2
   0   4   9 54.4690 2.48757   1
   1   4   9 79.6824 1.35216   1
   2   1   9 530.649 5.75318  -2
   2   4   9 530.649 5.75318   1
   3   4   9 36.3009 1.00355   1
   4   2   9 29.8357 1.23339  -2
   4   4   9 29.8357 1.23339   1
   5   4   9 273.152 3.85107   1
   6   3   9 180.436 3.49421  -2
   6   4   9 180.436 3.49421   1
   7   4   9 7.68622 1.24080   1
   8   4   9 2.85579 2.36950  -2
   8   4   9 2.85579 2.36950   1
   9   4   9 10.4796 1.62797   1
  10   5   9 116.600 4.42047  -2
  10   4   9 116.600 4.42047   1
  11   5   9 16.9512 4.27637  -2
  11   4   9 16.9512 4.27637   1
  12   6   9 0.91466 4.75182  -2
  12   4   9 0.91466 4.75182   1
  13   6   9 42.0005 9.53764  -2
  13   4   9 42.0005 9.53764   1
  14   7   9 365.552 16.2779  -2
  14   4   9 365.552 16.2779   1
  -8   5   9 2.92905 2.46581   1
  -7  -4   9 1.44525 4.42481  -2
  -7   5   9 1.44525 4.42481   1
  -6   5   9 36.9748 2.40828   1
  -5  -3   9 144.304 4.80919  -2
  -5   5   9 144.304 4.80919   1
  -4   5   9 22.8839 2.12883   1
  -3  -2   9 12.7328 2.91867  -2
  -3   5   9 12.7328 2.91867   1
  -2   5   9 12.6871 1.34902   1
  -1  -1   9 207.820 4.17643  -2
  -1   5   9 207.820 4.17643   1
   0  -1   9 67.8443 3.52121  -2
   0   5   9 67.8443 3.52121   1
   1   5   9 11.2562 0.79358   1
   2   0   9 558.812 7.68998  -2
   2   5   9 558.812 7.68998   1
   3   5   9 248.118 3.30959   1
   4   1   9 167.258 2.96532  -2
   4   5   9 167.258 2.96532   1
   5   5   9 269.546 4.23186   1
   6   2   9 710.941 12.0402  -2
   6   5   9 710.941 12.0402   1
   7   5   9 9.09688 1.31190   1
   8   3   9 15.7523 2.59557  -2
   8   5   9 15.7523 2.59557   1
   9   5   9 62.6171 2.54065   1
  10   4   9 120.579 4.47878  -2
  10   5   9 120.579 4.47878   1
  11   4   9 18.3214 4.51968  -2
  11   5   9 18.3214 4.51968   1
  12   5   9 2.07846 4.72580  -2
  12   5   9 2.07846 4.72580   1
  13   5   9 -3.2708 8.62803  -2
  13   5   9 -3.2708 8.62803   1
  14   6   9 65.3965 11.7829  -2
  14   5   9 65.3965 11.7829   1
  -7  -5   9 12.6731 4.99644  -2
  -7   6   9 12.6731 4.99644   1
  -6   6   9 -0.2247 2.43380   1
  -5  -4   9 1.37337 3.50867  -2
  -5   6   9 1.37337 3.50867   1
  -4   6   9 18.9470 2.22566   1
  -3  -3   9 18.4235 3.32764  -2
  -3   6   9 18.4235 3.32764   1
  -2   6   9 42.3127 1.93391   1
  -1  -2   9 220.433 7.37976  -2
  -1   6   9 220.433 7.37976   1
   0  -2   9 192.286 6.84328  -2
   0   6   9 192.286 6.84328   1
   1  -1   9 34.8766 3.94665  -2
   1   6   9 34.8766 3.94665   1
   2  -1   9 66.8438 2.31709  -2
   2   6   9 66.8438 2.31709   1
   3   6   9 156.187 2.89062   1
   4   0   9 237.892 3.99193  -2
   4   6   9 237.892 3.99193   1
   5   6   9 114.635 3.09532   1
   6   1   9 545.119 9.61526  -2
   6   6   9 545.119 9.61526   1
   7   6   9 189.118 4.53203   1
   8   2   9 5.47564 3.02042  -2
   8   6   9 5.47564 3.02042   1
   9   6   9 43.6829 2.68943   1
  10   3   9 223.748 5.61684  -2
  10   6   9 223.748 5.61684   1
  11   3   9 90.3948 6.02392  -2
  11   6   9 90.3948 6.02392   1
  12   4   9 1.57021 6.19457  -2
  12   6   9 1.57021 6.19457   1
  13   4   9 39.3560 9.70810  -2
  13   6   9 39.3560 9.70810   1
  14   5   9 70.7616 11.9418  -2
  14   6   9 70.7616 11.9418   1
  -7  -6   9 17.7228 5.46180  -2
  -7   7   9 17.7228 5.46180   1
  -6   7   9 21.9785 3.18903   1
  -5  -5   9 139.184 5.27351  -2
  -5   7   9 139.184 5.27351   1
  -4   7   9 49.1007 3.04731   1
  -3  -4   9 141.697 7.04915  -2
  -3   7   9 141.697 7.04915   1
  -2   7   9 5.01795 1.69469   1
  -1  -3   9 20.2804 3.41389  -2
  -1   7   9 20.2804 3.41389   1
   0  -3   9 3.13137 3.24953  -2
   0   7   9 3.13137 3.24953   1
   1  -2   9 9.67874 3.98409  -2
   1   7   9 9.67874 3.98409   1
   2  -2   9 48.1771 3.02618  -2
   2   7   9 48.1771 3.02618   1
   3   7   9 72.4271 2.67249   1
   4  -1   9 265.316 5.49724  -2
   4   7   9 265.316 5.49724   1
   5   7   9 58.0606 2.38407   1
   6   0   9 41.7615 2.18944  -2
   6   7   9 41.7615 2.18944   1
   7   7   9 45.8503 2.39036   1
   8   1   9 99.0063 4.12862  -2
   8   7   9 99.0063 4.12862   1
   9   7   9 41.5882 2.73548   1
  10   2   9 152.104 5.91894  -2
  10   7   9 152.104 5.91894   1
  11   2   9 113.476 6.51830  -2
  11   7   9 113.476 6.51830   1
  12   3   9 69.5231 6.95270  -2
  12   7   9 69.5231 6.95270   1
  13   3   9 134.653 10.9593  -2
  13   7   9 134.653 10.9593   1
  14   4   9 375.489 16.6809  -2
  14   7   9 375.489 16.6809   1
  -6   8   9 58.1003 4.09575   1
  -5  -6   9 224.065 9.41025  -2
  -5   8   9 224.065 9.41025   1
  -4   8   9 53.7961 3.35625   1
  -3  -5   9 53.8127 4.57087  -2
  -3   8   9 53.8127 4.57087   1
  -2   8   9 68.6223 3.23512   1
  -1  -4   9 126.443 4.95557  -2
  -1   8   9 126.443 4.95557   1
   0  -4   9 16.1035 3.78075  -2
   0   8   9 16.1035 3.78075   1
   1  -3   9 15.5831 4.78208  -2
   1   8   9 15.5831 4.78208   1
   2  -3   9 47.9294 3.50546  -2
   2   8   9 47.9294 3.50546   1
   3   8   9 3.89808 1.49220   1
   4  -2   9 1.76424 2.42426  -2
   4   8   9 1.76424 2.42426   1
   5   8   9 73.2028 3.02292   1
   6  -1   9 24.2846 1.99521  -2
   6   8   9 24.2846 1.99521   1
   7   8   9 46.1864 2.59334   1
   8   0   9 169.296 5.23923  -2
   8   8   9 169.296 5.23923   1
   9   8   9 36.0645 2.80335   1
  10   1   9 43.1868 5.19387  -2
  10   8   9 43.1868 5.19387   1
  11   1   9 91.1701 6.56417  -2
  11   8   9 91.1701 6.56417   1
  12   2   9 113.127 10.3912  -2
  12   8   9 113.127 10.3912   1
  13   2   9 94.0414 10.8744  -2
  13   8   9 94.0414 10.8744   1
  14   3   9 228.871 14.7143  -2
  14   8   9 228.871 14.7143   1
  -5  -7   9 129.749 6.00517  -2
  -5   9   9 129.749 6.00517   1
  -4   9   9 36.7336 3.34616   1
  -3  -6   9 20.8807 4.61449  -2
  -3   9   9 20.8807 4.61449   1
  -2   9   9 42.9984 3.00735   1
  -1  -5   9 354.500 8.24199  -2
  -1   9   9 354.500 8.24199   1
   0  -5   9 126.617 5.39251  -2
   0   9   9 126.617 5.39251   1
   1  -4   9 2.12029 4.02484  -2
   1   9   9 2.12029 4.02484   1
   2  -4   9 266.567 6.54405  -2
   2   9   9 266.567 6.54405   1
   3   9   9 286.682 6.30239   1
   4  -3   9 244.166 5.76389  -2
   4   9   9 244.166 5.76389   1
   5   9   9 45.7641 2.55519   1
   6  -2   9 200.178 5.20926  -2
   6   9   9 200.178 5.20926   1
   7   9   9 6.93666 1.98095   1
   8  -1   9 95.9070 4.63419  -2
   8   9   9 95.9070 4.63419   1
   9   9   9 0.51074 2.13801   1
  10   0   9 10.3127 5.11016  -2
  10   9   9 10.3127 5.11016   1
  11   0   9 8.88286 9.11165  -2
  11   9   9 8.88286 9.11165   1
  12   1   9 113.236 11.2366  -2
  12   9   9 113.236 11.2366   1
  13   1   9 28.9636 11.0247  -2
  13   9   9 28.9636 11.0247   1
  -5  -8   9 7.29232 7.27105  -2
  -5  10   9 7.29232 7.27105   1
  -4  10   9 0.06779 2.97763   1
  -3  -7   9 31.1936 5.44621  -2
  -3  10   9 31.1936 5.44621   1
  -2  10   9 40.6246 3.20033   1
  -1  -6   9 125.642 5.85291  -2
  -1  10   9 125.642 5.85291   1
   0  -6   9 144.472 6.13048  -2
   0  10   9 144.472 6.13048   1
   1  -5   9 35.2412 4.85672  -2
   1  10   9 35.2412 4.85672   1
   2  -5   9 24.6233 3.98832  -2
   2  10   9 24.6233 3.98832   1
   3  10   9 210.325 5.53499   1
   4  -4   9 351.932 7.68374  -2
   4  10   9 351.932 7.68374   1
   5  10   9 30.1887 2.50769   1
   6  -3   9 77.3087 3.74051  -2
   6  10   9 77.3087 3.74051   1
   7  10   9 127.346 4.70469   1
   8  -2   9 67.6777 4.40845  -2
   8  10   9 67.6777 4.40845   1
   9  -2   9 22.1355 8.53570  -2
   9  10   9 22.1355 8.53570   1
  10  -1   9 33.4285 8.12687  -2
  10  10   9 33.4285 8.12687   1
  11  -1   9 28.2089 10.2184  -2
  11  10   9 28.2089 10.2184   1
  12   0   9 15.0517 10.8539  -2
  12  10   9 15.0517 10.8539   1
  13   0   9 -0.6750 11.2296  -2
  13  10   9 -0.6750 11.2296   1
  -4  11   9 -2.5742 4.62336   1
  -3  -8   9 6.92689 8.56106  -2
  -3  11   9 6.92689 8.56106   1
  -2  -8   9 18.1767 7.09755  -2
  -2  11   9 18.1767 7.09755   1
  -1  -7   9 3.76044 5.72131  -2
  -1  11   9 3.76044 5.72131   1
   0  -7   9 46.6103 6.05736  -2
   0  11   9 46.6103 6.05736   1
   1  -6   9 93.0689 6.13807  -2
   1  11   9 93.0689 6.13807   1
   2  -6   9 -7.3712 4.59721  -2
   2  11   9 -7.3712 4.59721   1
   3  11   9 23.5519 2.69724   1
   4  -5   9 212.272 6.11504  -2
   4  11   9 212.272 6.11504   1
   5  11   9 30.8557 2.81143   1
   6  -4   9 39.7024 3.89804  -2
   6  11   9 39.7024 3.89804   1
   7  11   9 105.587 4.40407   1
   8  -3   9 194.362 6.40264  -2
   8  11   9 194.362 6.40264   1
   9  -3   9 46.1634 9.18215  -2
   9  11   9 46.1634 9.18215   1
  10  -2   9 7.62777 8.82897  -2
  10  11   9 7.62777 8.82897   1
  11  -2   9 66.8954 11.4535  -2
  11  11   9 66.8954 11.4535   1
  12  -1   9 121.958 13.0871  -2
  12  11   9 121.958 13.0871   1
  -3  -9   9 15.1470 9.67199  -2
  -3  12   9 15.1470 9.67199   1
  -2  -9   9 23.2630 11.6365  -2
  -2  12   9 23.2630 11.6365   1
  -1  -8   9 70.2811 9.98137  -2
  -1  12   9 70.2811 9.98137   1
   0  -8   9 0.37919 6.71567  -2
   0  12   9 0.37919 6.71567   1
   1  -7   9 108.309 6.76932  -2
   1  12   9 108.309 6.76932   1
   2  -7   9 8.52426 5.52631  -2
   2  12   9 8.52426 5.52631   1
   3  12   9 -0.1309 2.51690   1
   4  -6   9 6.00205 4.19126  -2
   4  12   9 6.00205 4.19126   1
   5  12   9 6.03893 2.61258   1
   6  -5   9 29.9559 4.35209  -2
   6  12   9 29.9559 4.35209   1
   7  12   9 31.7717 3.26146   1
   8  -4   9 141.546 8.98789  -2
   8  12   9 141.546 8.98789   1
   9  -4   9 78.3678 10.6396  -2
   9  12   9 78.3678 10.6396   1
  10  -3   9 14.5238 9.59993  -2
  10  12   9 14.5238 9.59993   1
  11  -3   9 110.330 12.8225  -2
  11  12   9 110.330 12.8225   1
  12  -2   9 245.772 15.1562  -2
  12  12   9 245.772 15.1562   1
  -1  -9   9 60.6524 11.0863  -2
  -1  13   9 60.6524 11.0863   1
   0  -9   9 37.8081 10.7695  -2
   0  13   9 37.8081 10.7695   1
   1  -8   9 0.98552 9.88382  -2
   1  13   9 0.98552 9.88382   1
   2  -8   9 40.7368 9.21856  -2
   2  13   9 40.7368 9.21856   1
   3  13   9 87.9634 6.41620   1
   4  -7   9 102.833 8.42387  -2
   4  13   9 102.833 8.42387   1
   5  13   9 1.31839 4.07463   1
   6  -6   9 -8.1616 6.09454  -2
   6  13   9 -8.1616 6.09454   1
   7  13   9 2.58915 4.35903   1
   8  -5   9 29.5629 8.26854  -2
   8  13   9 29.5629 8.26854   1
   9  13   9 22.8640 5.46199   1
  10  -4   9 36.3022 10.3778  -2
  10  13   9 36.3022 10.3778   1
  11  -4   9 1.64513 12.5816  -2
  11  13   9 1.64513 12.5816   1
   0  14   9 56.5964 6.67621   1
   1  -9   9 107.748 12.6473  -2
   1  14   9 107.748 12.6473   1
   2  -9   9 66.4193 10.3842  -2
   2  14   9 66.4193 10.3842   1
   3  14   9 57.6819 6.21894   1
   4  -8   9 106.878 9.48411  -2
   4  14   9 106.878 9.48411   1
   5  14   9 10.1228 5.01447   1
   6  -7   9 6.59651 7.15122  -2
   6  14   9 6.59651 7.15122   1
   7  14   9 21.0720 5.45535   1
   8  -6   9 19.4106 9.14929  -2
   8  14   9 19.4106 9.14929   1
   9  -6   9 -7.9972 12.3643  -2
   9  14   9 -7.9972 12.3643   1
  10  -5   9 31.1702 11.6713  -2
  10  14   9 31.1702 11.6713   1
   3  -9   9 15.0187 12.6472  -2
   3  15   9 15.0187 12.6472   1
   4  -9   9 64.6909 10.3430  -2
   4  15   9 64.6909 10.3430   1
   5  15   9 50.2156 6.70077   1
   6  -8   9 69.3362 9.07851  -2
   6  15   9 69.3362 9.07851   1
   7  15   9 33.5118 6.52346   1
  -3  -8  10 27.8679 2.97964   1
  -2  12  10 110.772 5.98148  -2
  -2  -8  10 110.772 5.98148   1
  -1  12  10 47.6231 5.66202  -2
  -1  -8  10 47.6231 5.66202   1
   0  13  10 32.9254 5.75464  -2
   0  -8  10 32.9254 5.75464   1
   1  13  10 158.987 6.27557  -2
   1  -8  10 158.987 6.27557   1
   2  -8  10 8.91039 2.56605   1
   3  14  10 4.47229 4.82909  -2
   3  -8  10 4.47229 4.82909   1
   4  -8  10 24.6441 3.25973   1
  -4  10  10 16.5724 4.66612  -2
  -4  -7  10 16.5724 4.66612   1
  -3  -7  10 42.4806 2.94578   1
  -2  11  10 173.873 5.95029  -2
  -2  -7  10 173.873 5.95029   1
  -1  11  10 89.8642 5.31657  -2
  -1  -7  10 89.8642 5.31657   1
   0  12  10 42.8724 5.09271  -2
   0  -7  10 42.8724 5.09271   1
   1  12  10 189.689 6.11202  -2
   1  -7  10 189.689 6.11202   1
   2  -7  10 85.9017 3.62554   1
   3  13  10 28.1669 4.43391  -2
   3  -7  10 28.1669 4.43391   1
   4  -7  10 44.3530 3.24538   1
   5  14  10 58.4152 4.05023  -2
   5  -7  10 58.4152 4.05023   1
   6  -7  10 8.11840 2.90692   1
  -5  -6  10 2.10300 2.22756   1
  -4   9  10 3.41310 4.03032  -2
  -4  -6  10 3.41310 4.03032   1
  -3  -6  10 15.4818 2.19834   1
  -2  10  10 80.5827 4.50514  -2
  -2  -6  10 80.5827 4.50514   1
  -1  10  10 49.0335 4.40590  -2
  -1  -6  10 49.0335 4.40590   1
   0  11  10 4.87207 4.25354  -2
   0  -6  10 4.87207 4.25354   1
   1  11  10 2.14001 3.78936  -2
   1  -6  10 2.14001 3.78936   1
   2  -6  10 67.4919 2.98810   1
   3  12  10 190.565 5.58819  -2
   3  -6  10 190.565 5.58819   1
   4  -6  10 24.1333 2.48701   1
   5  13  10 86.1654 4.07778  -2
   5  -6  10 86.1654 4.07778   1
   6  -6  10 45.9952 3.28914   1
   7  14  10 69.4295 5.50493  -2
   7  -6  10 69.4295 5.50493   1
   8  -6  10 33.2699 3.48778   1
  -6   7  10 77.7213 4.25547  -2
  -6  -5  10 77.7213 4.25547   1
  -5  -5  10 9.41807 2.13496   1
  -4   8  10 -0.5201 3.60007  -2
  -4  -5  10 -0.5201 3.60007   1
  -3   8  10 15.6483 6.21699  -2
  -3  -5  10 15.6483 6.21699   1
  -2   9  10 60.1785 3.84589  -2
  -2  -5  10 60.1785 3.84589   1
  -1   9  10 -0.2163 3.41019  -2
  -1  -5  10 -0.2163 3.41019   1
   0  10  10 64.0594 3.99618  -2
   0  -5  10 64.0594 3.99618   1
   1  10  10 -1.8667 3.15563  -2
   1  -5  10 -1.8667 3.15563   1
   2  -5  10 22.2335 1.92956   1
   3  11  10 65.6464 3.71883  -2
   3  -5  10 65.6464 3.71883   1
   4  -5  10 0.83406 1.81136   1
   5  12  10 16.6355 2.53574  -2
   5  -5  10 16.6355 2.53574   1
   6  -5  10 96.3183 4.03413   1
   7  13  10 194.266 6.30285  -2
   7  -5  10 194.266 6.30285   1
   8  -5  10 13.2770 2.87204   1
   9  14  10 30.6634 6.39144  -2
   9  -5  10 30.6634 6.39144   1
  -7  -4  10 94.2105 4.20224   1
  -6   6  10 143.934 4.80409  -2
  -6  -4  10 143.934 4.80409   1
  -5  -4  10 36.4349 2.55824   1
  -4   7  10 33.1035 3.45200  -2
  -4  -4  10 33.1035 3.45200   1
  -3   7  10 142.348 7.10832  -2
  -3  -4  10 142.348 7.10832   1
  -2   8  10 236.288 5.47039  -2
  -2  -4  10 236.288 5.47039   1
  -1   8  10 35.2161 3.01791  -2
  -1  -4  10 35.2161 3.01791   1
   0   9  10 8.47168 4.57320  -2
   0  -4  10 8.47168 4.57320   1
   1   9  10 137.931 3.94827  -2
   1  -4  10 137.931 3.94827   1
   2  -4  10 41.2560 2.00976   1
   3  10  10 1.96221 2.68944  -2
   3  -4  10 1.96221 2.68944   1
   4  -4  10 -0.8210 1.51855   1
   5  11  10 6.15210 2.05671  -2
   5  -4  10 6.15210 2.05671   1
   6  -4  10 27.7070 2.33822   1
   7  12  10 134.925 5.09575  -2
   7  -4  10 134.925 5.09575   1
   8  -4  10 12.0721 2.53727   1
   9  13  10 2.94849 5.54765  -2
   9  -4  10 2.94849 5.54765   1
  10  13  10 59.3025 7.00771  -2
  10  -4  10 59.3025 7.00771   1
  -7  -3  10 24.0788 2.60026   1
  -6   5  10 31.4195 3.29747  -2
  -6  -3  10 31.4195 3.29747   1
  -5  -3  10 25.9609 2.21047   1
  -4   6  10 120.727 4.09703  -2
  -4  -3  10 120.727 4.09703   1
  -3   6  10 200.693 7.28545  -2
  -3  -3  10 200.693 7.28545   1
  -2   7  10 240.236 5.23366  -2
  -2  -3  10 240.236 5.23366   1
  -1   7  10 193.150 6.54248  -2
  -1  -3  10 193.150 6.54248   1
   0   8  10 37.2394 2.45911  -2
   0  -3  10 37.2394 2.45911   1
   1   8  10 189.019 3.38475  -2
   1  -3  10 189.019 3.38475   1
   2  -3  10 141.862 2.70388   1
   3   9  10 41.9376 2.52676  -2
   3  -3  10 41.9376 2.52676   1
   4  -3  10 0.73949 1.27193   1
   5  10  10 -0.8593 1.71120  -2
   5  -3  10 -0.8593 1.71120   1
   6  -3  10 7.35858 1.72550   1
   7  11  10 7.94586 3.47162  -2
   7  -3  10 7.94586 3.47162   1
   8  -3  10 2.38913 2.10708   1
   9  12  10 -2.7225 5.05612  -2
   9  -3  10 -2.7225 5.05612   1
  10  12  10 30.0481 9.28401  -2
  10  -3  10 30.0481 9.28401   1
  11  -3  10 32.1687 3.73956   1
  -7  -2  10 -0.2083 2.11506   1
  -6   4  10 2.33595 2.85811  -2
  -6  -2  10 2.33595 2.85811   1
  -5  -2  10 17.1473 1.92781   1
  -4   5  10 164.178 4.46054  -2
  -4  -2  10 164.178 4.46054   1
  -3  -2  10 39.1217 1.87435   1
  -2   6  10 62.2585 2.76260  -2
  -2  -2  10 62.2585 2.76260   1
  -1   6  10 289.054 7.85794  -2
  -1  -2  10 289.054 7.85794   1
   0   7  10 222.687 6.32070  -2
   0  -2  10 222.687 6.32070   1
   1   7  10 13.4582 1.70096  -2
   1  -2  10 13.4582 1.70096   1
   2  -2  10 159.320 2.21664   1
   3   8  10 393.148 5.60347  -2
   3  -2  10 393.148 5.60347   1
   4  -2  10 27.8441 1.37897   1
   5   9  10 125.788 3.37208  -2
   5  -2  10 125.788 3.37208   1
   6  -2  10 151.140 3.97106   1
   7  10  10 146.776 4.52924  -2
   7  -2  10 146.776 4.52924   1
   8  -2  10 8.04039 2.00165   1
   9  11  10 0.65556 4.44775  -2
   9  -2  10 0.65556 4.44775   1
  10  11  10 25.3223 8.06101  -2
  10  -2  10 25.3223 8.06101   1
  11  12  10 0.69930 6.38949  -2
  11  -2  10 0.69930 6.38949   1
  -7  -1  10 3.58607 2.18768   1
  -6   3  10 25.7648 3.06348  -2
  -6  -1  10 25.7648 3.06348   1
  -5  -1  10 1.15687 1.54072   1
  -4   4  10 62.7807 3.14775  -2
  -4  -1  10 62.7807 3.14775   1
  -3  -1  10 2.36897 1.19007   1
  -2   5  10 83.1209 2.16275  -2
  -2  -1  10 83.1209 2.16275   1
  -1   5  10 57.1300 3.02624  -2
  -1  -1  10 57.1300 3.02624   1
   0   6  10 488.380 11.3198  -2
   0  -1  10 488.380 11.3198   1
   2  -1  10 -1.5404 2.79265   1
   3   7  10 210.799 3.13670  -2
   3  -1  10 210.799 3.13670   1
   4  -1  10 103.732 2.00747   1
   5   8  10 96.5515 2.51334  -2
   5  -1  10 96.5515 2.51334   1
   6  -1  10 140.455 3.29600   1
   7   9  10 321.021 6.70518  -2
   7  -1  10 321.021 6.70518   1
   8  -1  10 12.8604 1.80085   1
   9  10  10 13.8901 4.16085  -2
   9  -1  10 13.8901 4.16085   1
  10  -1  10 89.2427 3.96375   1
  11  11  10 143.243 7.04265  -2
  11  -1  10 143.243 7.04265   1
  12  11  10 40.5565 6.80061  -2
  12  -1  10 40.5565 6.80061   1
  -8   1  10 162.206 6.11419  -2
  -8   0  10 162.206 6.11419   1
  -7   0  10 41.8310 2.91460   1
  -6   2  10 4.52416 2.85545  -2
  -6   0  10 4.52416 2.85545   1
  -5   0  10 13.7146 1.82846   1
  -4   3  10 56.8202 3.02656  -2
  -4   0  10 56.8202 3.02656   1
  -3   0  10 18.9175 1.46297   1
  -2   4  10 55.7749 1.80732  -2
  -2   0  10 55.7749 1.80732   1
  -1   0  10 1.52782 0.72928   1
   0   0  10 76.8685 5.17377   1
   1   5  10 -0.4658 5.90740  -2
   1   0  10 -0.4658 5.90740   1
   2   0  10 8.83989 2.95692   1
   3   6  10 27.1856 5.33251  -2
   3   0  10 27.1856 5.33251   1
   4   0  10 90.3729 1.69122   1
   5   7  10 215.537 3.24053  -2
   5   0  10 215.537 3.24053   1
   6   0  10 7.98491 1.21607   1
   7   8  10 188.465 4.14017  -2
   7   0  10 188.465 4.14017   1
   8   0  10 112.595 3.28870   1
   9   9  10 108.657 4.20167  -2
   9   0  10 108.657 4.20167   1
  10   9  10 159.309 6.86395  -2
  10   0  10 159.309 6.86395   1
  11  10  10 252.384 7.95877  -2
  11   0  10 252.384 7.95877   1
  12  10  10 95.6369 6.91081  -2
  12   0  10 95.6369 6.91081   1
  -8   0  10 160.052 6.06809  -2
  -8   1  10 160.052 6.06809   1
  -7   1  10 51.5865 3.09022   1
  -6   1  10 83.7329 3.75152  -2
  -6   1  10 83.7329 3.75152   1
  -5   1  10 107.903 3.64522   1
  -4   2  10 325.338 6.54877  -2
  -4   1  10 325.338 6.54877   1
  -3   1  10 71.6965 2.51587   1
  -2   3  10 1.81048 1.55683  -2
  -2   1  10 1.81048 1.55683   1
  -1   1  10 92.7365 2.00830   1
   0   1  10 160.978 7.13347   1
   1   4  10 72.7139 6.56545  -2
   1   1  10 72.7139 6.56545   1
   2   1  10 34.5573 3.80948   1
   3   5  10 4.52498 4.72944  -2
   3   1  10 4.52498 4.72944   1
   4   1  10 6.92986 0.54158   1
   5   6  10 72.0872 1.64791  -2
   5   1  10 72.0872 1.64791   1
   6   1  10 1.42289 0.92653   1
   7   7  10 5.65845 2.15324  -2
   7   1  10 5.65845 2.15324   1
   8   1  10 27.5018 1.83509   1
   9   8  10 135.627 4.27493  -2
   9   1  10 135.627 4.27493   1
  10   8  10 54.4477 5.39095  -2
  10   1  10 54.4477 5.39095   1
  11   9  10 60.9931 4.92639  -2
  11   1  10 60.9931 4.92639   1
  12   9  10 44.1567 6.21405  -2
  12   1  10 44.1567 6.21405   1
  13  10  10 32.4299 11.2491  -2
  13   1  10 32.4299 11.2491   1
  -7   2  10 24.0412 2.67185   1
  -6   0  10 10.9309 3.08507  -2
  -6   2  10 10.9309 3.08507   1
  -5   2  10 28.8760 2.20955   1
  -4   1  10 336.594 6.81056  -2
  -4   2  10 336.594 6.81056   1
  -3   1  10 149.802 5.88515  -2
  -3   2  10 149.802 5.88515   1
  -2   2  10 36.8236 1.82508  -2
  -2   2  10 36.8236 1.82508   1
  -1   2  10 526.827 12.2928  -2
  -1   2  10 526.827 12.2928   1
   0   2  10 410.897 12.9696   1
   1   3  10 16.4423 5.45925  -2
   1   2  10 16.4423 5.45925   1
   2   2  10 14.4528 3.07714   1
   3   4  10 232.793 9.51291  -2
   3   2  10 232.793 9.51291   1
   4   2  10 46.8375 0.96190   1
   5   5  10 110.335 1.99904  -2
   5   2  10 110.335 1.99904   1
   6   2  10 39.4864 1.36740   1
   7   6  10 53.1142 2.55071  -2
   7   2  10 53.1142 2.55071   1
   8   2  10 0.28218 1.31204   1
   9   7  10 23.5111 3.16812  -2
   9   2  10 23.5111 3.16812   1
  10   7  10 -3.5437 5.08007  -2
  10   2  10 -3.5437 5.08007   1
  11   8  10 3.13756 4.43662  -2
  11   2  10 3.13756 4.43662   1
  12   8  10 5.93039 4.77766  -2
  12   2  10 5.93039 4.77766   1
  13   9  10 39.6306 10.5493  -2
  13   2  10 39.6306 10.5493   1
  -7   3  10 3.80087 2.32258   1
  -6  -1  10 26.5117 3.34453  -2
  -6   3  10 26.5117 3.34453   1
  -5   3  10 4.31308 1.45549   1
  -4   0  10 54.7528 3.27335  -2
  -4   3  10 54.7528 3.27335   1
  -3   3  10 51.1781 2.21654   1
  -2   1  10 2.85701 2.12987  -2
  -2   3  10 2.85701 2.12987   1
  -1   1  10 168.906 3.48440  -2
  -1   3  10 168.906 3.48440   1
   0   2  10 718.023 11.4970  -2
   0   3  10 718.023 11.4970   1
   1   2  10 23.3673 5.87794  -2
   1   3  10 23.3673 5.87794   1
   2   3  10 4.17274 2.73866   1
   3   3  10 325.269 6.06460  -2
   3   3  10 325.269 6.06460   1
   4   3  10 338.253 3.83822   1
   5   4  10 398.384 5.18222  -2
   5   3  10 398.384 5.18222   1
   6   3  10 38.8379 1.34716   1
   7   5  10 24.1210 2.25370  -2
   7   3  10 24.1210 2.25370   1
   8   3  10 4.20448 1.38630   1
   9   6  10 18.1288 3.16265  -2
   9   3  10 18.1288 3.16265   1
  10   3  10 25.7620 2.14877   1
  11   7  10 40.6671 4.58277  -2
  11   3  10 40.6671 4.58277   1
  12   7  10 -0.8230 4.88889  -2
  12   3  10 -0.8230 4.88889   1
  13   8  10 22.3981 9.87223  -2
  13   3  10 22.3981 9.87223   1
  -7   4  10 11.4908 2.17400   1
  -6  -2  10 4.33541 2.74810  -2
  -6   4  10 4.33541 2.74810   1
  -5   4  10 9.58627 1.61386   1
  -4  -1  10 68.5492 3.71344  -2
  -4   4  10 68.5492 3.71344   1
  -3   4  10 -0.3485 1.36629   1
  -2   0  10 71.0650 2.89061  -2
  -2   4  10 71.0650 2.89061   1
  -1   0  10 7.38848 3.01955  -2
  -1   4  10 7.38848 3.01955   1
   0   4  10 13.2057 0.86327   1
   1   1  10 74.5184 1.54718  -2
   1   4  10 74.5184 1.54718   1
   2   4  10 54.7658 1.10186   1
   3   2  10 216.901 2.70688  -2
   3   4  10 216.901 2.70688   1
   4   4  10 179.249 2.38881   1
   5   3  10 385.509 5.10122  -2
   5   4  10 385.509 5.10122   1
   6   4  10 16.9635 1.14934   1
   7   4  10 286.811 5.16894  -2
   7   4  10 286.811 5.16894   1
   8   4  10 318.563 5.64720   1
   9   5  10 352.384 6.61407  -2
   9   4  10 352.384 6.61407   1
  10   5  10 131.089 7.61535  -2
  10   4  10 131.089 7.61535   1
  11   6  10 79.3977 4.76863  -2
  11   4  10 79.3977 4.76863   1
  12   6  10 84.9846 5.21071  -2
  12   4  10 84.9846 5.21071   1
  13   7  10 26.9273 10.1224  -2
  13   4  10 26.9273 10.1224   1
  -7   5  10 76.6306 4.14988   1
  -6  -3  10 31.7838 3.96863  -2
  -6   5  10 31.7838 3.96863   1
  -5   5  10 13.3363 2.29328   1
  -4  -2  10 145.178 4.77843  -2
  -4   5  10 145.178 4.77843   1
  -3   5  10 17.2233 1.84847   1
  -2  -1  10 84.3969 3.23725  -2
  -2   5  10 84.3969 3.23725   1
  -1  -1  10 57.9595 3.78225  -2
  -1   5  10 57.9595 3.78225   1
   0   0  10 241.378 7.18018  -2
   0   5  10 241.378 7.18018   1
   1   0  10 2.46885 1.67016  -2
   1   5  10 2.46885 1.67016   1
   2   5  10 13.1114 0.85862   1
   3   1  10 6.44350 1.30025  -2
   3   5  10 6.44350 1.30025   1
   4   5  10 2.85605 0.76306   1
   5   2  10 109.574 2.18049  -2
   5   5  10 109.574 2.18049   1
   6   5  10 56.4784 2.09941   1
   7   3  10 24.0472 2.34936  -2
   7   5  10 24.0472 2.34936   1
   8   5  10 73.9908 2.72642   1
   9   4  10 350.781 6.62992  -2
   9   5  10 350.781 6.62992   1
  10   4  10 146.675 8.31060  -2
  10   5  10 146.675 8.31060   1
  11   5  10 44.0042 4.52626  -2
  11   5  10 44.0042 4.52626   1
  12   5  10 85.0859 5.32613  -2
  12   5  10 85.0859 5.32613   1
  13   6  10 124.205 10.7544  -2
  13   5  10 124.205 10.7544   1
  14   6  10 127.340 11.4084  -2
  14   5  10 127.340 11.4084   1
  -6  -4  10 135.721 5.47111  -2
  -6   6  10 135.721 5.47111   1
  -5   6  10 35.0466 2.88866   1
  -4  -3  10 118.232 4.81913  -2
  -4   6  10 118.232 4.81913   1
  -3   6  10 92.2477 3.61514   1
  -2  -2  10 69.5223 3.75074  -2
  -2   6  10 69.5223 3.75074   1
  -1  -2  10 298.299 7.31081  -2
  -1   6  10 298.299 7.31081   1
   0  -1  10 478.920 12.4408  -2
   0   6  10 478.920 12.4408   1
   1  -1  10 -1.6553 2.43357  -2
   1   6  10 -1.6553 2.43357   1
   2   6  10 11.7817 1.04570   1
   3   0  10 29.5154 1.76763  -2
   3   6  10 29.5154 1.76763   1
   4   6  10 48.2853 1.63742   1
   5   1  10 71.5806 2.50374  -2
   5   6  10 71.5806 2.50374   1
   6   6  10 20.2007 1.63724   1
   7   2  10 52.5407 3.03481  -2
   7   6  10 52.5407 3.03481   1
   8   6  10 1.29263 1.39946   1
   9   3  10 20.3480 3.42005  -2
   9   6  10 20.3480 3.42005   1
  10   3  10 60.1965 7.37742  -2
  10   6  10 60.1965 7.37742   1
  11   4  10 75.5885 4.78316  -2
  11   6  10 75.5885 4.78316   1
  12   4  10 84.4500 5.32448  -2
  12   6  10 84.4500 5.32448   1
  13   5  10 134.551 8.51276  -2
  13   6  10 134.551 8.51276   1
  14   5  10 151.975 11.3565  -2
  14   6  10 151.975 11.3565   1
  -6  -5  10 71.9809 5.00225  -2
  -6   7  10 71.9809 5.00225   1
  -5   7  10 15.2577 2.79012   1
  -4  -4  10 31.5676 5.94778  -2
  -4   7  10 31.5676 5.94778   1
  -3   7  10 85.5046 3.67409   1
  -2  -3  10 221.011 8.28891  -2
  -2   7  10 221.011 8.28891   1
  -1  -3  10 197.134 5.60124  -2
  -1   7  10 197.134 5.60124   1
   0  -2  10 211.979 5.35752  -2
   0   7  10 211.979 5.35752   1
   1  -2  10 11.0785 2.85102  -2
   1   7  10 11.0785 2.85102   1
   2   7  10 62.5605 2.58748   1
   3  -1  10 204.993 4.59054  -2
   3   7  10 204.993 4.59054   1
   4   7  10 105.430 3.09727   1
   5   0  10 214.281 4.72452  -2
   5   7  10 214.281 4.72452   1
   6   7  10 4.94145 1.49428   1
   7   1  10 7.56036 2.87507  -2
   7   7  10 7.56036 2.87507   1
   8   7  10 3.60904 1.70914   1
   9   2  10 29.7954 4.09720  -2
   9   7  10 29.7954 4.09720   1
  10   2  10 -0.7896 4.90764  -2
  10   7  10 -0.7896 4.90764   1
  11   3  10 40.7760 4.90421  -2
  11   7  10 40.7760 4.90421   1
  12   3  10 6.45528 4.96678  -2
  12   7  10 6.45528 4.96678   1
  13   4  10 21.1319 7.90152  -2
  13   7  10 21.1319 7.90152   1
  -5   8  10 8.56526 2.88249   1
  -4  -5  10 -0.0259 6.38015  -2
  -4   8  10 -0.0259 6.38015   1
  -3   8  10 7.95017 2.31198   1
  -2  -4  10 213.194 6.29481  -2
  -2   8  10 213.194 6.29481   1
  -1  -4  10 46.7833 6.49460  -2
  -1   8  10 46.7833 6.49460   1
   0  -3  10 36.3607 5.74796  -2
   0   8  10 36.3607 5.74796   1
   1  -3  10 179.457 5.10745  -2
   1   8  10 179.457 5.10745   1
   2   8  10 168.511 4.33658   1
   3  -2  10 373.733 7.32257  -2
   3   8  10 373.733 7.32257   1
   4   8  10 85.9358 3.16162   1
   5  -1  10 99.4565 3.37701  -2
   5   8  10 99.4565 3.37701   1
   6   8  10 63.2990 2.74633   1
   7   0  10 191.539 5.19956  -2
   7   8  10 191.539 5.19956   1
   8   8  10 88.3996 3.59377   1
   9   1  10 143.100 5.60898  -2
   9   8  10 143.100 5.60898   1
  10   1  10 59.1392 5.65415  -2
  10   8  10 59.1392 5.65415   1
  11   2  10 1.25421 5.68331  -2
  11   8  10 1.25421 5.68331   1
  12   2  10 0.87044 8.89308  -2
  12   8  10 0.87044 8.89308   1
  13   3  10 15.3431 10.6823  -2
  13   8  10 15.3431 10.6823   1
  -5   9  10 0.40874 3.02270   1
  -4  -6  10 2.80090 5.20086  -2
  -4   9  10 2.80090 5.20086   1
  -3   9  10 6.71844 2.56634   1
  -2  -5  10 52.4105 5.10574  -2
  -2   9  10 52.4105 5.10574   1
  -1  -5  10 4.93013 4.82478  -2
  -1   9  10 4.93013 4.82478   1
   0  -4  10 21.2189 6.31844  -2
   0   9  10 21.2189 6.31844   1
   1  -4  10 132.076 4.95721  -2
   1   9  10 132.076 4.95721   1
   2   9  10 108.617 3.88646   1
   3  -3  10 44.8314 3.23692  -2
   3   9  10 44.8314 3.23692   1
   4   9  10 4.77956 1.70352   1
   5  -2  10 126.782 4.03797  -2
   5   9  10 126.782 4.03797   1
   6   9  10 197.982 5.14834   1
   7  -1  10 318.628 7.09458  -2
   7   9  10 318.628 7.09458   1
   8   9  10 79.7365 3.49675   1
   9   0  10 104.459 5.42752  -2
   9   9  10 104.459 5.42752   1
  10   0  10 174.303 7.29355  -2
  10   9  10 174.303 7.29355   1
  11   1  10 72.7422 6.81970  -2
  11   9  10 72.7422 6.81970   1
  12   1  10 42.6256 9.95561  -2
  12   9  10 42.6256 9.95561   1
  13   2  10 47.0070 11.5276  -2
  13   9  10 47.0070 11.5276   1
  -4  -7  10 13.2550 5.64427  -2
  -4  10  10 13.2550 5.64427   1
  -3  10  10 34.5948 3.45332   1
  -2  -6  10 80.3592 5.96692  -2
  -2  10  10 80.3592 5.96692   1
  -1  -6  10 58.4440 5.90524  -2
  -1  10  10 58.4440 5.90524   1
   0  -5  10 66.5230 5.39925  -2
   0  10  10 66.5230 5.39925   1
   1  -5  10 -2.0409 4.23397  -2
   1  10  10 -2.0409 4.23397   1
   2  10  10 0.61671 1.98760   1
   3  -4  10 -1.5342 3.22646  -2
   3  10  10 -1.5342 3.22646   1
   4  10  10 -0.6287 1.84037   1
   5  -3  10 -3.3289 2.89673  -2
   5  10  10 -3.3289 2.89673   1
   6  10  10 55.3077 3.09046   1
   7  -2  10 134.997 4.93679  -2
   7  10  10 134.997 4.93679   1
   8  10  10 0.15196 2.18588   1
   9  -1  10 9.31595 4.90877  -2
   9  10  10 9.31595 4.90877   1
  10  -1  10 156.746 7.51775  -2
  10  10  10 156.746 7.51775   1
  11   0  10 270.680 12.9799  -2
  11  10  10 270.680 12.9799   1
  12   0  10 110.458 11.0685  -2
  12  10  10 110.458 11.0685   1
  13   1  10 35.4095 12.5436  -2
  13  10  10 35.4095 12.5436   1
  -3  11  10 34.2836 3.75805   1
  -2  -7  10 164.120 7.52540  -2
  -2  11  10 164.120 7.52540   1
  -1  -7  10 85.8425 7.00791  -2
  -1  11  10 85.8425 7.00791   1
   0  -6  10 1.37305 5.77632  -2
   0  11  10 1.37305 5.77632   1
   1  -6  10 4.16825 5.08872  -2
   1  11  10 4.16825 5.08872   1
   2  11  10 28.9219 2.86303   1
   3  -5  10 58.3489 4.30687  -2
   3  11  10 58.3489 4.30687   1
   4  11  10 2.59173 2.17481   1
   5  -4  10 3.29696 3.45251  -2
   5  11  10 3.29696 3.45251   1
   6  11  10 4.16672 2.31175   1
   7  -3  10 10.7941 4.07448  -2
   7  11  10 10.7941 4.07448   1
   8  11  10 17.4658 2.83372   1
   9  -2  10 1.92490 5.44306  -2
   9  11  10 1.92490 5.44306   1
  10  -2  10 17.0641 9.91065  -2
  10  11  10 17.0641 9.91065   1
  11  -1  10 143.722 11.3767  -2
  11  11  10 143.722 11.3767   1
  12  -1  10 34.0562 11.1892  -2
  12  11  10 34.0562 11.1892   1
  -2  -8  10 96.2885 11.0623  -2
  -2  12  10 96.2885 11.0623   1
  -1  -8  10 52.6952 7.74614  -2
  -1  12  10 52.6952 7.74614   1
   0  -7  10 42.8819 6.87091  -2
   0  12  10 42.8819 6.87091   1
   1  -7  10 195.930 7.44642  -2
   1  12  10 195.930 7.44642   1
   2  12  10 108.195 4.62863   1
   3  -6  10 184.579 6.23273  -2
   3  12  10 184.579 6.23273   1
   4  12  10 15.2280 2.82217   1
   5  -5  10 15.1886 3.96152  -2
   5  12  10 15.1886 3.96152   1
   6  12  10 60.2184 3.67351   1
   7  -4  10 134.371 5.90596  -2
   7  12  10 134.371 5.90596   1
   8  12  10 1.21076 2.80457   1
   9  -3  10 -5.1377 8.60587  -2
   9  12  10 -5.1377 8.60587   1
  10  -3  10 31.0777 10.9305  -2
  10  12  10 31.0777 10.9305   1
  11  -2  10 9.07314 11.4661  -2
  11  12  10 9.07314 11.4661   1
  -1  13  10 11.6778 5.15687   1
   0  -8  10 47.1519 11.1007  -2
   0  13  10 47.1519 11.1007   1
   1  -8  10 176.633 11.5148  -2
   1  13  10 176.633 11.5148   1
   2  13  10 29.5711 3.57595   1
   3  -7  10 20.8642 5.11101  -2
   3  13  10 20.8642 5.11101   1
   4  13  10 42.9259 3.71372   1
   5  -6  10 89.7910 5.35092  -2
   5  13  10 89.7910 5.35092   1
   6  13  10 96.8379 4.72816   1
   7  -5  10 188.214 10.0952  -2
   7  13  10 188.214 10.0952   1
   8  13  10 22.6596 4.96452   1
   9  -4  10 20.8546 9.90091  -2
   9  13  10 20.8546 9.90091   1
  10  -4  10 64.3787 12.4345  -2
  10  13  10 64.3787 12.4345   1
   1  14  10 16.3917 5.44207   1
   2  14  10 4.30130 4.91079   1
   3  -8  10 -0.3257 8.44964  -2
   3  14  10 -0.3257 8.44964   1
   4  14  10 32.3453 5.55546   1
   5  -7  10 69.7428 8.40014  -2
   5  14  10 69.7428 8.40014   1
   6  14  10 26.2714 5.43372   1
   7  -6  10 79.2941 9.39908  -2
   7  14  10 79.2941 9.39908   1
   8  -6  10 46.6541 12.4940  -2
   8  14  10 46.6541 12.4940   1
   9  -5  10 37.9924 11.3956  -2
   9  14  10 37.9924 11.3956   1
  -2  11  11 16.9919 5.14482  -2
  -2  -7  11 16.9919 5.14482   1
  -1  12  11 14.4921 5.08781  -2
  -1  -7  11 14.4921 5.08781   1
   0  12  11 21.3693 4.77503  -2
   0  -7  11 21.3693 4.77503   1
   1  -7  11 34.0199 2.74112   1
   2  13  11 4.01758 4.32436  -2
   2  -7  11 4.01758 4.32436   1
   3  -7  11 1.29744 2.31808   1
   4  14  11 10.6378 3.90118  -2
   4  -7  11 10.6378 3.90118   1
   5  -7  11 24.7284 3.05926   1
  -4  -6  11 60.6616 3.17995   1
  -3  10  11 87.7408 5.08028  -2
  -3  -6  11 87.7408 5.08028   1
  -2  10  11 11.9280 4.50356  -2
  -2  -6  11 11.9280 4.50356   1
  -1  11  11 45.2562 4.63599  -2
  -1  -6  11 45.2562 4.63599   1
   0  11  11 0.84061 3.94095  -2
   0  -6  11 0.84061 3.94095   1
   1  -6  11 -0.1916 1.82779   1
   2  12  11 106.061 4.59586  -2
   2  -6  11 106.061 4.59586   1
   3  -6  11 58.1005 3.00108   1
   4  13  11 4.29473 3.42333  -2
   4  -6  11 4.29473 3.42333   1
   5  -6  11 4.52644 2.38086   1
   6  14  11 6.80478 4.59817  -2
   6  -6  11 6.80478 4.59817   1
   7  -6  11 7.16260 2.88568   1
  -5  -5  11 11.6174 2.37040   1
  -4   8  11 94.1497 7.74791  -2
  -4  -5  11 94.1497 7.74791   1
  -3   9  11 187.792 5.62682  -2
  -3  -5  11 187.792 5.62682   1
  -2   9  11 70.9022 4.30345  -2
  -2  -5  11 70.9022 4.30345   1
  -1  10  11 36.6492 3.86653  -2
  -1  -5  11 36.6492 3.86653   1
   0  10  11 89.4319 3.92658  -2
   0  -5  11 89.4319 3.92658   1
   1  -5  11 56.6187 2.52672   1
   2  11  11 136.999 4.42359  -2
   2  -5  11 136.999 4.42359   1
   3  -5  11 16.2117 1.96712   1
   4  12  11 12.4363 3.01964  -2
   4  -5  11 12.4363 3.01964   1
   5  -5  11 10.6351 2.14845   1
   6  13  11 -1.3967 3.93905  -2
   6  -5  11 -1.3967 3.93905   1
   7  -5  11 2.91990 2.47783   1
   8  14  11 -4.2262 5.55003  -2
   8  -5  11 -4.2262 5.55003   1
  -5   7  11 32.6991 4.02184  -2
  -5  -4  11 32.6991 4.02184   1
  -4   7  11 18.0106 6.50210  -2
  -4  -4  11 18.0106 6.50210   1
  -3   8  11 63.1508 3.97318  -2
  -3  -4  11 63.1508 3.97318   1
  -2   8  11 89.0168 3.86222  -2
  -2  -4  11 89.0168 3.86222   1
  -1   9  11 95.3800 3.78300  -2
  -1  -4  11 95.3800 3.78300   1
   0   9  11 385.904 7.24466  -2
   0  -4  11 385.904 7.24466   1
   1  -4  11 158.403 3.79674   1
   2  10  11 64.4283 3.10409  -2
   2  -4  11 64.4283 3.10409   1
   3  -4  11 8.56206 1.58877   1
   4  11  11 35.8140 2.79286  -2
   4  -4  11 35.8140 2.79286   1
   5  -4  11 145.987 4.32609   1
   6  12  11 199.739 5.59221  -2
   6  -4  11 199.739 5.59221   1
   7  -4  11 3.56860 2.15193   1
   8  13  11 31.3308 5.20648  -2
   8  -4  11 31.3308 5.20648   1
   9  13  11 52.3464 9.25926  -2
   9  -4  11 52.3464 9.25926   1
  -6  -3  11 2.12548 2.03837   1
  -5   6  11 3.88968 3.53986  -2
  -5  -3  11 3.88968 3.53986   1
  -4   6  11 35.1210 5.92636  -2
  -4  -3  11 35.1210 5.92636   1
  -3   7  11 0.63248 3.08682  -2
  -3  -3  11 0.63248 3.08682   1
  -2   7  11 44.7247 5.11752  -2
  -2  -3  11 44.7247 5.11752   1
  -1   8  11 32.1644 4.73073  -2
  -1  -3  11 32.1644 4.73073   1
   0   8  11 105.208 4.82410  -2
   0  -3  11 105.208 4.82410   1
   1  -3  11 65.4001 3.53756   1
   2   9  11 16.5863 2.10298  -2
   2  -3  11 16.5863 2.10298   1
   3  -3  11 6.31547 1.28265   1
   4  10  11 118.717 3.32500  -2
   4  -3  11 118.717 3.32500   1
   5  -3  11 91.2608 3.30350   1
   6  11  11 191.156 5.10929  -2
   6  -3  11 191.156 5.10929   1
   7  -3  11 31.2854 2.53026   1
   8  12  11 41.0116 4.84205  -2
   8  -3  11 41.0116 4.84205   1
   9  12  11 168.574 9.89385  -2
   9  -3  11 168.574 9.89385   1
  10  13  11 71.4474 6.66268  -2
  10  -3  11 71.4474 6.66268   1
  -6  -2  11 11.9475 2.20306   1
  -5   5  11 25.0624 3.47846  -2
  -5  -2  11 25.0624 3.47846   1
  -4  -2  11 53.8614 2.40455   1
  -3   6  11 96.7227 3.45334  -2
  -3  -2  11 96.7227 3.45334   1
  -2   6  11 7.11631 4.25976  -2
  -2  -2  11 7.11631 4.25976   1
  -1   7  11 3.75438 3.97425  -2
  -1  -2  11 3.75438 3.97425   1
   0   7  11 -0.9199 1.90222  -2
   0  -2  11 -0.9199 1.90222   1
   1  -2  11 -0.0662 0.95352   1
   2   8  11 33.2762 2.08854  -2
   2  -2  11 33.2762 2.08854   1
   3  -2  11 -0.0073 1.06896   1
   4   9  11 49.3097 2.16024  -2
   4  -2  11 49.3097 2.16024   1
   5  -2  11 10.8126 1.48218   1
   6  10  11 40.8103 3.01517  -2
   6  -2  11 40.8103 3.01517   1
   7  -2  11 90.7415 3.57952   1
   8  11  11 96.2102 4.79927  -2
   8  -2  11 96.2102 4.79927   1
   9  11  11 121.757 8.56807  -2
   9  -2  11 121.757 8.56807   1
  10  12  11 145.565 6.74306  -2
  10  -2  11 145.565 6.74306   1
  11  12  11 37.8975 6.24088  -2
  11  -2  11 37.8975 6.24088   1
  -6  -1  11 17.8131 2.29161   1
  -5   4  11 116.329 4.28891  -2
  -5  -1  11 116.329 4.28891   1
  -4   4  11 63.0884 4.78555  -2
  -4  -1  11 63.0884 4.78555   1
  -3   5  11 157.610 4.07620  -2
  -3  -1  11 157.610 4.07620   1
  -2   5  11 86.3769 4.24622  -2
  -2  -1  11 86.3769 4.24622   1
  -1   6  11 12.9037 3.17784  -2
  -1  -1  11 12.9037 3.17784   1
   0   6  11 126.037 3.97945  -2
   0  -1  11 126.037 3.97945   1
   2   7  11 104.405 2.23030  -2
   2  -1  11 104.405 2.23030   1
   3  -1  11 0.24154 0.79574   1
   4   8  11 0.33147 1.19879  -2
   4  -1  11 0.33147 1.19879   1
   5  -1  11 16.6369 1.33559   1
   6   9  11 4.04903 2.40620  -2
   6  -1  11 4.04903 2.40620   1
   7  -1  11 127.675 3.40958   1
   8  10  11 86.0348 4.32225  -2
   8  -1  11 86.0348 4.32225   1
   9  -1  11 7.16295 2.16911   1
  10  11  11 80.3271 5.82634  -2
  10  -1  11 80.3271 5.82634   1
  11  11  11 25.6549 5.98193  -2
  11  -1  11 25.6549 5.98193   1
  -6   0  11 22.8530 2.36067   1
  -5   3  11 107.659 4.18366  -2
  -5   0  11 107.659 4.18366   1
  -4   3  11 18.5617 4.24708  -2
  -4   0  11 18.5617 4.24708   1
  -3   4  11 31.0816 2.56789  -2
  -3   0  11 31.0816 2.56789   1
  -2   4  11 313.172 7.64179  -2
  -2   0  11 313.172 7.64179   1
  -1   0  11 221.669 4.07117   1
   1   0  11 103.337 6.57832   1
   2   6  11 10.9359 5.72595  -2
   2   0  11 10.9359 5.72595   1
   3   0  11 3.03052 3.17503   1
   4   7  11 43.4648 2.17477  -2
   4   0  11 43.4648 2.17477   1
   5   0  11 130.364 2.32244   1
   6   8  11 144.461 3.39794  -2
   6   0  11 144.461 3.39794   1
   7   0  11 4.22045 1.39550   1
   8   9  11 6.18446 3.06338  -2
   8   0  11 6.18446 3.06338   1
   9   9  11 105.556 9.90255  -2
   9   0  11 105.556 9.90255   1
  10  10  11 2.38136 4.76268  -2
  10   0  11 2.38136 4.76268   1
  11  10  11 8.97368 5.54078  -2
  11   0  11 8.97368 5.54078   1
  12   0  11 13.7587 2.78751   1
  -7   1  11 2.06408 3.37890  -2
  -7   1  11 2.06408 3.37890   1
  -6   1  11 1.54032 1.99322   1
  -5   2  11 57.0853 3.68527  -2
  -5   1  11 57.0853 3.68527   1
  -4   2  11 21.8854 4.51291  -2
  -4   1  11 21.8854 4.51291   1
  -3   3  11 38.8519 2.72781  -2
  -3   1  11 38.8519 2.72781   1
  -2   3  11 166.316 4.95483  -2
  -2   1  11 166.316 4.95483   1
  -1   1  11 102.974 2.39756   1
   0   4  11 320.207 12.3033  -2
   0   1  11 320.207 12.3033   1
   1   1  11 74.8566 5.35964   1
   2   5  11 27.9719 5.92996  -2
   2   1  11 27.9719 5.92996   1
   3   1  11 92.4410 6.25439   1
   4   6  11 286.415 4.45269  -2
   4   1  11 286.415 4.45269   1
   5   1  11 48.8524 1.44987   1
   6   7  11 254.068 4.59159  -2
   6   1  11 254.068 4.59159   1
   7   1  11 134.395 3.23686   1
   8   8  11 18.2862 2.98224  -2
   8   1  11 18.2862 2.98224   1
   9   8  11 89.1120 9.07705  -2
   9   1  11 89.1120 9.07705   1
  10   9  11 86.3122 4.66785  -2
  10   1  11 86.3122 4.66785   1
  11   9  11 12.5613 4.60245  -2
  11   1  11 12.5613 4.60245   1
  12  10  11 10.9302 9.07800  -2
  12   1  11 10.9302 9.07800   1
  -6   2  11 14.2038 2.22658   1
  -5   1  11 52.9432 3.67844  -2
  -5   2  11 52.9432 3.67844   1
  -4   2  11 7.51426 1.29842   1
  -3   2  11 3.38089 2.61632  -2
  -3   2  11 3.38089 2.61632   1
  -2   2  11 4.43142 2.86276  -2
  -2   2  11 4.43142 2.86276   1
  -1   3  11 11.1243 2.54294  -2
  -1   2  11 11.1243 2.54294   1
   0   3  11 38.0736 6.69616  -2
   0   2  11 38.0736 6.69616   1
   1   2  11 26.5629 3.72702   1
   2   4  11 -1.7445 5.49006  -2
   2   2  11 -1.7445 5.49006   1
   3   2  11 58.3808 4.89790   1
   4   5  11 213.333 3.45926  -2
   4   2  11 213.333 3.45926   1
   5   2  11 -0.6527 0.68364   1
   6   6  11 6.78203 1.83530  -2
   6   2  11 6.78203 1.83530   1
   7   2  11 302.224 5.27634   1
   8   7  11 326.825 6.07415  -2
   8   2  11 326.825 6.07415   1
   9   7  11 79.7139 9.03306  -2
   9   2  11 79.7139 9.03306   1
  10   8  11 105.812 4.62007  -2
  10   2  11 105.812 4.62007   1
  11   8  11 55.3507 4.76742  -2
  11   2  11 55.3507 4.76742   1
  12   9  11 13.8032 6.99995  -2
  12   2  11 13.8032 6.99995   1
  13   9  11 42.0764 6.56197  -2
  13   2  11 42.0764 6.56197   1
  -6   3  11 23.5098 2.08460   1
  -5   0  11 109.824 4.41386  -2
  -5   3  11 109.824 4.41386   1
  -4   3  11 4.28832 1.62164   1
  -3   1  11 36.4531 3.10731  -2
  -3   3  11 36.4531 3.10731   1
  -2   1  11 167.764 5.87788  -2
  -2   3  11 167.764 5.87788   1
  -1   2  11 13.5648 2.15906  -2
  -1   3  11 13.5648 2.15906   1
   0   2  11 33.6652 2.66191  -2
   0   3  11 33.6652 2.66191   1
   1   3  11 -2.3514 2.70425   1
   2   3  11 3.19101 5.53197  -2
   2   3  11 3.19101 5.53197   1
   3   3  11 4.48188 3.08034   1
   4   4  11 48.5960 1.54665  -2
   4   3  11 48.5960 1.54665   1
   5   3  11 15.1590 0.91212   1
   6   5  11 110.562 2.80328  -2
   6   3  11 110.562 2.80328   1
   7   3  11 369.984 6.11710   1
   8   6  11 326.238 6.09814  -2
   8   3  11 326.238 6.09814   1
   9   3  11 10.2423 1.70505   1
  10   7  11 76.5006 4.34163  -2
  10   3  11 76.5006 4.34163   1
  11   7  11 124.060 5.33101  -2
  11   3  11 124.060 5.33101   1
  12   8  11 185.144 8.23765  -2
  12   3  11 185.144 8.23765   1
  13   8  11 71.6945 6.71758  -2
  13   3  11 71.6945 6.71758   1
  -6   4  11 11.7490 2.47529   1
  -5  -1  11 111.728 4.70543  -2
  -5   4  11 111.728 4.70543   1
  -4   4  11 38.5586 2.41770   1
  -3   0  11 31.1929 3.32515  -2
  -3   4  11 31.1929 3.32515   1
  -2   0  11 360.832 10.0208  -2
  -2   4  11 360.832 10.0208   1
  -1   1  11 319.581 7.05851  -2
  -1   4  11 319.581 7.05851   1
   0   1  11 317.495 4.40991  -2
   0   4  11 317.495 4.40991   1
   1   4  11 60.5996 1.71448   1
   2   2  11 1.41429 1.01158  -2
   2   4  11 1.41429 1.01158   1
   3   4  11 28.3654 1.12947   1
   4   3  11 52.0982 1.40778  -2
   4   4  11 52.0982 1.40778   1
   5   4  11 5.74754 0.82726   1
   6   4  11 2.35441 1.80375  -2
   6   4  11 2.35441 1.80375   1
   7   4  11 15.7305 1.47346   1
   8   5  11 39.3600 3.07835  -2
   8   4  11 39.3600 3.07835   1
   9   4  11 1.79053 1.55900   1
  10   6  11 16.7910 3.89493  -2
  10   4  11 16.7910 3.89493   1
  11   6  11 79.5013 4.83637  -2
  11   4  11 79.5013 4.83637   1
  12   7  11 205.637 7.87214  -2
  12   4  11 205.637 7.87214   1
  13   7  11 39.7208 5.39011  -2
  13   4  11 39.7208 5.39011   1
  -6   5  11 3.20858 2.47908   1
  -5  -2  11 20.0197 4.07603  -2
  -5   5  11 20.0197 4.07603   1
  -4   5  11 56.1167 2.85420   1
  -3  -1  11 145.347 4.79325  -2
  -3   5  11 145.347 4.79325   1
  -2  -1  11 116.533 6.06741  -2
  -2   5  11 116.533 6.06741   1
  -1   0  11 261.508 6.55442  -2
  -1   5  11 261.508 6.55442   1
   0   0  11 417.665 6.72854  -2
   0   5  11 417.665 6.72854   1
   1   5  11 100.882 2.02685   1
   2   1  11 29.5620 1.58468  -2
   2   5  11 29.5620 1.58468   1
   3   5  11 104.954 1.99196   1
   4   2  11 212.947 3.19885  -2
   4   5  11 212.947 3.19885   1
   5   5  11 0.37048 0.83793   1
   6   3  11 109.906 2.93548  -2
   6   5  11 109.906 2.93548   1
   7   5  11 308.927 5.44258   1
   8   4  11 37.0599 3.05502  -2
   8   5  11 37.0599 3.05502   1
   9   5  11 -0.2509 1.56226   1
  10   5  11 -1.4133 3.78123  -2
  10   5  11 -1.4133 3.78123   1
  11   5  11 0.87060 4.25060  -2
  11   5  11 0.87060 4.25060   1
  12   6  11 50.4979 6.85303  -2
  12   5  11 50.4979 6.85303   1
  13   6  11 2.98796 5.09805  -2
  13   5  11 2.98796 5.09805   1
  -5  -3  11 0.59872 4.28467  -2
  -5   6  11 0.59872 4.28467   1
  -4   6  11 24.6559 2.47093   1
  -3  -2  11 88.3705 4.40110  -2
  -3   6  11 88.3705 4.40110   1
  -2  -2  11 6.24172 5.12478  -2
  -2   6  11 6.24172 5.12478   1
  -1  -1  11 19.0097 4.06691  -2
  -1   6  11 19.0097 4.06691   1
   0  -1  11 135.693 3.69914  -2
   0   6  11 135.693 3.69914   1
   1   6  11 121.949 2.91192   1
   2   0  11 21.9040 2.13404  -2
   2   6  11 21.9040 2.13404   1
   3   6  11 26.5656 1.26403   1
   4   1  11 275.562 4.73613  -2
   4   6  11 275.562 4.73613   1
   5   6  11 20.7553 1.41709   1
   6   2  11 5.51655 2.10488  -2
   6   6  11 5.51655 2.10488   1
   7   6  11 335.437 5.83080   1
   8   3  11 319.714 6.12679  -2
   8   6  11 319.714 6.12679   1
   9   3  11 7.61983 5.87936  -2
   9   6  11 7.61983 5.87936   1
  10   4  11 19.5245 4.00052  -2
  10   6  11 19.5245 4.00052   1
  11   4  11 64.1686 4.83251  -2
  11   6  11 64.1686 4.83251   1
  12   5  11 48.0801 6.92159  -2
  12   6  11 48.0801 6.92159   1
  13   5  11 -4.0227 5.08701  -2
  13   6  11 -4.0227 5.08701   1
  -5  -4  11 40.1863 4.90338  -2
  -5   7  11 40.1863 4.90338   1
  -4   7  11 3.58184 2.29828   1
  -3  -3  11 3.88030 6.07392  -2
  -3   7  11 3.88030 6.07392   1
  -2  -3  11 22.8048 6.25543  -2
  -2   7  11 22.8048 6.25543   1
  -1  -2  11 1.72705 3.28939  -2
  -1   7  11 1.72705 3.28939   1
   0  -2  11 -0.2781 2.92456  -2
   0   7  11 -0.2781 2.92456   1
   1   7  11 41.5921 1.90376   1
   2  -1  11 120.953 3.70884  -2
   2   7  11 120.953 3.70884   1
   3   7  11 5.27973 1.36706   1
   4   0  11 40.9154 2.33659  -2
   4   7  11 40.9154 2.33659   1
   5   7  11 101.455 3.14657   1
   6   1  11 247.032 5.40902  -2
   6   7  11 247.032 5.40902   1
   7   7  11 188.469 4.69933   1
   8   2  11 330.175 7.30321  -2
   8   7  11 330.175 7.30321   1
   9   2  11 74.8993 6.94681  -2
   9   7  11 74.8993 6.94681   1
  10   3  11 69.5272 4.58302  -2
  10   7  11 69.5272 4.58302   1
  11   3  11 131.134 5.58712  -2
  11   7  11 131.134 5.58712   1
  12   4  11 222.245 7.06029  -2
  12   7  11 222.245 7.06029   1
  13   4  11 38.7845 6.62219  -2
  13   7  11 38.7845 6.62219   1
  -4   8  11 30.3928 3.09493   1
  -3  -4  11 63.2960 5.10325  -2
  -3   8  11 63.2960 5.10325   1
  -2  -4  11 86.1934 8.01151  -2
  -2   8  11 86.1934 8.01151   1
  -1  -3  11 27.3672 4.25788  -2
  -1   8  11 27.3672 4.25788   1
   0  -3  11 110.569 4.63310  -2
   0   8  11 110.569 4.63310   1
   1   8  11 25.1546 2.01229   1
   2  -2  11 29.0824 3.14763  -2
   2   8  11 29.0824 3.14763   1
   3   8  11 0.49554 1.45046   1
   4  -1  11 -0.3602 2.17882  -2
   4   8  11 -0.3602 2.17882   1
   5   8  11 98.0453 3.40278   1
   6   0  11 134.799 4.12741  -2
   6   8  11 134.799 4.12741   1
   7   8  11 4.61580 1.72884   1
   8   1  11 17.5765 3.85482  -2
   8   8  11 17.5765 3.85482   1
   9   1  11 69.2491 7.53432  -2
   9   8  11 69.2491 7.53432   1
  10   2  11 107.980 5.91778  -2
  10   8  11 107.980 5.91778   1
  11   2  11 54.0339 6.03537  -2
  11   8  11 54.0339 6.03537   1
  12   3  11 155.964 6.83352  -2
  12   8  11 155.964 6.83352   1
  13   3  11 72.8335 7.00401  -2
  13   8  11 72.8335 7.00401   1
  -4   9  11 63.9035 4.02127   1
  -3  -5  11 183.071 6.99114  -2
  -3   9  11 183.071 6.99114   1
  -2  -5  11 75.1186 5.93000  -2
  -2   9  11 75.1186 5.93000   1
  -1  -4  11 100.012 5.48429  -2
  -1   9  11 100.012 5.48429   1
   0  -4  11 373.983 8.43303  -2
   0   9  11 373.983 8.43303   1
   1   9  11 139.369 4.35726   1
   2  -3  11 12.5797 3.43940  -2
   2   9  11 12.5797 3.43940   1
   3   9  11 0.27198 1.63581   1
   4  -2  11 40.4699 2.94471  -2
   4   9  11 40.4699 2.94471   1
   5   9  11 2.00121 1.71786   1
   6  -1  11 5.23344 2.94292  -2
   6   9  11 5.23344 2.94292   1
   7   9  11 115.762 4.20922   1
   8   0  11 2.33790 4.12426  -2
   8   9  11 2.33790 4.12426   1
   9   0  11 112.936 6.07930  -2
   9   9  11 112.936 6.07930   1
  10   1  11 87.4951 6.17175  -2
  10   9  11 87.4951 6.17175   1
  11   1  11 10.6267 6.22505  -2
  11   9  11 10.6267 6.22505   1
  12   2  11 19.4789 10.1428  -2
  12   9  11 19.4789 10.1428   1
  13   2  11 49.0168 7.15749  -2
  13   9  11 49.0168 7.15749   1
  -3  -6  11 81.2995 6.67393  -2
  -3  10  11 81.2995 6.67393   1
  -2  -6  11 17.9473 6.36747  -2
  -2  10  11 17.9473 6.36747   1
  -1  -5  11 30.7602 5.61661  -2
  -1  10  11 30.7602 5.61661   1
   0  -5  11 81.7348 5.58793  -2
   0  10  11 81.7348 5.58793   1
   1  10  11 105.843 4.41983   1
   2  -4  11 65.0355 4.33644  -2
   2  10  11 65.0355 4.33644   1
   3  10  11 11.4127 2.10513   1
   4  -3  11 129.575 4.44632  -2
   4  10  11 129.575 4.44632   1
   5  10  11 48.0099 2.86817   1
   6  -2  11 37.2399 3.45864  -2
   6  10  11 37.2399 3.45864   1
   7  10  11 103.428 4.21229   1
   8  -1  11 86.6672 5.19217  -2
   8  10  11 86.6672 5.19217   1
   9  -1  11 -1.0516 5.74269  -2
   9  10  11 -1.0516 5.74269   1
  10   0  11 8.07271 5.83797  -2
  10  10  11 8.07271 5.83797   1
  11   0  11 6.23279 6.65253  -2
  11  10  11 6.23279 6.65253   1
  12   1  11 11.9122 10.7944  -2
  12  10  11 11.9122 10.7944   1
  -2  -7  11 10.4649 7.06612  -2
  -2  11  11 10.4649 7.06612   1
  -1  -6  11 55.4526 6.54954  -2
  -1  11  11 55.4526 6.54954   1
   0  -6  11 10.9764 5.62322  -2
   0  11  11 10.9764 5.62322   1
   1  -5  11 62.0353 8.39842  -2
   1  11  11 62.0353 8.39842   1
   2  -5  11 130.804 5.45417  -2
   2  11  11 130.804 5.45417   1
   3  11  11 5.47672 2.31236   1
   4  -4  11 32.6392 3.73052  -2
   4  11  11 32.6392 3.73052   1
   5  11  11 148.343 5.07938   1
   6  -3  11 180.082 5.63799  -2
   6  11  11 180.082 5.63799   1
   7  11  11 40.8771 3.17549   1
   8  -2  11 105.777 5.34055  -2
   8  11  11 105.777 5.34055   1
   9  -2  11 121.614 7.31543  -2
   9  11  11 121.614 7.31543   1
  10  -1  11 85.6125 7.02705  -2
  10  11  11 85.6125 7.02705   1
  11  -1  11 18.9850 9.91863  -2
  11  11  11 18.9850 9.91863   1
  12   0  11 28.8382 11.7490  -2
  12  11  11 28.8382 11.7490   1
  -1  -7  11 22.2853 7.26018  -2
  -1  12  11 22.2853 7.26018   1
   0  -7  11 25.4349 6.53700  -2
   0  12  11 25.4349 6.53700   1
   1  -6  11 12.7042 8.68399  -2
   1  12  11 12.7042 8.68399   1
   2  -6  11 108.864 5.99213  -2
   2  12  11 108.864 5.99213   1
   3  12  11 72.5506 3.90459   1
   4  -5  11 8.86771 3.92241  -2
   4  12  11 8.86771 3.92241   1
   5  12  11 62.7985 3.77524   1
   6  -4  11 196.175 6.43832  -2
   6  12  11 196.175 6.43832   1
   7  12  11 12.2889 2.95531   1
   8  -3  11 36.2800 5.84899  -2
   8  12  11 36.2800 5.84899   1
   9  -3  11 156.517 11.7790  -2
   9  12  11 156.517 11.7790   1
  10  -2  11 154.048 11.6063  -2
  10  12  11 154.048 11.6063   1
  11  -2  11 48.1529 11.4616  -2
  11  12  11 48.1529 11.4616   1
   1  -7  11 54.5926 11.1450  -2
   1  13  11 54.5926 11.1450   1
   2  -7  11 -0.7058 5.68066  -2
   2  13  11 -0.7058 5.68066   1
   3  13  11 19.6622 3.26555   1
   4  -6  11 1.59397 4.62578  -2
   4  13  11 1.59397 4.62578   1
   5  13  11 1.72586 2.90897   1
   6  -5  11 3.16433 4.77055  -2
   6  13  11 3.16433 4.77055   1
   7  13  11 4.39308 3.11718   1
   8  -4  11 17.3891 8.91999  -2
   8  13  11 17.3891 8.91999   1
   9  -4  11 65.2167 12.0848  -2
   9  13  11 65.2167 12.0848   1
  10  -3  11 67.8077 11.3205  -2
  10  13  11 67.8077 11.3205   1
   3  14  11 3.69639 4.71808   1
   4  -7  11 10.5438 7.31032  -2
   4  14  11 10.5438 7.31032   1
   5  14  11 12.5585 5.01012   1
   6  -6  11 11.1887 8.29622  -2
   6  14  11 11.1887 8.29622   1
   7  14  11 1.25840 4.92326   1
   8  -5  11 1.89880 9.42049  -2
   8  14  11 1.89880 9.42049   1
  -1  11  12 32.0815 4.38715  -2
  -1  -6  12 32.0815 4.38715   1
   0  12  12 97.6297 6.70835  -2
   0  -6  12 97.6297 6.70835   1
   1  12  12 73.0838 4.37093  -2
   1  -6  12 73.0838 4.37093   1
   2  -6  12 21.5081 2.36371   1
   3  13  12 65.2930 3.84888  -2
   3  -6  12 65.2930 3.84888   1
   4  -6  12 25.8403 2.67296   1
  -3   9  12 10.1419 4.34586  -2
  -3  -5  12 10.1419 4.34586   1
  -2  10  12 1.13872 4.03093  -2
  -2  -5  12 1.13872 4.03093   1
  -1  10  12 1.23656 3.44017  -2
  -1  -5  12 1.23656 3.44017   1
   0  11  12 55.0000 4.89500  -2
   0  -5  12 55.0000 4.89500   1
   1  11  12 10.3482 3.20356  -2
   1  -5  12 10.3482 3.20356   1
   2  -5  12 7.45279 1.82369   1
   3  12  12 88.0639 3.61861  -2
   3  -5  12 88.0639 3.61861   1
   4  -5  12 102.324 3.98956   1
   5  13  12 83.0551 4.21438  -2
   5  -5  12 83.0551 4.21438   1
   6  -5  12 18.8275 2.63050   1
  -4  -4  12 29.7394 2.30581   1
  -3   8  12 11.3526 3.56081  -2
  -3  -4  12 11.3526 3.56081   1
  -2   9  12 10.3439 3.29739  -2
  -2  -4  12 10.3439 3.29739   1
  -1   9  12 59.7547 5.81128  -2
  -1  -4  12 59.7547 5.81128   1
   0  -4  12 8.73335 2.44655   1
   1  10  12 7.84198 2.24806  -2
   1  -4  12 7.84198 2.24806   1
   2  -4  12 15.4507 1.60055   1
   3  11  12 43.1155 2.63028  -2
   3  -4  12 43.1155 2.63028   1
   4  -4  12 18.6175 1.94168   1
   5  12  12 18.0235 3.11593  -2
   5  -4  12 18.0235 3.11593   1
   6  -4  12 1.57985 2.00001   1
   7  13  12 32.3196 4.80766  -2
   7  -4  12 32.3196 4.80766   1
   8  -4  12 58.9683 3.43280   1
  -4   7  12 93.1894 4.18880  -2
  -4  -3  12 93.1894 4.18880   1
  -3   7  12 48.8738 6.14328  -2
  -3  -3  12 48.8738 6.14328   1
  -2   8  12 48.9422 5.92123  -2
  -2  -3  12 48.9422 5.92123   1
  -1   8  12 135.648 6.12363  -2
  -1  -3  12 135.648 6.12363   1
   0  -3  12 62.0188 3.33476   1
   1   9  12 39.1959 4.11225  -2
   1  -3  12 39.1959 4.11225   1
   2  -3  12 4.89974 2.01816   1
   3  10  12 20.4775 1.96573  -2
   3  -3  12 20.4775 1.96573   1
   4  -3  12 21.7443 1.71645   1
   5  11  12 1.22602 2.51195  -2
   5  -3  12 1.22602 2.51195   1
   6  -3  12 2.07502 1.79666   1
   7  12  12 4.78332 4.05229  -2
   7  -3  12 4.78332 4.05229   1
   8  -3  12 19.0436 2.58778   1
   9  13  12 39.3840 5.93356  -2
   9  -3  12 39.3840 5.93356   1
  -5  -2  12 1.03575 1.84631   1
  -4   6  12 61.7225 3.68607  -2
  -4  -2  12 61.7225 3.68607   1
  -3   6  12 62.3272 3.03613  -2
  -3  -2  12 62.3272 3.03613   1
  -2   7  12 57.7763 5.17471  -2
  -2  -2  12 57.7763 5.17471   1
  -1   7  12 83.4824 4.80368  -2
  -1  -2  12 83.4824 4.80368   1
   0  -2  12 122.262 3.04770   1
   1   8  12 171.755 3.83757  -2
   1  -2  12 171.755 3.83757   1
   2  -2  12 36.4786 1.67266   1
   3   9  12 120.357 4.45408  -2
   3  -2  12 120.357 4.45408   1
   4  -2  12 63.0905 2.24892   1
   5  10  12 25.7036 2.35907  -2
   5  -2  12 25.7036 2.35907   1
   6  -2  12 3.20586 1.58083   1
   7  11  12 0.75588 3.60945  -2
   7  -2  12 0.75588 3.60945   1
   8  -2  12 6.19792 2.09222   1
   9  12  12 2.81416 5.05377  -2
   9  -2  12 2.81416 5.05377   1
  10  12  12 -6.5503 5.50882  -2
  10  -2  12 -6.5503 5.50882   1
  -5   4  12 18.1993 5.60382  -2
  -5  -1  12 18.1993 5.60382   1
  -4   5  12 7.29976 3.12465  -2
  -4  -1  12 7.29976 3.12465   1
  -3   5  12 75.9880 2.99188  -2
  -3  -1  12 75.9880 2.99188   1
  -2   6  12 36.8848 4.28279  -2
  -2  -1  12 36.8848 4.28279   1
  -1   6  12 4.39048 3.36411  -2
  -1  -1  12 4.39048 3.36411   1
   0  -1  12 25.2847 1.78542   1
   1   7  12 99.8551 2.33978  -2
   1  -1  12 99.8551 2.33978   1
   3   8  12 237.778 4.39162  -2
   3  -1  12 237.778 4.39162   1
   4  -1  12 157.994 3.23794   1
   5   9  12 160.997 3.62469  -2
   5  -1  12 160.997 3.62469   1
   6  -1  12 27.1507 1.72553   1
   7  10  12 128.612 4.34389  -2
   7  -1  12 128.612 4.34389   1
   8  -1  12 83.8342 3.64188   1
   9  11  12 64.4358 5.00400  -2
   9  -1  12 64.4358 5.00400   1
  10  11  12 18.7243 5.40737  -2
  10  -1  12 18.7243 5.40737   1
  -5   3  12 14.3271 5.61331  -2
  -5   0  12 14.3271 5.61331   1
  -4   4  12 3.58185 3.12015  -2
  -4   0  12 3.58185 3.12015   1
  -3   4  12 5.27580 4.15585  -2
  -3   0  12 5.27580 4.15585   1
  -2   5  12 8.19100 3.49565  -2
  -2   0  12 8.19100 3.49565   1
  -1   5  12 12.6444 2.75027  -2
  -1   0  12 12.6444 2.75027   1
   2   0  12 102.949 7.19978   1
   4   0  12 24.2121 1.62221   1
   5   8  12 108.932 2.54619  -2
   5   0  12 108.932 2.54619   1
   6   0  12 19.2676 1.46226   1
   7   9  12 76.7634 3.46449  -2
   7   0  12 76.7634 3.46449   1
   8   9  12 178.080 11.1926  -2
   8   0  12 178.080 11.1926   1
   9  10  12 138.115 5.45349  -2
   9   0  12 138.115 5.45349   1
  10  10  12 51.2116 5.35662  -2
  10   0  12 51.2116 5.35662   1
  11  11  12 57.9718 8.57952  -2
  11   0  12 57.9718 8.57952   1
  -5   2  12 24.6098 5.69487  -2
  -5   1  12 24.6098 5.69487   1
  -4   3  12 45.2884 3.34093  -2
  -4   1  12 45.2884 3.34093   1
  -3   3  12 88.0210 3.35355  -2
  -3   1  12 88.0210 3.35355   1
  -2   4  12 35.5124 3.54733  -2
  -2   1  12 35.5124 3.54733   1
  -1   4  12 22.8522 2.92349  -2
  -1   1  12 22.8522 2.92349   1
   0   1  12 13.9265 3.90817   1
   1   5  12 -3.7601 6.66878  -2
   1   1  12 -3.7601 6.66878   1
   2   1  12 2.47711 3.31922   1
   3   6  12 7.39406 5.39706  -2
   3   1  12 7.39406 5.39706   1
   4   1  12 13.0318 1.28507   1
   5   7  12 14.1147 1.69883  -2
   5   1  12 14.1147 1.69883   1
   6   1  12 29.4439 1.50008   1
   7   8  12 41.4585 2.79095  -2
   7   1  12 41.4585 2.79095   1
   8   8  12 34.4596 8.51380  -2
   8   1  12 34.4596 8.51380   1
   9   9  12 96.8414 4.24642  -2
   9   1  12 96.8414 4.24642   1
  10   9  12 85.4282 4.75810  -2
  10   1  12 85.4282 4.75810   1
  11  10  12 50.4622 6.70378  -2
  11   1  12 50.4622 6.70378   1
  12  10  12 122.656 6.88396  -2
  12   1  12 122.656 6.88396   1
  -5   2  12 9.69397 2.03300   1
  -4   2  12 128.053 4.36754  -2
  -4   2  12 128.053 4.36754   1
  -3   2  12 122.242 3.33114   1
  -2   2  12 42.2043 2.65110   1
  -1   3  12 23.2206 3.08484  -2
  -1   2  12 23.2206 3.08484   1
   0   2  12 46.9239 4.86439   1
   1   4  12 247.925 10.7401  -2
   1   2  12 247.925 10.7401   1
   2   2  12 81.8345 5.90164   1
   3   5  12 30.5068 5.62594  -2
   3   2  12 30.5068 5.62594   1
   4   2  12 10.4153 3.60158   1
   5   6  12 8.15547 1.65263  -2
   5   2  12 8.15547 1.65263   1
   6   2  12 1.40653 1.03993   1
   7   7  12 12.9880 2.46499  -2
   7   2  12 12.9880 2.46499   1
   8   7  12 11.2947 8.78465  -2
   8   2  12 11.2947 8.78465   1
   9   8  12 1.70090 3.47279  -2
   9   2  12 1.70090 3.47279   1
  10   8  12 46.6544 4.33616  -2
  10   2  12 46.6544 4.33616   1
  11   9  12 34.8622 10.5615  -2
  11   2  12 34.8622 10.5615   1
  12   9  12 44.1627 5.21271  -2
  12   2  12 44.1627 5.21271   1
  -5   3  12 9.67520 2.09974   1
  -4   1  12 48.2772 3.71075  -2
  -4   3  12 48.2772 3.71075   1
  -3   3  12 53.6410 2.31924   1
  -2   2  12 99.1138 4.40293  -2
  -2   3  12 99.1138 4.40293   1
  -1   2  12 20.2749 2.95636  -2
  -1   3  12 20.2749 2.95636   1
   0   3  12 60.3241 1.80858   1
   1   3  12 230.791 3.67366  -2
   1   3  12 230.791 3.67366   1
   2   3  12 226.166 9.49671   1
   3   4  12 306.907 11.5999  -2
   3   3  12 306.907 11.5999   1
   4   3  12 39.9717 1.44671   1
   5   5  12 69.5062 1.67845  -2
   5   3  12 69.5062 1.67845   1
   6   3  12 36.5283 1.59995   1
   7   6  12 74.3661 2.97086  -2
   7   3  12 74.3661 2.97086   1
   8   3  12 19.4163 1.73127   1
   9   7  12 14.8444 3.47850  -2
   9   3  12 14.8444 3.47850   1
  10   7  12 -0.2284 3.94974  -2
  10   3  12 -0.2284 3.94974   1
  11   8  12 12.7367 5.93923  -2
  11   3  12 12.7367 5.93923   1
  12   8  12 -3.5718 4.80763  -2
  12   3  12 -3.5718 4.80763   1
  -5   4  12 9.47198 2.21939   1
  -4   0  12 2.23109 3.75260  -2
  -4   4  12 2.23109 3.75260   1
  -3   0  12 3.07532 5.04952  -2
  -3   4  12 3.07532 5.04952   1
  -2   1  12 36.4065 2.94869  -2
  -2   4  12 36.4065 2.94869   1
  -1   1  12 30.4906 2.49097  -2
  -1   4  12 30.4906 2.49097   1
   0   4  12 52.7306 1.83518   1
   1   2  12 228.122 4.05058  -2
   1   4  12 228.122 4.05058   1
   2   4  12 163.649 2.92786   1
   3   3  12 294.170 4.67796  -2
   3   4  12 294.170 4.67796   1
   4   4  12 73.9351 1.97892   1
   5   4  12 292.419 4.10028  -2
   5   4  12 292.419 4.10028   1
   6   4  12 126.601 2.89047   1
   7   5  12 123.321 3.52593  -2
   7   4  12 123.321 3.52593   1
   8   4  12 49.7976 2.23301   1
   9   6  12 33.7940 3.73690  -2
   9   4  12 33.7940 3.73690   1
  10   6  12 100.262 4.71672  -2
  10   4  12 100.262 4.71672   1
  11   7  12 40.6747 6.11502  -2
  11   4  12 40.6747 6.11502   1
  12   7  12 52.5415 5.04156  -2
  12   4  12 52.5415 5.04156   1
  -5   5  12 0.93844 2.21559   1
  -4  -1  12 10.6921 4.08428  -2
  -4   5  12 10.6921 4.08428   1
  -3  -1  12 80.4997 6.63707  -2
  -3   5  12 80.4997 6.63707   1
  -2   0  12 4.77026 3.33265  -2
  -2   5  12 4.77026 3.33265   1
  -1   0  12 13.3567 2.71474  -2
  -1   5  12 13.3567 2.71474   1
   0   5  12 1.81237 1.06840   1
   1   1  12 0.99972 2.30870  -2
   1   5  12 0.99972 2.30870   1
   2   5  12 6.26377 0.79026   1
   3   2  12 32.5561 1.34906  -2
   3   5  12 32.5561 1.34906   1
   4   5  12 14.3013 0.96009   1
   5   3  12 64.8498 2.23280  -2
   5   5  12 64.8498 2.23280   1
   6   5  12 46.2282 1.86708   1
   7   4  12 119.861 3.54567  -2
   7   5  12 119.861 3.54567   1
   8   5  12 46.2761 2.22765   1
   9   5  12 149.259 4.70170  -2
   9   5  12 149.259 4.70170   1
  10   5  12 233.726 5.99171  -2
  10   5  12 233.726 5.99171   1
  11   6  12 104.351 6.74758  -2
  11   5  12 104.351 6.74758   1
  12   6  12 98.6781 5.33410  -2
  12   5  12 98.6781 5.33410   1
  13   5  12 25.8698 3.08278   1
  -4  -2  12 56.8310 4.77169  -2
  -4   6  12 56.8310 4.77169   1
  -3  -2  12 66.1800 4.70784  -2
  -3   6  12 66.1800 4.70784   1
  -2  -1  12 32.7019 3.79815  -2
  -2   6  12 32.7019 3.79815   1
  -1  -1  12 -4.4984 4.53885  -2
  -1   6  12 -4.4984 4.53885   1
   0   6  12 1.76791 1.24474   1
   1   0  12 101.660 3.03815  -2
   1   6  12 101.660 3.03815   1
   2   6  12 51.0215 1.98426   1
   3   1  12 1.62712 1.67375  -2
   3   6  12 1.62712 1.67375   1
   4   6  12 17.7441 1.34774   1
   5   2  12 5.50995 1.82707  -2
   5   6  12 5.50995 1.82707   1
   6   6  12 8.19678 1.33335   1
   7   3  12 71.3564 3.15686  -2
   7   6  12 71.3564 3.15686   1
   8   6  12 31.2751 1.99200   1
   9   4  12 34.7847 3.76464  -2
   9   6  12 34.7847 3.76464   1
  10   4  12 101.717 4.70694  -2
  10   6  12 101.717 4.70694   1
  11   5  12 112.171 5.46673  -2
  11   6  12 112.171 5.46673   1
  12   5  12 101.014 5.35328  -2
  12   6  12 101.014 5.35328   1
  13   6  12 34.6553 3.19765   1
  -4  -3  12 103.564 7.95456  -2
  -4   7  12 103.564 7.95456   1
  -3  -3  12 46.3307 7.50980  -2
  -3   7  12 46.3307 7.50980   1
  -2  -2  12 52.9094 6.61524  -2
  -2   7  12 52.9094 6.61524   1
  -1  -2  12 79.4018 4.35621  -2
  -1   7  12 79.4018 4.35621   1
   0  -1  12 112.675 9.56978  -2
   0   7  12 112.675 9.56978   1
   1  -1  12 113.404 3.50294  -2
   1   7  12 113.404 3.50294   1
   2   7  12 96.1987 2.77261   1
   3   0  12 152.336 3.47146  -2
   3   7  12 152.336 3.47146   1
   4   7  12 0.82459 1.18069   1
   5   1  12 15.2245 2.11617  -2
   5   7  12 15.2245 2.11617   1
   6   7  12 30.3346 1.86717   1
   7   2  12 13.4381 2.98693  -2
   7   7  12 13.4381 2.98693   1
   8   2  12 8.93256 5.87156  -2
   8   7  12 8.93256 5.87156   1
   9   3  12 14.7849 3.81784  -2
   9   7  12 14.7849 3.81784   1
  10   3  12 5.47606 4.34250  -2
  10   7  12 5.47606 4.34250   1
  11   4  12 34.1558 5.06000  -2
  11   7  12 34.1558 5.06000   1
  12   4  12 47.8276 5.12697  -2
  12   7  12 47.8276 5.12697   1
  13   7  12 16.6389 3.01585   1
  -3  -4  12 5.29112 5.66293  -2
  -3   8  12 5.29112 5.66293   1
  -2  -3  12 49.7048 5.10048  -2
  -2   8  12 49.7048 5.10048   1
  -1  -3  12 128.969 5.33387  -2
  -1   8  12 128.969 5.33387   1
   0   8  12 93.4805 3.21511   1
   1  -2  12 160.286 4.33201  -2
   1   8  12 160.286 4.33201   1
   2   8  12 65.1909 2.73296   1
   3  -1  12 239.416 5.28389  -2
   3   8  12 239.416 5.28389   1
   4   8  12 137.439 3.88466   1
   5   0  12 108.992 3.64932  -2
   5   8  12 108.992 3.64932   1
   6   8  12 16.0304 1.88651   1
   7   1  12 38.5908 3.71047  -2
   7   8  12 38.5908 3.71047   1
   8   1  12 29.9524 6.66421  -2
   8   8  12 29.9524 6.66421   1
   9   2  12 -0.0705 4.09463  -2
   9   8  12 -0.0705 4.09463   1
  10   2  12 44.2815 4.84556  -2
  10   8  12 44.2815 4.84556   1
  11   3  12 10.5719 6.68928  -2
  11   8  12 10.5719 6.68928   1
  12   3  12 3.07839 5.03444  -2
  12   8  12 3.07839 5.03444   1
  -3  -5  12 -1.2215 6.21858  -2
  -3   9  12 -1.2215 6.21858   1
  -2  -4  12 10.6406 5.37471  -2
  -2   9  12 10.6406 5.37471   1
  -1  -4  12 64.1232 5.25279  -2
  -1   9  12 64.1232 5.25279   1
   0   9  12 39.7360 2.68294   1
   1  -3  12 38.3672 3.98437  -2
   1   9  12 38.3672 3.98437   1
   2   9  12 19.0885 2.13598   1
   3  -2  12 117.125 3.90774  -2
   3   9  12 117.125 3.90774   1
   4   9  12 104.498 3.74738   1
   5  -1  12 161.393 4.58828  -2
   5   9  12 161.393 4.58828   1
   6   9  12 30.3132 2.39882   1
   7   0  12 87.6162 4.56628  -2
   7   9  12 87.6162 4.56628   1
   8   0  12 195.284 6.58358  -2
   8   9  12 195.284 6.58358   1
   9   1  12 105.731 5.82709  -2
   9   9  12 105.731 5.82709   1
  10   1  12 89.1180 6.19287  -2
  10   9  12 89.1180 6.19287   1
  11   2  12 51.7409 6.91588  -2
  11   9  12 51.7409 6.91588   1
  12   2  12 44.9165 5.52624  -2
  12   9  12 44.9165 5.52624   1
  -2  -5  12 2.53737 5.89767  -2
  -2  10  12 2.53737 5.89767   1
  -1  -5  12 2.43945 5.47528  -2
  -1  10  12 2.43945 5.47528   1
   0  10  12 7.72943 2.42312   1
   1  -4  12 5.74995 4.24461  -2
   1  10  12 5.74995 4.24461   1
   2  10  12 0.03845 2.04112   1
   3  -3  12 15.7831 3.19339  -2
   3  10  12 15.7831 3.19339   1
   4  10  12 37.5043 2.67837   1
   5  -2  12 21.0309 3.24895  -2
   5  10  12 21.0309 3.24895   1
   6  10  12 8.47030 2.15686   1
   7  -1  12 129.057 5.07601  -2
   7  10  12 129.057 5.07601   1
   8  -1  12 198.207 7.21493  -2
   8  10  12 198.207 7.21493   1
   9   0  12 129.242 6.42170  -2
   9  10  12 129.242 6.42170   1
  10   0  12 51.6646 6.50855  -2
  10  10  12 51.6646 6.50855   1
  11   1  12 46.1557 7.14057  -2
  11  10  12 46.1557 7.14057   1
  12   1  12 134.630 11.0824  -2
  12  10  12 134.630 11.0824   1
  -1  -6  12 21.5851 6.41164  -2
  -1  11  12 21.5851 6.41164   1
   0  -5  12 47.5069 9.05446  -2
   0  11  12 47.5069 9.05446   1
   1  -5  12 5.92630 4.91728  -2
   1  11  12 5.92630 4.91728   1
   2  11  12 7.24274 2.49914   1
   3  -4  12 45.8739 3.94289  -2
   3  11  12 45.8739 3.94289   1
   4  11  12 0.68163 2.20893   1
   5  -3  12 2.60669 3.44673  -2
   5  11  12 2.60669 3.44673   1
   6  11  12 6.57980 2.43014   1
   7  -2  12 4.01901 4.31943  -2
   7  11  12 4.01901 4.31943   1
   8  -2  12 15.2681 6.21428  -2
   8  11  12 15.2681 6.21428   1
   9  -1  12 63.6415 6.32273  -2
   9  11  12 63.6415 6.32273   1
  10  -1  12 16.8130 6.74875  -2
  10  11  12 16.8130 6.74875   1
  11   0  12 45.5272 7.71937  -2
  11  11  12 45.5272 7.71937   1
   0  -6  12 95.8514 10.8494  -2
   0  12  12 95.8514 10.8494   1
   1  -6  12 80.1268 6.15285  -2
   1  12  12 80.1268 6.15285   1
   2  12  12 8.80510 2.86664   1
   3  -5  12 91.4444 4.95460  -2
   3  12  12 91.4444 4.95460   1
   4  12  12 78.2182 4.00635   1
   5  -4  12 20.8759 4.07202  -2
   5  12  12 20.8759 4.07202   1
   6  12  12 -0.2761 2.60769   1
   7  -3  12 2.29168 5.33136  -2
   7  12  12 2.29168 5.33136   1
   8  -3  12 6.24821 9.86219  -2
   8  12  12 6.24821 9.86219   1
   9  -2  12 11.0968 6.73079  -2
   9  12  12 11.0968 6.73079   1
  10  -2  12 -7.6733 9.81264  -2
  10  12  12 -7.6733 9.81264   1
   2  13  12 41.4827 3.81886   1
   3  -6  12 68.0359 5.24129  -2
   3  13  12 68.0359 5.24129   1
   4  13  12 53.5718 3.96273   1
   5  -5  12 70.5880 5.20671  -2
   5  13  12 70.5880 5.20671   1
   6  13  12 0.56375 2.98188   1
   7  -4  12 32.2657 6.34826  -2
   7  13  12 32.2657 6.34826   1
   8  -4  12 121.138 8.40010  -2
   8  13  12 121.138 8.40010   1
   9  -3  12 33.8270 10.7738  -2
   9  13  12 33.8270 10.7738   1
   1  -5  13 12.3375 3.20256   1
   2  12  13 16.7131 5.29246  -2
   2  -5  13 16.7131 5.29246   1
   3  -5  13 10.1897 1.99211   1
  -1  10  13 78.3771 7.18900  -2
  -1  -4  13 78.3771 7.18900   1
   0  10  13 42.0433 5.52448  -2
   0  -4  13 42.0433 5.52448   1
   1  -4  13 50.0979 3.65317   1
   2  11  13 154.311 6.23934  -2
   2  -4  13 154.311 6.23934   1
   3  -4  13 49.9452 3.78080   1
   4  12  13 63.0708 3.12239  -2
   4  -4  13 63.0708 3.12239   1
   5  -4  13 9.36399 2.00116   1
   6  13  13 24.0351 4.30091  -2
   6  -4  13 24.0351 4.30091   1
  -2   8  13 7.82960 5.57198  -2
  -2  -3  13 7.82960 5.57198   1
  -1   9  13 23.9227 6.02069  -2
  -1  -3  13 23.9227 6.02069   1
   0   9  13 66.9603 5.09986  -2
   0  -3  13 66.9603 5.09986   1
   1  -3  13 31.4083 2.80727   1
   2  10  13 181.992 6.14311  -2
   2  -3  13 181.992 6.14311   1
   3  -3  13 69.9071 3.81744   1
   4  11  13 22.6206 3.86534  -2
   4  -3  13 22.6206 3.86534   1
   5  -3  13 12.9659 1.78694   1
   6  12  13 123.030 4.61875  -2
   6  -3  13 123.030 4.61875   1
   7  -3  13 92.1208 3.83414   1
  -3   7  13 6.01596 6.09547  -2
  -3  -2  13 6.01596 6.09547   1
  -2   7  13 41.3717 5.33398  -2
  -2  -2  13 41.3717 5.33398   1
  -1   8  13 -0.7062 4.89688  -2
  -1  -2  13 -0.7062 4.89688   1
   0   8  13 31.4779 4.03798  -2
   0  -2  13 31.4779 4.03798   1
   1  -2  13 15.8468 2.06342   1
   2   9  13 15.6569 2.87163  -2
   2  -2  13 15.6569 2.87163   1
   3  -2  13 51.2910 2.96516   1
   4  10  13 68.8152 3.84043  -2
   4  -2  13 68.8152 3.84043   1
   5  -2  13 44.2245 3.18720   1
   6  11  13 65.1105 3.62686  -2
   6  -2  13 65.1105 3.62686   1
   7  -2  13 54.4539 2.76004   1
   8  12  13 100.468 5.27611  -2
   8  -2  13 100.468 5.27611   1
   9  12  13 45.8567 5.49716  -2
   9  -2  13 45.8567 5.49716   1
  -4   5  13 31.5825 6.15296  -2
  -4  -1  13 31.5825 6.15296   1
  -3   6  13 46.2859 5.60753  -2
  -3  -1  13 46.2859 5.60753   1
  -2   6  13 89.6440 5.40598  -2
  -2  -1  13 89.6440 5.40598   1
  -1   7  13 35.8664 3.87832  -2
  -1  -1  13 35.8664 3.87832   1
   0   7  13 -1.9789 2.01214  -2
   0  -1  13 -1.9789 2.01214   1
   2   8  13 21.1940 2.48224  -2
   2  -1  13 21.1940 2.48224   1
   3  -1  13 3.00933 1.08384   1
   4   9  13 -0.4730 2.64747  -2
   4  -1  13 -0.4730 2.64747   1
   5  -1  13 17.5976 2.08841   1
   6  10  13 18.8199 2.82781  -2
   6  -1  13 18.8199 2.82781   1
   7  -1  13 6.82301 1.61506   1
   8  11  13 65.6510 4.60080  -2
   8  -1  13 65.6510 4.60080   1
   9  11  13 32.5019 4.93308  -2
   9  -1  13 32.5019 4.93308   1
  -4   4  13 83.2979 3.82908  -2
  -4   0  13 83.2979 3.82908   1
  -3   5  13 80.9493 5.72064  -2
  -3   0  13 80.9493 5.72064   1
  -2   5  13 47.5375 4.22948  -2
  -2   0  13 47.5375 4.22948   1
  -1   0  13 38.1291 2.55339   1
   0   6  13 71.9484 3.12848  -2
   0   0  13 71.9484 3.12848   1
   1   0  13 38.1630 5.23472   1
   3   0  13 52.1503 5.69494   1
   4   8  13 13.8586 1.63768  -2
   4   0  13 13.8586 1.63768   1
   5   0  13 3.72864 1.50653   1
   6   9  13 21.8928 2.47320  -2
   6   0  13 21.8928 2.47320   1
   7   0  13 12.0453 1.57066   1
   8  10  13 24.6972 3.90008  -2
   8   0  13 24.6972 3.90008   1
   9  10  13 4.68600 4.42367  -2
   9   0  13 4.68600 4.42367   1
  10  11  13 34.1493 5.30230  -2
  10   0  13 34.1493 5.30230   1
  -4   3  13 54.2689 4.93884  -2
  -4   1  13 54.2689 4.93884   1
  -3   4  13 75.1290 5.45430  -2
  -3   1  13 75.1290 5.45430   1
  -2   4  13 9.82016 3.59656  -2
  -2   1  13 9.82016 3.59656   1
  -1   1  13 33.5617 1.64428   1
   1   1  13 107.404 7.71152   1
   2   6  13 107.913 8.13739  -2
   2   1  13 107.913 8.13739   1
   3   1  13 56.3756 5.61630   1
   4   7  13 68.1188 1.85654  -2
   4   1  13 68.1188 1.85654   1
   5   1  13 42.7881 1.59733   1
   6   8  13 87.2495 2.67456  -2
   6   1  13 87.2495 2.67456   1
   7   8  13 151.326 11.6880  -2
   7   1  13 151.326 11.6880   1
   8   9  13 18.7723 3.34264  -2
   8   1  13 18.7723 3.34264   1
   9   9  13 5.59961 3.83721  -2
   9   1  13 5.59961 3.83721   1
  10  10  13 0.97396 4.43232  -2
  10   1  13 0.97396 4.43232   1
  11  10  13 12.9651 5.32053  -2
  11   1  13 12.9651 5.32053   1
  -4   2  13 0.57093 1.65187   1
  -3   3  13 9.51739 4.66173  -2
  -3   2  13 9.51739 4.66173   1
  -2   3  13 2.59321 3.86991  -2
  -2   2  13 2.59321 3.86991   1
  -1   2  13 6.88034 1.61714   1
   0   4  13 161.330 4.30868  -2
   0   2  13 161.330 4.30868   1
   1   2  13 66.9284 5.94874   1
   2   5  13 35.9662 6.52795  -2
   2   2  13 35.9662 6.52795   1
   3   2  13 48.3953 5.30748   1
   4   6  13 195.288 9.44970  -2
   4   2  13 195.288 9.44970   1
   5   2  13 145.873 2.98670   1
   6   7  13 83.4992 2.51339  -2
   6   2  13 83.4992 2.51339   1
   7   2  13 29.7503 1.70358   1
   8   8  13 158.886 4.37736  -2
   8   2  13 158.886 4.37736   1
   9   8  13 66.9515 4.07565  -2
   9   2  13 66.9515 4.07565   1
  10   9  13 35.6092 4.46229  -2
  10   2  13 35.6092 4.46229   1
  11   9  13 85.3270 5.06250  -2
  11   2  13 85.3270 5.06250   1
  -4   3  13 23.8177 2.13452   1
  -3   2  13 8.93249 3.19178  -2
  -3   3  13 8.93249 3.19178   1
  -2   2  13 -0.1984 4.14654  -2
  -2   3  13 -0.1984 4.14654   1
  -1   3  13 -0.2145 8.79867  -2
  -1   3  13 -0.2145 8.79867   1
   0   3  13 -0.7823 1.88565  -2
   0   3  13 -0.7823 1.88565   1
   1   3  13 6.91347 3.83675   1
   2   4  13 27.7383 6.60331  -2
   2   3  13 27.7383 6.60331   1
   3   3  13 16.3111 4.11020   1
   4   5  13 78.8556 1.98204  -2
   4   3  13 78.8556 1.98204   1
   5   3  13 116.861 2.62112   1
   6   6  13 34.4622 2.09755  -2
   6   3  13 34.4622 2.09755   1
   7   3  13 1.42441 1.25177   1
   8   7  13 156.875 4.35233  -2
   8   3  13 156.875 4.35233   1
   9   7  13 158.263 4.87770  -2
   9   3  13 158.263 4.87770   1
  10   8  13 178.411 5.57636  -2
  10   3  13 178.411 5.57636   1
  11   8  13 101.467 5.11903  -2
  11   3  13 101.467 5.11903   1
  -4   0  13 86.4014 5.03195  -2
  -4   4  13 86.4014 5.03195   1
  -3   1  13 80.0331 4.11085  -2
  -3   4  13 80.0331 4.11085   1
  -2   1  13 8.89382 3.09532  -2
  -2   4  13 8.89382 3.09532   1
  -1   4  13 17.3324 2.20734   1
   0   2  13 151.596 4.59950  -2
   0   4  13 151.596 4.59950   1
   1   4  13 32.0106 1.39484   1
   2   3  13 17.9835 1.48533  -2
   2   4  13 17.9835 1.48533   1
   3   4  13 3.60012 0.90228   1
   4   4  13 2.97711 1.44075  -2
   4   4  13 2.97711 1.44075   1
   5   4  13 1.43129 1.03413   1
   6   5  13 14.3299 2.03795  -2
   6   4  13 14.3299 2.03795   1
   7   4  13 12.9321 1.47423   1
   8   6  13 148.074 4.37339  -2
   8   4  13 148.074 4.37339   1
   9   6  13 91.6344 4.33505  -2
   9   4  13 91.6344 4.33505   1
  10   7  13 171.430 7.04408  -2
  10   4  13 171.430 7.04408   1
  11   7  13 51.1186 4.67598  -2
  11   4  13 51.1186 4.67598   1
  12   4  13 8.77931 2.53980   1
  -4  -1  13 31.7432 7.45521  -2
  -4   5  13 31.7432 7.45521   1
  -3   0  13 76.4369 4.55357  -2
  -3   5  13 76.4369 4.55357   1
  -2   0  13 47.8723 3.72180  -2
  -2   5  13 47.8723 3.72180   1
  -1   5  13 31.3020 1.80826   1
   0   1  13 344.643 7.27095  -2
   0   5  13 344.643 7.27095   1
   1   5  13 102.586 3.44195   1
   2   2  13 39.4583 2.47446  -2
   2   5  13 39.4583 2.47446   1
   3   5  13 28.0964 1.43912   1
   4   3  13 76.7970 2.98552  -2
   4   5  13 76.7970 2.98552   1
   5   5  13 76.6694 2.16883   1
   6   4  13 16.2309 2.30378  -2
   6   5  13 16.2309 2.30378   1
   7   5  13 3.98235 1.36550   1
   8   5  13 6.62081 3.26995  -2
   8   5  13 6.62081 3.26995   1
   9   5  13 0.53950 3.63232  -2
   9   5  13 0.53950 3.63232   1
  10   6  13 15.4532 4.36977  -2
  10   5  13 15.4532 4.36977   1
  11   6  13 7.18106 4.37501  -2
  11   5  13 7.18106 4.37501   1
  12   5  13 0.40523 2.38933   1
  -3  -1  13 50.0546 4.73281  -2
  -3   6  13 50.0546 4.73281   1
  -2  -1  13 83.9943 6.29170  -2
  -2   6  13 83.9943 6.29170   1
  -1   6  13 26.5527 1.98631   1
   0   0  13 75.7714 3.13679  -2
   0   6  13 75.7714 3.13679   1
   1   6  13 59.4932 2.18216   1
   2   1  13 103.230 2.68431  -2
   2   6  13 103.230 2.68431   1
   3   6  13 83.1410 2.31708   1
   4   2  13 183.835 3.60802  -2
   4   6  13 183.835 3.60802   1
   5   6  13 152.691 3.29430   1
   6   3  13 31.8604 2.57809  -2
   6   6  13 31.8604 2.57809   1
   7   6  13 2.38372 1.39607   1
   8   4  13 148.736 4.49767  -2
   8   6  13 148.736 4.49767   1
   9   4  13 94.4549 4.50270  -2
   9   6  13 94.4549 4.50270   1
  10   5  13 20.1496 4.45153  -2
  10   6  13 20.1496 4.45153   1
  11   5  13 -0.0081 4.46362  -2
  11   6  13 -0.0081 4.46362   1
  12   6  13 0.11413 2.38816   1
  -3  -2  13 5.11727 6.97654  -2
  -3   7  13 5.11727 6.97654   1
  -2  -2  13 38.5449 4.71838  -2
  -2   7  13 38.5449 4.71838   1
  -1  -1  13 31.8082 5.96371  -2
  -1   7  13 31.8082 5.96371   1
   0  -1  13 3.04534 2.99563  -2
   0   7  13 3.04534 2.99563   1
   1   7  13 27.0067 1.74834   1
   2   0  13 159.536 3.65366  -2
   2   7  13 159.536 3.65366   1
   3   7  13 55.1987 2.07352   1
   4   1  13 63.9994 2.40633  -2
   4   7  13 63.9994 2.40633   1
   5   7  13 68.9220 2.51511   1
   6   2  13 91.9866 3.43566  -2
   6   7  13 91.9866 3.43566   1
   7   7  13 20.1766 1.81116   1
   8   3  13 162.095 4.79300  -2
   8   7  13 162.095 4.79300   1
   9   3  13 180.883 5.39068  -2
   9   7  13 180.883 5.39068   1
  10   4  13 159.858 5.56688  -2
  10   7  13 159.858 5.56688   1
  11   4  13 58.8463 4.82611  -2
  11   7  13 58.8463 4.82611   1
  12   5  13 11.8364 12.0319  -2
  12   7  13 11.8364 12.0319   1
  -2  -3  13 -0.0279 5.00960  -2
  -2   8  13 -0.0279 5.00960   1
  -1   8  13 -0.7742 1.92694   1
   0  -2  13 29.7063 3.89214  -2
   0   8  13 29.7063 3.89214   1
   1   8  13 3.89197 1.59587   1
   2  -1  13 16.7020 2.39290  -2
   2   8  13 16.7020 2.39290   1
   3   8  13 28.2876 1.88955   1
   4   0  13 15.0656 2.21613  -2
   4   8  13 15.0656 2.21613   1
   5   8  13 3.99559 1.46560   1
   6   1  13 92.2454 3.66510  -2
   6   8  13 92.2454 3.66510   1
   7   8  13 77.7753 3.05037   1
   8   2  13 153.973 4.96081  -2
   8   8  13 153.973 4.96081   1
   9   2  13 72.4699 4.80022  -2
   9   8  13 72.4699 4.80022   1
  10   3  13 178.657 6.14813  -2
  10   8  13 178.657 6.14813   1
  11   3  13 96.8927 5.41185  -2
  11   8  13 96.8927 5.41185   1
  12   8  13 7.79565 2.67198   1
  -2   9  13 54.0143 3.41535   1
  -1  -3  13 29.0774 7.70704  -2
  -1   9  13 29.0774 7.70704   1
   0  -3  13 64.8612 4.62904  -2
   0   9  13 64.8612 4.62904   1
   1   9  13 12.7749 1.96107   1
   2  -2  13 21.2861 2.79556  -2
   2   9  13 21.2861 2.79556   1
   3   9  13 14.1849 2.03868   1
   4  -1  13 2.72869 2.66666  -2
   4   9  13 2.72869 2.66666   1
   5   9  13 11.3945 1.95874   1
   6   0  13 19.7906 3.30955  -2
   6   9  13 19.7906 3.30955   1
   7   0  13 47.2646 6.44877  -2
   7   9  13 47.2646 6.44877   1
   8   1  13 21.9733 4.61293  -2
   8   9  13 21.9733 4.61293   1
   9   1  13 14.4379 5.43113  -2
   9   9  13 14.4379 5.43113   1
  10   2  13 36.5751 5.34450  -2
  10   9  13 36.5751 5.34450   1
  11   2  13 88.1488 5.72943  -2
  11   9  13 88.1488 5.72943   1
  -1  -4  13 72.1250 6.34021  -2
  -1  10  13 72.1250 6.34021   1
   0  -4  13 38.2323 4.98267  -2
   0  10  13 38.2323 4.98267   1
   1  10  13 60.6697 3.32356   1
   2  -3  13 158.741 5.03713  -2
   2  10  13 158.741 5.03713   1
   3  10  13 73.5720 3.37250   1
   4  -2  13 61.9839 3.65804  -2
   4  10  13 61.9839 3.65804   1
   5  10  13 42.0456 2.86140   1
   6  -1  13 12.7571 3.66488  -2
   6  10  13 12.7571 3.66488   1
   7  10  13 5.67990 2.28307   1
   8   0  13 31.2302 5.21379  -2
   8  10  13 31.2302 5.21379   1
   9   0  13 1.18009 5.72175  -2
   9  10  13 1.18009 5.72175   1
  10   1  13 6.49564 6.22100  -2
  10  10  13 6.49564 6.22100   1
  11   1  13 10.5209 6.30568  -2
  11  10  13 10.5209 6.30568   1
   0  11  13 7.54065 2.78404   1
   1  11  13 18.5584 2.87555   1
   2  -4  13 145.434 5.20636  -2
   2  11  13 145.434 5.20636   1
   3  11  13 54.6241 3.35229   1
   4  -3  13 29.1244 3.79390  -2
   4  11  13 29.1244 3.79390   1
   5  11  13 20.2024 2.72531   1
   6  -2  13 66.8797 4.68377  -2
   6  11  13 66.8797 4.68377   1
   7  11  13 34.9266 3.11864   1
   8  -1  13 62.3040 5.93690  -2
   8  11  13 62.3040 5.93690   1
   9  -1  13 29.8181 6.43452  -2
   9  11  13 29.8181 6.43452   1
  10   0  13 34.2897 7.07730  -2
  10  11  13 34.2897 7.07730   1
   2  -5  13 19.3580 4.43169  -2
   2  12  13 19.3580 4.43169   1
   3  12  13 28.6602 3.18328   1
   4  -4  13 60.5122 4.63402  -2
   4  12  13 60.5122 4.63402   1
   5  12  13 15.2075 2.87891   1
   6  -3  13 120.579 6.19631  -2
   6  12  13 120.579 6.19631   1
   7  12  13 106.032 4.71012   1
   8  -2  13 99.1270 6.85356  -2
   8  12  13 99.1270 6.85356   1
   9  -2  13 53.2406 7.17654  -2
   9  12  13 53.2406 7.17654   1
   5  13  13 4.24145 3.08287   1
   6  -4  13 31.8622 5.91367  -2
   6  13  13 31.8622 5.91367   1
   7  13  13 27.7944 3.56336   1
   1  10  14 10.4292 4.18075  -2
   1  -3  14 10.4292 4.18075   1
   2  -3  14 1.27339 2.43444   1
   3  11  14 4.18124 3.89364  -2
   3  -3  14 4.18124 3.89364   1
   4  -3  14 -0.0636 2.57697   1
   5  12  14 22.5279 5.38635  -2
   5  -3  14 22.5279 5.38635   1
  -1   8  14 26.0377 4.91854  -2
  -1  -2  14 26.0377 4.91854   1
   0  -2  14 41.4862 3.05201   1
   1   9  14 151.739 5.42375  -2
   1  -2  14 151.739 5.42375   1
   2  -2  14 36.2676 2.74179   1
   3  10  14 5.72163 3.18359  -2
   3  -2  14 5.72163 3.18359   1
   4  -2  14 9.74298 2.32310   1
   5  11  14 28.1904 4.67331  -2
   5  -2  14 28.1904 4.67331   1
   6  -2  14 5.50754 2.72055   1
   7  -2  14 3.40722 1.92955   1
  -2  -1  14 95.0406 4.90517   1
  -1   7  14 35.5777 4.27314  -2
  -1  -1  14 35.5777 4.27314   1
   0  -1  14 8.56453 2.07868   1
   1   8  14 115.779 4.20319  -2
   1  -1  14 115.779 4.20319   1
   3   9  14 72.0936 3.42127  -2
   3  -1  14 72.0936 3.42127   1
   4  -1  14 34.3225 2.51532   1
   5  10  14 140.367 5.66381  -2
   5  -1  14 140.367 5.66381   1
   6  -1  14 58.6476 3.61275   1
   7  11  14 6.73020 3.54267  -2
   7  -1  14 6.73020 3.54267   1
   8  11  14 7.79808 4.34237  -2
   8  -1  14 7.79808 4.34237   1
  -2   6  14 59.9156 4.89642  -2
  -2   0  14 59.9156 4.89642   1
  -1   6  14 22.9313 3.68312  -2
  -1   0  14 22.9313 3.68312   1
   3   8  14 67.6945 7.71412  -2
   3   0  14 67.6945 7.71412   1
   4   0  14 66.0658 2.07660   1
   5   9  14 156.698 5.44515  -2
   5   0  14 156.698 5.44515   1
   6   0  14 85.3554 3.76838   1
   7  10  14 82.4559 3.72444  -2
   7   0  14 82.4559 3.72444   1
   8  10  14 69.8295 4.43436  -2
   8   0  14 69.8295 4.43436   1
   9  11  14 98.5547 5.29029  -2
   9   0  14 98.5547 5.29029   1
  -2   1  14 3.20461 2.33505   1
  -1   5  14 -2.7800 3.24771  -2
  -1   1  14 -2.7800 3.24771   1
   2   1  14 -0.6099 4.14404   1
   3   7  14 57.6385 7.26738  -2
   3   1  14 57.6385 7.26738   1
   4   1  14 22.9624 4.95556   1
   5   8  14 31.8179 2.88029  -2
   5   1  14 31.8179 2.88029   1
   6   1  14 29.9751 2.30975   1
   7   9  14 123.524 3.57037  -2
   7   1  14 123.524 3.57037   1
   8   9  14 112.356 4.13294  -2
   8   1  14 112.356 4.13294   1
   9  10  14 68.6005 4.77316  -2
   9   1  14 68.6005 4.77316   1
  10  10  14 87.6138 5.30976  -2
  10   1  14 87.6138 5.30976   1
  -2   4  14 138.518 5.80992  -2
  -2   2  14 138.518 5.80992   1
  -1   4  14 66.9064 4.16702  -2
  -1   2  14 66.9064 4.16702   1
   0   2  14 12.5763 4.75379   1
   1   5  14 40.7735 7.70492  -2
   1   2  14 40.7735 7.70492   1
   2   2  14 9.92588 4.36243   1
   3   6  14 -1.8976 5.85202  -2
   3   2  14 -1.8976 5.85202   1
   4   2  14 3.63668 4.15381   1
   5   7  14 23.1818 2.76670  -2
   5   2  14 23.1818 2.76670   1
   6   2  14 -1.9351 1.59191   1
   7   8  14 64.5145 2.88892  -2
   7   2  14 64.5145 2.88892   1
   8   8  14 78.8615 3.65358  -2
   8   2  14 78.8615 3.65358   1
   9   9  14 8.86340 3.89260  -2
   9   2  14 8.86340 3.89260   1
  10   9  14 3.01552 4.14436  -2
  10   2  14 3.01552 4.14436   1
  -2   3  14 278.978 8.65817  -2
  -2   3  14 278.978 8.65817   1
  -1   3  14 106.181 4.96525  -2
  -1   3  14 106.181 4.96525   1
   0   3  14 2.60370 1.49859   1
   1   4  14 73.9917 2.73489  -2
   1   3  14 73.9917 2.73489   1
   2   3  14 36.0616 5.22925   1
   3   5  14 88.8012 7.63789  -2
   3   3  14 88.8012 7.63789   1
   4   3  14 14.5566 4.52497   1
   5   6  14 18.3302 2.73434  -2
   5   3  14 18.3302 2.73434   1
   6   3  14 8.00878 1.75897   1
   7   7  14 4.19687 2.43440  -2
   7   3  14 4.19687 2.43440   1
   8   7  14 3.62201 3.06974  -2
   8   3  14 3.62201 3.06974   1
   9   8  14 -1.5521 3.68398  -2
   9   3  14 -1.5521 3.68398   1
  10   8  14 1.92774 4.06790  -2
  10   3  14 1.92774 4.06790   1
  -2   2  14 150.781 6.73588  -2
  -2   4  14 150.781 6.73588   1
  -1   2  14 63.6598 4.79687  -2
  -1   4  14 63.6598 4.79687   1
   0   4  14 17.2666 1.93553   1
   1   3  14 77.7168 8.45672  -2
   1   4  14 77.7168 8.45672   1
   2   4  14 44.3234 2.11698   1
   3   4  14 254.457 11.1507  -2
   3   4  14 254.457 11.1507   1
   4   4  14 149.132 2.99333   1
   5   5  14 94.5539 3.71250  -2
   5   4  14 94.5539 3.71250   1
   6   4  14 62.0444 3.07840   1
   7   6  14 97.3606 3.19023  -2
   7   4  14 97.3606 3.19023   1
   8   6  14 124.178 4.09420  -2
   8   4  14 124.178 4.09420   1
   9   7  14 31.6090 3.91577  -2
   9   4  14 31.6090 3.91577   1
  10   7  14 34.1273 4.27336  -2
  10   4  14 34.1273 4.27336   1
  11   8  14 6.70588 11.8567  -2
  11   4  14 6.70588 11.8567   1
  -2   1  14 10.0405 3.47025  -2
  -2   5  14 10.0405 3.47025   1
  -1   1  14 -2.1741 4.37737  -2
  -1   5  14 -2.1741 4.37737   1
   0   5  14 14.4165 4.76547   1
   1   2  14 37.6531 3.13292  -2
   1   5  14 37.6531 3.13292   1
   2   5  14 30.7782 2.04023   1
   3   3  14 87.8450 3.27128  -2
   3   5  14 87.8450 3.27128   1
   4   5  14 45.5699 2.34008   1
   5   4  14 88.3118 4.01084  -2
   5   5  14 88.3118 4.01084   1
   6   5  14 72.1576 3.34043   1
   7   5  14 332.107 6.09426  -2
   7   5  14 332.107 6.09426   1
   8   5  14 280.500 5.95389  -2
   8   5  14 280.500 5.95389   1
   9   6  14 27.8892 4.07697  -2
   9   5  14 27.8892 4.07697   1
  10   6  14 27.1728 4.36402  -2
  10   5  14 27.1728 4.36402   1
  11   5  14 44.8285 2.92810   1
  -2   0  14 85.1187 6.34360  -2
  -2   6  14 85.1187 6.34360   1
  -1   0  14 26.8385 4.42937  -2
  -1   6  14 26.8385 4.42937   1
   0   6  14 0.46626 1.96129   1
   1   1  14 1.95555 3.13198  -2
   1   6  14 1.95555 3.13198   1
   2   6  14 1.21803 1.60403   1
   3   2  14 0.95807 2.50656  -2
   3   6  14 0.95807 2.50656   1
   4   6  14 3.33371 1.66203   1
   5   3  14 20.3026 2.03945  -2
   5   6  14 20.3026 2.03945   1
   6   6  14 15.3001 1.47580   1
   7   4  14 106.684 3.74557  -2
   7   6  14 106.684 3.74557   1
   8   4  14 139.081 4.56776  -2
   8   6  14 139.081 4.56776   1
   9   5  14 41.0369 4.16004  -2
   9   6  14 41.0369 4.16004   1
  10   5  14 28.7661 4.41201  -2
  10   6  14 28.7661 4.41201   1
  11   6  14 95.7979 13.5093  -2
  11   6  14 95.7979 13.5093   1
  -1  -1  14 32.1917 3.99943  -2
  -1   7  14 32.1917 3.99943   1
   0   7  14 1.00109 1.62361   1
   1   0  14 22.0725 2.42420  -2
   1   7  14 22.0725 2.42420   1
   2   7  14 3.32950 1.32227   1
   3   1  14 53.7082 2.27730  -2
   3   7  14 53.7082 2.27730   1
   4   7  14 7.40496 1.34816   1
   5   2  14 22.6627 2.32967  -2
   5   7  14 22.6627 2.32967   1
   6   7  14 3.60806 1.47079   1
   7   3  14 0.77633 3.19749  -2
   7   7  14 0.77633 3.19749   1
   8   3  14 2.39659 3.83597  -2
   8   7  14 2.39659 3.83597   1
   9   4  14 34.8016 4.40283  -2
   9   7  14 34.8016 4.40283   1
  10   4  14 33.6409 4.52062  -2
  10   7  14 33.6409 4.52062   1
  11   5  14 71.7956 13.3464  -2
  11   7  14 71.7956 13.3464   1
  -1  -2  14 21.7748 4.48028  -2
  -1   8  14 21.7748 4.48028   1
   0   8  14 22.7454 2.24991   1
   1  -1  14 127.857 3.79566  -2
   1   8  14 127.857 3.79566   1
   2   8  14 39.4136 2.14238   1
   3   0  14 62.4357 2.72356  -2
   3   8  14 62.4357 2.72356   1
   4   8  14 45.1152 2.17865   1
   5   1  14 30.1534 2.75650  -2
   5   8  14 30.1534 2.75650   1
   6   8  14 15.9691 1.79224   1
   7   2  14 66.6297 3.91640  -2
   7   8  14 66.6297 3.91640   1
   8   2  14 85.4868 4.67333  -2
   8   8  14 85.4868 4.67333   1
   9   3  14 1.06973 4.33829  -2
   9   8  14 1.06973 4.33829   1
  10   3  14 10.8713 4.49444  -2
  10   8  14 10.8713 4.49444   1
  11   8  14 1.20971 2.29228   1
   0   9  14 52.7839 3.04366   1
   1  -2  14 154.168 4.44820  -2
   1   9  14 154.168 4.44820   1
   2   9  14 67.9418 2.82776   1
   3  -1  14 68.5373 3.12303  -2
   3   9  14 68.5373 3.12303   1
   4   9  14 53.9798 2.52983   1
   5   0  14 152.497 4.32128  -2
   5   9  14 152.497 4.32128   1
   6   0  14 175.387 13.1665  -2
   6   9  14 175.387 13.1665   1
   7   1  14 127.482 4.80498  -2
   7   9  14 127.482 4.80498   1
   8   1  14 121.228 5.35835  -2
   8   9  14 121.228 5.35835   1
   9   2  14 12.7762 4.87565  -2
   9   9  14 12.7762 4.87565   1
  10   2  14 5.59830 4.74908  -2
  10   9  14 5.59830 4.74908   1
   1  -3  14 9.32697 3.91041  -2
   1  10  14 9.32697 3.91041   1
   2  10  14 9.58158 2.15148   1
   3  -2  14 4.29100 2.93118  -2
   3  10  14 4.29100 2.93118   1
   4  10  14 9.64352 2.02227   1
   5  -1  14 126.491 4.79642  -2
   5  10  14 126.491 4.79642   1
   6  10  14 68.9483 3.39413   1
   7   0  14 81.7937 5.37149  -2
   7  10  14 81.7937 5.37149   1
   8   0  14 77.5738 6.00668  -2
   8  10  14 77.5738 6.00668   1
   9   1  14 80.5049 5.74049  -2
   9  10  14 80.5049 5.74049   1
  10   1  14 90.5101 5.71864  -2
  10  10  14 90.5101 5.71864   1
   2  11  14 1.64063 2.46129   1
   3  -3  14 0.20438 3.68898  -2
   3  11  14 0.20438 3.68898   1
   4  11  14 5.91043 2.42300   1
   5  -2  14 44.2953 4.81961  -2
   5  11  14 44.2953 4.81961   1
   6  11  14 9.82220 2.55127   1
   7  -1  14 14.3811 5.36989  -2
   7  11  14 14.3811 5.36989   1
   8  -1  14 -3.5277 5.95509  -2
   8  11  14 -3.5277 5.95509   1
   9   0  14 104.680 7.05831  -2
   9  11  14 104.680 7.05831   1
   5  -3  14 18.1711 5.26430  -2
   5  12  14 18.1711 5.26430   1
   6  12  14 3.63756 2.77580   1
   3  -1  15 12.2523 2.06518   1
   4  10  15 33.2267 3.95784  -2
   4  -1  15 33.2267 3.95784   1
   5  -1  15 18.7486 2.59196   1
   4   9  15 33.2109 3.20520  -2
   4   0  15 33.2109 3.20520   1
   5   0  15 6.10820 1.89433   1
   6  10  15 18.7635 4.42930  -2
   6   0  15 18.7635 4.42930   1
   7  10  15 4.83909 4.93120  -2
   7   0  15 4.83909 4.93120   1
   0   6  15 38.3190 3.00305  -2
   0   1  15 38.3190 3.00305   1
   2   7  15 65.7538 6.93998  -2
   2   1  15 65.7538 6.93998   1
   3   1  15 68.2786 7.01197   1
   4   8  15 121.075 2.82102  -2
   4   1  15 121.075 2.82102   1
   5   1  15 26.2828 2.12598   1
   6   9  15 3.39708 3.83250  -2
   6   1  15 3.39708 3.83250   1
   7   9  15 10.4156 4.54477  -2
   7   1  15 10.4156 4.54477   1
   8  10  15 38.7734 3.65242  -2
   8   1  15 38.7734 3.65242   1
   0   5  15 8.55634 2.80300  -2
   0   2  15 8.55634 2.80300   1
   1   2  15 59.7713 6.76711   1
   2   6  15 130.592 8.70166  -2
   2   2  15 130.592 8.70166   1
   3   2  15 64.8093 6.80142   1
   4   7  15 91.9354 2.99214  -2
   4   2  15 91.9354 2.99214   1
   5   2  15 24.6902 1.99646   1
   6   8  15 52.4539 3.70800  -2
   6   2  15 52.4539 3.70800   1
   7   8  15 45.0065 4.31239  -2
   7   2  15 45.0065 4.31239   1
   8   9  15 63.3484 3.39616  -2
   8   2  15 63.3484 3.39616   1
  -1   3  15 -0.3950 2.07539   1
   0   4  15 -0.6058 2.99872  -2
   0   3  15 -0.6058 2.99872   1
   1   3  15 27.8715 5.62205   1
   2   5  15 137.793 9.30680  -2
   2   3  15 137.793 9.30680   1
   3   3  15 60.9474 6.51652   1
   4   6  15 22.6188 1.67129  -2
   4   3  15 22.6188 1.67129   1
   5   3  15 25.5347 1.97245   1
   6   7  15 131.008 4.87366  -2
   6   3  15 131.008 4.87366   1
   7   7  15 38.7993 4.20685  -2
   7   3  15 38.7993 4.20685   1
   8   8  15 50.4216 3.19700  -2
   8   3  15 50.4216 3.19700   1
   9   8  15 99.2257 4.35280  -2
   9   3  15 99.2257 4.35280   1
  -1   4  15 -0.0981 2.18609   1
   0   3  15 3.14227 3.38031  -2
   0   4  15 3.14227 3.38031   1
   1   4  15 6.56164 1.61395   1
   2   4  15 5.08011 4.64071  -2
   2   4  15 5.08011 4.64071   1
   3   4  15 3.41342 4.61156   1
   4   5  15 15.1615 2.02751  -2
   4   4  15 15.1615 2.02751   1
   5   4  15 11.7428 1.76828   1
   6   6  15 130.955 4.91115  -2
   6   4  15 130.955 4.91115   1
   7   6  15 25.6942 4.20915  -2
   7   4  15 25.6942 4.20915   1
   8   7  15 14.9602 3.05277  -2
   8   4  15 14.9602 3.05277   1
   9   7  15 69.0902 4.12233  -2
   9   4  15 69.0902 4.12233   1
   1   5  15 53.8752 2.75785   1
   2   3  15 129.084 4.05648  -2
   2   5  15 129.084 4.05648   1
   3   5  15 41.7598 2.32648   1
   4   4  15 11.6173 2.54181  -2
   4   5  15 11.6173 2.54181   1
   5   5  15 5.72563 1.80552   1
   6   5  15 10.8497 3.86085  -2
   6   5  15 10.8497 3.86085   1
   7   5  15 5.51066 4.57880  -2
   7   5  15 5.51066 4.57880   1
   8   6  15 2.66858 3.15660  -2
   8   5  15 2.66858 3.15660   1
   9   6  15 1.77481 3.85002  -2
   9   5  15 1.77481 3.85002   1
  10   7  15 90.2213 13.2301  -2
  10   5  15 90.2213 13.2301   1
   0   1  15 40.6808 4.61932  -2
   0   6  15 40.6808 4.61932   1
   1   6  15 52.5966 2.88028   1
   2   2  15 137.006 4.46695  -2
   2   6  15 137.006 4.46695   1
   3   6  15 56.4887 2.93565   1
   4   3  15 22.9900 2.99175  -2
   4   6  15 22.9900 2.99175   1
   5   6  15 11.2075 2.09205   1
   6   4  15 122.028 5.27405  -2
   6   6  15 122.028 5.27405   1
   7   4  15 25.2941 5.17521  -2
   7   6  15 25.2941 5.17521   1
   8   5  15 1.04668 3.53967  -2
   8   6  15 1.04668 3.53967   1
   9   5  15 4.86258 3.97544  -2
   9   6  15 4.86258 3.97544   1
  10   6  15 5.04138 6.15690  -2
  10   6  15 5.04138 6.15690   1
   0   7  15 65.3335 4.24372   1
   1   7  15 18.8260 2.49712   1
   2   1  15 67.9394 3.70074  -2
   2   7  15 67.9394 3.70074   1
   3   7  15 74.3559 3.78422   1
   4   2  15 99.5149 4.23718  -2
   4   7  15 99.5149 4.23718   1
   5   7  15 39.2331 2.77411   1
   6   3  15 131.381 3.83210  -2
   6   7  15 131.381 3.83210   1
   7   3  15 46.3552 3.57851  -2
   7   7  15 46.3552 3.57851   1
   8   4  15 13.3406 3.84996  -2
   8   7  15 13.3406 3.84996   1
   9   4  15 58.8524 4.49657  -2
   9   7  15 58.8524 4.49657   1
  10   5  15 106.918 7.03286  -2
  10   7  15 106.918 7.03286   1
   1   8  15 4.77263 1.72166   1
   2   0  15 2.59768 1.75368  -2
   2   8  15 2.59768 1.75368   1
   3   8  15 18.2173 1.76988   1
   4   1  15 125.827 3.57055  -2
   4   8  15 125.827 3.57055   1
   5   8  15 27.7120 1.92897   1
   6   2  15 46.4842 3.53153  -2
   6   8  15 46.4842 3.53153   1
   7   2  15 36.0413 3.94284  -2
   7   8  15 36.0413 3.94284   1
   8   3  15 57.4055 4.44247  -2
   8   8  15 57.4055 4.44247   1
   9   3  15 95.6090 4.93853  -2
   9   8  15 95.6090 4.93853   1
   2  -1  15 12.4790 2.21614  -2
   2   9  15 12.4790 2.21614   1
   3   9  15 4.82029 1.82971   1
   4   0  15 31.9669 3.10740  -2
   4   9  15 31.9669 3.10740   1
   5   9  15 21.3519 2.04391   1
   6   1  15 0.17187 3.77326  -2
   6   9  15 0.17187 3.77326   1
   7   1  15 15.9648 4.48972  -2
   7   9  15 15.9648 4.48972   1
   8   2  15 64.8777 4.86702  -2
   8   9  15 64.8777 4.86702   1
   9   9  15 36.9601 2.73196   1
   4  -1  15 25.8321 3.54549  -2
   4  10  15 25.8321 3.54549   1
   5  10  15 9.49482 2.11042   1
   6   0  15 14.4574 4.23955  -2
   6  10  15 14.4574 4.23955   1
   7   0  15 5.60676 4.86580  -2
   7  10  15 5.60676 4.86580   1
   8   1  15 48.4836 5.24613  -2
   8  10  15 48.4836 5.24613   1
   4   2  16 2.29341 5.14615   1
   5   8  16 113.168 4.31738  -2
   5   2  16 113.168 4.31738   1
   3   6  16 9.37952 8.93688  -2
   3   3  16 9.37952 8.93688   1
   4   3  16 2.99694 5.12049   1
   5   7  16 9.89697 2.98616  -2
   5   3  16 9.89697 2.98616   1
   6   7  16 4.67639 11.6712  -2
   6   3  16 4.67639 11.6712   1
   2   4  16 22.6042 5.72137   1
   3   5  16 -0.4747 8.64998  -2
   3   4  16 -0.4747 8.64998   1
   4   4  16 72.4499 7.30480   1
   5   6  16 144.709 4.80837  -2
   5   4  16 144.709 4.80837   1
   6   6  16 55.2846 12.1780  -2
   6   4  16 55.2846 12.1780   1
   7   7  16 39.6715 4.65016  -2
   7   4  16 39.6715 4.65016   1
   2   5  16 11.3900 1.91287   1
   3   4  16 3.07106 2.60214  -2
   3   5  16 3.07106 2.60214   1
   4   5  16 80.0673 3.44211   1
   5   5  16 441.670 9.69108  -2
   5   5  16 441.670 9.69108   1
   6   5  16 95.4637 5.12869  -2
   6   5  16 95.4637 5.12869   1
   7   6  16 12.3660 4.88912  -2
   7   5  16 12.3660 4.88912   1
   3   3  16 7.61658 3.03338  -2
   3   6  16 7.61658 3.03338   1
   4   6  16 13.5235 2.25152   1
   5   4  16 140.001 5.66982  -2
   5   6  16 140.001 5.66982   1
   6   4  16 54.4134 5.40357  -2
   6   6  16 54.4134 5.40357   1
   7   5  16 9.87792 5.05699  -2
   7   6  16 9.87792 5.05699   1
   4   7  16 -2.4875 2.13813   1
   5   3  16 5.73615 4.63761  -2
   5   7  16 5.73615 4.63761   1
   6   3  16 14.0550 5.63211  -2
   6   7  16 14.0550 5.63211   1
   7   4  16 24.9031 5.58260  -2
   7   7  16 24.9031 5.58260   1
   5   2  16 137.261 6.28649  -2
   5   8  16 137.261 6.28649   1
   6   8  16 6.11977 1.68241   1
   0   0   0    0.00    0.00   0
;
_shelx_hkl_checksum              7680
loop_
_space_group_symop_operation_xyz
'x, y, z'
'-x, -y, -z'
loop_
_atom_site_label
_atom_site_type_symbol
_atom_site_fract_x
_atom_site_fract_y
_atom_site_fract_z
_atom_site_U_iso_or_equiv
_atom_site_adp_type
_atom_site_occupancy
_atom_site_site_symmetry_order
_atom_site_calc_flag
_atom_site_refinement_flags_posn
_atom_site_refinement_flags_adp
I1 I 0.47593(2) 0.60529(2) 0.72543(2) 0.01265(5) Uani 1 1 d . .
N1 N 0.6094(3) 0.6275(3) 0.5456(3) 0.0128(7) Uani 1 1 d . .
N2 N 0.3327(3) 0.6268(3) 0.8956(3) 0.0132(7) Uani 1 1 d . .
N3 N -0.0791(5) 0.8608(4) 1.1554(5) 0.0680(14) Uani 1 1 d . .
S1 S 0.77172(10) 0.32436(10) 0.59240(8) 0.0158(2) Uani 1 1 d . .
S2 S 0.31220(10) 0.32458(10) 0.98632(9) 0.0150(2) Uani 1 1 d . .
O1 O 0.7525(2) 0.6364(3) 0.6276(2) 0.0210(7) Uani 1 1 d . .
O2 O 0.1857(2) 0.6367(3) 0.8095(2) 0.0186(7) Uani 1 1 d . .
O3 O 0.8728(2) 0.3620(3) 0.6098(2) 0.0230(7) Uani 1 1 d . .
O4 O 0.7793(3) 0.3324(4) 0.4725(3) 0.0294(10) Uani 1 1 d . .
O5 O 0.6440(2) 0.3659(2) 0.66199(19) 0.0211(6) Uani 1 1 d . .
O6 O 0.4153(2) 0.3751(2) 0.89522(19) 0.0182(5) Uani 1 1 d . .
O7 O 0.1931(2) 0.3519(3) 0.9548(2) 0.0250(7) Uani 1 1 d . .
O8 O 0.3000(3) 0.3347(3) 1.1028(2) 0.0229(9) Uani 1 1 d . .
F1 F 0.9220(3) 0.1117(3) 0.6025(3) 0.0548(8) Uani 1 1 d . .
F2 F 0.7948(3) 0.1388(2) 0.7696(2) 0.0448(7) Uani 1 1 d . .
F3 F 0.7200(3) 0.1130(2) 0.6436(2) 0.0510(7) Uani 1 1 d . .
F4 F 0.4832(2) 0.1271(2) 1.0236(2) 0.0457(7) Uani 1 1 d . .
F5 F 0.3889(2) 0.1393(2) 0.89421(18) 0.0355(6) Uani 1 1 d . .
F6 F 0.2884(3) 0.1024(2) 1.0784(2) 0.0544(8) Uani 1 1 d . .
C1 C 0.5678(3) 0.6294(4) 0.4541(3) 0.0144(8) Uani 1 1 d . .
H1 H 0.4811 0.6241 0.4676 0.017 Uiso 1 1 calc R U
C2 C 0.6481(4) 0.6387(4) 0.3440(3) 0.0173(9) Uani 1 1 d . .
H2 H 0.6183 0.6401 0.2804 0.021 Uiso 1 1 calc R U
C3 C 0.7754(4) 0.6461(4) 0.3257(4) 0.0201(10) Uani 1 1 d . .
H3 H 0.8331 0.6517 0.2493 0.024 Uiso 1 1 calc R U
C4 C 0.8177(4) 0.6453(4) 0.4182(3) 0.0164(10) Uani 1 1 d . .
H4 H 0.9040 0.6510 0.4062 0.020 Uiso 1 1 calc R U
C5 C 0.7314(4) 0.6361(4) 0.5291(3) 0.0168(9) Uani 1 1 d . .
C6 C 0.8806(3) 0.6399(5) 0.6260(3) 0.0302(11) Uani 1 1 d . .
H6A H 0.9015 0.7165 0.5765 0.045 Uiso 1 1 calc R U
H6B H 0.9436 0.5746 0.5941 0.045 Uiso 1 1 calc R U
H6C H 0.8834 0.6311 0.7061 0.045 Uiso 1 1 calc R U
C7 C 0.3749(4) 0.6279(4) 0.9853(3) 0.0171(8) Uani 1 1 d . .
H7 H 0.4640 0.6231 0.9735 0.021 Uiso 1 1 calc R U
C8 C 0.2902(4) 0.6359(4) 1.0929(3) 0.0174(10) Uani 1 1 d . .
H8 H 0.3196 0.6367 1.1558 0.021 Uiso 1 1 calc R U
C9 C 0.1594(4) 0.6426(5) 1.1077(4) 0.0210(11) Uani 1 1 d . .
H9 H 0.0995 0.6462 1.1821 0.025 Uiso 1 1 calc R U
C10 C 0.1168(4) 0.6442(4) 1.0159(4) 0.0197(11) Uani 1 1 d . .
H10 H 0.0277 0.6511 1.0251 0.024 Uiso 1 1 calc R U
C11 C 0.2079(4) 0.6354(4) 0.9084(3) 0.0148(8) Uani 1 1 d . .
C12 C 0.0567(3) 0.6388(5) 0.8109(3) 0.0317(12) Uani 1 1 d . .
H12A H 0.0551 0.6404 0.7321 0.048 Uiso 1 1 calc R U
H12B H -0.0020 0.7101 0.8348 0.048 Uiso 1 1 calc R U
H12C H 0.0289 0.5673 0.8666 0.048 Uiso 1 1 calc R U
C13 C 0.4358(4) 0.7920(2) 0.6822(3) 0.0153(5) Uani 1 1 d . .
C14 C 0.3387(3) 0.8519(4) 0.6272(3) 0.0222(9) Uani 1 1 d . .
H14 H 0.2927 0.8103 0.6070 0.027 Uiso 1 1 calc R U
C15 C 0.3109(4) 0.9781(4) 0.6024(3) 0.0270(9) Uani 1 1 d . .
H15 H 0.2445 1.0231 0.5651 0.032 Uiso 1 1 calc R U
C16 C 0.3793(5) 1.0352(3) 0.6319(4) 0.0322(8) Uani 1 1 d . .
H16 H 0.3607 1.1200 0.6138 0.039 Uiso 1 1 calc R U
C17 C 0.4767(4) 0.9709(4) 0.6884(3) 0.0286(9) Uani 1 1 d . .
H17 H 0.5229 1.0121 0.7089 0.034 Uiso 1 1 calc R U
C18 C 0.5048(3) 0.8497(4) 0.7138(3) 0.0187(8) Uani 1 1 d . .
H18 H 0.5702 0.8053 0.7523 0.022 Uiso 1 1 calc R U
C19 C 0.8041(4) 0.1643(4) 0.6543(3) 0.0308(9) Uani 1 1 d . .
C20 C 0.3713(4) 0.1653(4) 0.9957(3) 0.0274(9) Uani 1 1 d . .
C21 C -0.1341(4) 0.9510(4) 1.1127(4) 0.0435(11) Uani 1 1 d . .
C22 C -0.2056(4) 1.0631(4) 1.0576(4) 0.0451(12) Uani 1 1 d . .
H22A H -0.1493 1.0981 0.9828 0.068 Uiso 1 1 calc R U
H22B H -0.2358 1.1180 1.1094 0.068 Uiso 1 1 calc R U
H22C H -0.2799 1.0491 1.0433 0.068 Uiso 1 1 calc R U
loop_
_atom_site_aniso_label
_atom_site_aniso_U_11
_atom_site_aniso_U_22
_atom_site_aniso_U_33
_atom_site_aniso_U_23
_atom_site_aniso_U_13
_atom_site_aniso_U_12
I1 0.01188(9) 0.01701(9) 0.01056(8) -0.00365(9) -0.00291(6) -0.00495(10)
N1 0.0124(17) 0.0155(19) 0.0133(15) -0.0053(14) -0.0040(14) -0.0042(14)
N2 0.0139(17) 0.0163(19) 0.0110(15) -0.0042(14) -0.0019(14) -0.0059(15)
N3 0.039(2) 0.052(3) 0.073(3) 0.006(3) 0.002(2) 0.007(3)
S1 0.0148(5) 0.0218(6) 0.0119(4) -0.0046(4) -0.0024(3) -0.0061(4)
S2 0.0153(5) 0.0187(6) 0.0124(4) -0.0044(4) -0.0039(4) -0.0047(4)
O1 0.0116(14) 0.0400(19) 0.0159(13) -0.0112(12) -0.0039(13) -0.0068(14)
O2 0.0097(14) 0.0366(19) 0.0129(13) -0.0071(12) -0.0042(12) -0.0073(13)
O3 0.0145(14) 0.0309(19) 0.0258(14) -0.0089(13) -0.0039(11) -0.0074(12)
O4 0.041(2) 0.036(2) 0.0127(14) -0.0071(14) -0.0081(15) -0.0079(17)
O5 0.0136(12) 0.0329(16) 0.0188(12) -0.0084(11) -0.0036(10) -0.0061(12)
O6 0.0160(12) 0.0221(14) 0.0180(11) -0.0036(11) -0.0034(10) -0.0086(11)
O7 0.0120(13) 0.040(2) 0.0251(14) -0.0107(13) -0.0056(11) -0.0045(13)
O8 0.0255(17) 0.028(2) 0.0141(14) -0.0099(13) -0.0017(13) -0.0032(14)
F1 0.0534(17) 0.0332(16) 0.0665(18) -0.0193(15) -0.0165(15) 0.0157(13)
F2 0.0725(18) 0.0320(15) 0.0308(13) 0.0071(11) -0.0258(12) -0.0140(13)
F3 0.0763(19) 0.0355(16) 0.0596(17) -0.0033(13) -0.0321(15) -0.0309(15)
F4 0.0585(17) 0.0276(15) 0.0580(16) -0.0164(12) -0.0401(14) 0.0157(12)
F5 0.0571(16) 0.0274(14) 0.0309(12) -0.0156(10) -0.0165(11) -0.0070(12)
F6 0.088(2) 0.0350(15) 0.0347(13) 0.0040(12) -0.0025(14) -0.0351(15)
C1 0.0133(19) 0.020(2) 0.0153(18) -0.0047(16) -0.0081(15) -0.0058(16)
C2 0.020(2) 0.019(2) 0.0150(19) -0.0025(17) -0.007(2) -0.0058(19)
C3 0.022(2) 0.020(3) 0.0159(19) -0.0049(18) -0.0041(17) -0.0025(19)
C4 0.017(2) 0.018(2) 0.0159(19) -0.0057(18) -0.0042(19) -0.0046(19)
C5 0.015(2) 0.018(2) 0.0210(19) -0.0067(17) -0.0081(18) -0.0020(18)
C6 0.013(2) 0.064(3) 0.0220(19) -0.017(2) -0.0067(17) -0.010(2)
C7 0.016(2) 0.018(2) 0.0192(19) -0.0043(17) -0.0083(16) -0.0028(17)
C8 0.020(2) 0.024(2) 0.0110(18) -0.0073(17) -0.0055(19) -0.0037(19)
C9 0.020(2) 0.030(3) 0.0120(18) -0.0057(17) -0.0021(16) -0.004(2)
C10 0.010(2) 0.030(3) 0.019(2) -0.0078(18) 0.0010(19) -0.007(2)
C11 0.014(2) 0.020(2) 0.0119(16) -0.0062(16) -0.0025(16) -0.0054(18)
C12 0.011(2) 0.066(4) 0.025(2) -0.011(2) -0.0071(17) -0.013(2)
C13 0.0148(14) 0.0163(14) 0.0115(13) -0.0046(16) -0.0006(10) -0.0008(18)
C14 0.019(2) 0.028(2) 0.0175(17) -0.0046(17) -0.0032(15) -0.0051(18)
C15 0.027(2) 0.023(2) 0.0247(18) -0.0031(16) -0.0086(16) 0.0028(17)
C16 0.041(2) 0.0183(17) 0.0272(19) -0.0064(19) 0.0032(16) -0.004(2)
C17 0.038(2) 0.031(2) 0.0188(17) -0.0091(16) 0.0007(15) -0.0165(19)
C18 0.023(2) 0.019(2) 0.0170(16) -0.0052(15) -0.0043(14) -0.0096(17)
C19 0.040(2) 0.027(2) 0.029(2) -0.0050(18) -0.0134(18) -0.011(2)
C20 0.041(2) 0.022(2) 0.0207(18) -0.0050(16) -0.0090(16) -0.0083(18)
C21 0.032(2) 0.033(2) 0.047(3) -0.005(2) 0.0019(18) 0.000(2)
C22 0.040(3) 0.044(3) 0.047(3) -0.011(2) -0.002(2) -0.013(2)
loop_
_atom_type_symbol
_atom_type_description
_atom_type_scat_dispersion_real
_atom_type_scat_dispersion_imag
_atom_type_scat_source
C C 0.0033 0.0016 'International Tables Vol C Tables 4.2.6.8 and 6.1.1.4'
H H 0.0000 0.0000 'International Tables Vol C Tables 4.2.6.8 and 6.1.1.4'
N N 0.0061 0.0033 'International Tables Vol C Tables 4.2.6.8 and 6.1.1.4'
O O 0.0106 0.0060 'International Tables Vol C Tables 4.2.6.8 and 6.1.1.4'
F F 0.0171 0.0103 'International Tables Vol C Tables 4.2.6.8 and 6.1.1.4'
S S 0.1246 0.1234 'International Tables Vol C Tables 4.2.6.8 and 6.1.1.4'
I I -0.4742 1.8119 'International Tables Vol C Tables 4.2.6.8 and 6.1.1.4'
loop_
_geom_angle_atom_site_label_1
_geom_angle_atom_site_label_2
_geom_angle_atom_site_label_3
_geom_angle
C13 I1 N1 83.52(13)
C13 I1 N2 83.85(13)
N1 I1 N2 167.37(8)
C5 N1 C1 120.8(3)
C5 N1 I1 119.6(3)
C1 N1 I1 119.6(2)
C11 N2 C7 121.3(3)
C11 N2 I1 119.6(3)
C7 N2 I1 119.1(2)
O4 S1 O3 115.93(17)
O4 S1 O5 114.49(17)
O3 S1 O5 114.37(15)
O4 S1 C19 102.7(2)
O3 S1 C19 103.16(19)
O5 S1 C19 103.83(18)
O7 S2 O6 114.67(16)
O7 S2 O8 115.70(15)
O6 S2 O8 114.17(17)
O7 S2 C20 104.09(19)
O6 S2 C20 102.48(17)
O8 S2 C20 103.4(2)
C5 O1 C6 118.9(3)
C11 O2 C12 118.7(3)
C2 C1 N1 121.1(3)
C2 C1 H1 119.5
N1 C1 H1 119.5
C1 C2 C3 118.8(4)
C1 C2 H2 120.6
C3 C2 H2 120.6
C4 C3 C2 120.4(4)
C4 C3 H3 119.8
C2 C3 H3 119.8
C3 C4 C5 118.5(4)
C3 C4 H4 120.7
C5 C4 H4 120.7
O1 C5 N1 112.0(3)
O1 C5 C4 127.6(4)
N1 C5 C4 120.4(4)
O1 C6 H6A 109.5
O1 C6 H6B 109.5
H6A C6 H6B 109.5
O1 C6 H6C 109.5
H6A C6 H6C 109.5
H6B C6 H6C 109.5
N2 C7 C8 120.7(3)
N2 C7 H7 119.6
C8 C7 H7 119.6
C7 C8 C9 118.3(4)
C7 C8 H8 120.8
C9 C8 H8 120.8
C10 C9 C8 120.7(4)
C10 C9 H9 119.6
C8 C9 H9 119.6
C9 C10 C11 118.3(4)
C9 C10 H10 120.9
C11 C10 H10 120.9
O2 C11 N2 112.1(3)
O2 C11 C10 127.3(4)
N2 C11 C10 120.7(3)
O2 C12 H12A 109.5
O2 C12 H12B 109.5
H12A C12 H12B 109.5
O2 C12 H12C 109.5
H12A C12 H12C 109.5
H12B C12 H12C 109.5
C14 C13 C18 123.1(3)
C14 C13 I1 118.2(3)
C18 C13 I1 118.6(3)
C13 C14 C15 117.0(3)
C13 C14 H14 121.5
C15 C14 H14 121.5
C16 C15 C14 120.1(3)
C16 C15 H15 120.0
C14 C15 H15 120.0
C15 C16 C17 121.1(3)
C15 C16 H16 119.4
C17 C16 H16 119.4
C18 C17 C16 119.9(4)
C18 C17 H17 120.0
C16 C17 H17 120.0
C17 C18 C13 118.7(3)
C17 C18 H18 120.6
C13 C18 H18 120.6
F1 C19 F3 107.8(4)
F1 C19 F2 107.4(3)
F3 C19 F2 106.7(3)
F1 C19 S1 111.7(3)
F3 C19 S1 111.6(3)
F2 C19 S1 111.4(3)
F4 C20 F5 108.0(3)
F4 C20 F6 107.2(3)
F5 C20 F6 107.7(3)
F4 C20 S2 110.8(3)
F5 C20 S2 111.6(3)
F6 C20 S2 111.2(3)
N3 C21 C22 178.3(6)
C21 C22 H22A 109.5
C21 C22 H22B 109.5
H22A C22 H22B 109.5
C21 C22 H22C 109.5
H22A C22 H22C 109.5
H22B C22 H22C 109.5
loop_
_geom_bond_atom_site_label_1
_geom_bond_atom_site_label_2
_geom_bond_distance
I1 C13 2.091(3)
I1 N1 2.223(3)
I1 N2 2.227(3)
N1 C5 1.348(5)
N1 C1 1.361(4)
N2 C11 1.334(5)
N2 C7 1.356(4)
N3 C21 1.145(5)
S1 O4 1.440(3)
S1 O3 1.440(3)
S1 O5 1.443(2)
S1 C19 1.816(4)
S2 O7 1.438(2)
S2 O6 1.449(2)
S2 O8 1.450(3)
S2 C20 1.820(4)
O1 C5 1.325(4)
O1 C6 1.446(4)
O2 C11 1.330(4)
O2 C12 1.438(4)
F1 C19 1.328(5)
F2 C19 1.343(4)
F3 C19 1.333(4)
F4 C20 1.329(4)
F5 C20 1.333(4)
F6 C20 1.337(4)
C1 C2 1.356(5)
C1 H1 0.9500
C2 C3 1.397(5)
C2 H2 0.9500
C3 C4 1.382(5)
C3 H3 0.9500
C4 C5 1.388(5)
C4 H4 0.9500
C6 H6A 0.9800
C6 H6B 0.9800
C6 H6C 0.9800
C7 C8 1.372(5)
C7 H7 0.9500
C8 C9 1.400(5)
C8 H8 0.9500
C9 C10 1.372(5)
C9 H9 0.9500
C10 C11 1.398(5)
C10 H10 0.9500
C12 H12A 0.9800
C12 H12B 0.9800
C12 H12C 0.9800
C13 C14 1.380(5)
C13 C18 1.392(5)
C14 C15 1.415(6)
C14 H14 0.9500
C15 C16 1.365(6)
C15 H15 0.9500
C16 C17 1.403(6)
C16 H16 0.9500
C17 C18 1.358(6)
C17 H17 0.9500
C18 H18 0.9500
C21 C22 1.446(6)
C22 H22A 0.9800
C22 H22B 0.9800
C22 H22C 0.9800
loop_
_geom_torsion_atom_site_label_1
_geom_torsion_atom_site_label_2
_geom_torsion_atom_site_label_3
_geom_torsion_atom_site_label_4
_geom_torsion
C5 N1 C1 C2 0.7(6)
I1 N1 C1 C2 -177.7(3)
N1 C1 C2 C3 0.1(6)
C1 C2 C3 C4 -0.7(7)
C2 C3 C4 C5 0.5(7)
C6 O1 C5 N1 177.4(4)
C6 O1 C5 C4 -3.8(7)
C1 N1 C5 O1 178.0(4)
I1 N1 C5 O1 -3.6(5)
C1 N1 C5 C4 -1.0(6)
I1 N1 C5 C4 177.5(3)
C3 C4 C5 O1 -178.4(4)
C3 C4 C5 N1 0.3(7)
C11 N2 C7 C8 1.1(6)
I1 N2 C7 C8 -177.2(3)
N2 C7 C8 C9 0.1(6)
C7 C8 C9 C10 -1.6(7)
C8 C9 C10 C11 1.8(7)
C12 O2 C11 N2 176.5(4)
C12 O2 C11 C10 -4.8(7)
C7 N2 C11 O2 177.9(4)
I1 N2 C11 O2 -3.8(5)
C7 N2 C11 C10 -0.9(6)
I1 N2 C11 C10 177.4(4)
C9 C10 C11 O2 -179.2(4)
C9 C10 C11 N2 -0.6(7)
C18 C13 C14 C15 0.4(6)
I1 C13 C14 C15 178.0(3)
C13 C14 C15 C16 0.4(5)
C14 C15 C16 C17 -0.9(6)
C15 C16 C17 C18 0.5(6)
C16 C17 C18 C13 0.3(5)
C14 C13 C18 C17 -0.8(6)
I1 C13 C18 C17 -178.4(3)
O4 S1 C19 F1 62.9(3)
O3 S1 C19 F1 -57.9(3)
O5 S1 C19 F1 -177.5(3)
O4 S1 C19 F3 -57.8(3)
O3 S1 C19 F3 -178.7(3)
O5 S1 C19 F3 61.7(3)
O4 S1 C19 F2 -176.9(3)
O3 S1 C19 F2 62.2(3)
O5 S1 C19 F2 -57.4(3)
O7 S2 C20 F4 179.4(3)
O6 S2 C20 F4 59.7(3)
O8 S2 C20 F4 -59.3(3)
O7 S2 C20 F5 59.0(3)
O6 S2 C20 F5 -60.8(3)
O8 S2 C20 F5 -179.7(3)
O7 S2 C20 F6 -61.4(3)
O6 S2 C20 F6 178.9(3)
O8 S2 C20 F6 59.9(3)
