#------------------------------------------------------------------------------
#$Date: 2016-03-04 10:53:22 +0200 (Fri, 04 Mar 2016) $
#$Revision: 177370 $
#$URL: svn://www.crystallography.net/cod/cif/1/54/27/1542720.cif $
#------------------------------------------------------------------------------
#
# This file is available in the Crystallography Open Database (COD),
# http://www.crystallography.net/
#
# All data on this site have been placed in the public domain by the
# contributors.
#
data_1542720
loop_
_publ_author_name
'Pan, Hongjie'
'Huang, Hu'
'Liu, Weigang'
'Tian, Hua'
'Shi, Yian'
_publ_section_title
;
 Phosphine Oxide-Sc(OTf)3 Catalyzed Highly Regio- and Enantioselective
 Bromoaminocyclization of (E)-Cinnamyl Tosylcarbamates. An Approach to a
 Class of Synthetically Versatile Functionalized Molecules.
;
_journal_issue                   5
_journal_name_full               'Organic letters'
_journal_page_first              896
_journal_paper_doi               10.1021/acs.orglett.5b03459
_journal_volume                  18
_journal_year                    2016
_chemical_absolute_configuration ad
_chemical_formula_moiety         'C18 H18 Br N O5 S'
_chemical_formula_sum            'C18 H18 Br N O5 S'
_chemical_formula_weight         440.30
_space_group_crystal_system      orthorhombic
_space_group_IT_number           19
_space_group_name_Hall           'P 2ac 2ab'
_space_group_name_H-M_alt        'P 21 21 21'
_symmetry_space_group_name_Hall  'P 2ac 2ab'
_symmetry_space_group_name_H-M   'P 21 21 21'
_atom_sites_solution_hydrogens   geom
_atom_sites_solution_primary     direct
_audit_creation_date             2015-06-03
_audit_creation_method
;
Olex2 1.2
(compiled 2015.01.26 svn.r3150 for OlexSys, GUI svn.r4998)
;
_cell_angle_alpha                90
_cell_angle_beta                 90
_cell_angle_gamma                90
_cell_formula_units_Z            4
_cell_length_a                   8.115(2)
_cell_length_b                   11.495(3)
_cell_length_c                   19.441(6)
_cell_measurement_reflns_used    5547
_cell_measurement_temperature    173.1500
_cell_measurement_theta_max      27.4812
_cell_measurement_theta_min      2.0582
_cell_volume                     1813.5(9)
_computing_cell_refinement       'CrystalClear (Rigaku Inc., 2007)'
_computing_data_collection       'CrystalClear (Rigaku Inc., 2007)'
_computing_data_reduction        'CrystalClear (Rigaku Inc., 2007)'
_computing_molecular_graphics    'Olex2 (Dolomanov et al., 2009)'
_computing_publication_material  'CIFTAB (Sheldrick, 2013)'
_computing_structure_refinement  'SHELXL (Sheldrick, 2014)'
_computing_structure_solution
;
'SHELXT (Sheldrick, 2014)'
;
_diffrn_ambient_temperature      173.1500
_diffrn_detector_area_resol_mean 28.5714
_diffrn_measured_fraction_theta_full 0.996
_diffrn_measured_fraction_theta_max 0.995
_diffrn_measurement_details
;
scan:
    Number of images: 330
               Slice: -110.0000 - 55.0000
         Image width: 0.5000
            Exp time: 5.0000
       Rotation axis: Omega
               Omega: 0.0000
                 Chi: 45.0000
                 Phi: 270.0000
                 XTD: 45.0978
              2theta: -19.9113
scan:
    Number of images: 240
               Slice: -110.0000 - 10.0000
         Image width: 0.5000
            Exp time: 5.0000
       Rotation axis: Omega
               Omega: 0.0000
                 Chi: 45.0000
                 Phi: 90.0000
                 XTD: 45.0978
              2theta: -19.9113
;
_diffrn_measurement_device
;
Saturn724+ (2x2 bin mode)
;
_diffrn_measurement_device_details
;
AFC10: Fixed Chi 2 circle
;
_diffrn_measurement_device_type  'Saturn724+ CCD'
_diffrn_measurement_method       '\w scans at fixed \c = 45\%'
_diffrn_orient_matrix_type       d*Trek
_diffrn_orient_matrix_UB_11      -0.0147
_diffrn_orient_matrix_UB_12      0.1197
_diffrn_orient_matrix_UB_13      -0.0255
_diffrn_orient_matrix_UB_21      0.0678
_diffrn_orient_matrix_UB_22      -0.0033
_diffrn_orient_matrix_UB_23      -0.0545
_diffrn_orient_matrix_UB_31      -0.0317
_diffrn_orient_matrix_UB_32      -0.0121
_diffrn_orient_matrix_UB_33      -0.0387
_diffrn_radiation_detector       CCD
_diffrn_radiation_monochromator  'Graphite Monochromator'
_diffrn_radiation_type           MoK\a
_diffrn_radiation_wavelength     0.71073
_diffrn_reflns_av_R_equivalents  0.0354
_diffrn_reflns_av_unetI/netI     0.0379
_diffrn_reflns_laue_measured_fraction_full 0.996
_diffrn_reflns_laue_measured_fraction_max 0.995
_diffrn_reflns_limit_h_max       10
_diffrn_reflns_limit_h_min       -10
_diffrn_reflns_limit_k_max       14
_diffrn_reflns_limit_k_min       -14
_diffrn_reflns_limit_l_max       25
_diffrn_reflns_limit_l_min       -25
_diffrn_reflns_number            11126
_diffrn_reflns_point_group_measured_fraction_full 0.989
_diffrn_reflns_point_group_measured_fraction_max 0.989
_diffrn_reflns_theta_full        26.000
_diffrn_reflns_theta_max         27.480
_diffrn_reflns_theta_min         2.744
_diffrn_source                   'Sealed Tube'
_diffrn_source_current           30.0000
_diffrn_source_power             1.5000
_diffrn_source_voltage           50.0000
_exptl_absorpt_coefficient_mu    2.411
_exptl_absorpt_correction_T_max  1.0000
_exptl_absorpt_correction_T_min  0.7305
_exptl_absorpt_correction_type   multi-scan
_exptl_absorpt_process_details   'CrystalClear (Rigaku Inc., 2007)'
_exptl_crystal_colour            Colorless
_exptl_crystal_density_diffrn    1.613
_exptl_crystal_description       block
_exptl_crystal_F_000             896
_exptl_crystal_size_max          0.43
_exptl_crystal_size_mid          0.22
_exptl_crystal_size_min          0.16
_refine_diff_density_max         0.287
_refine_diff_density_min         -0.315
_refine_diff_density_rms         0.054
_refine_ls_abs_structure_details
;
 Flack x determined using 1502 quotients [(I+)-(I-)]/[(I+)+(I-)]
 (Parsons, Flack and Wagner, Acta Cryst. B69 (2013) 249-259).
;
_refine_ls_abs_structure_Flack   0.012(6)
_refine_ls_extinction_method     none
_refine_ls_goodness_of_fit_ref   1.101
_refine_ls_hydrogen_treatment    constr
_refine_ls_matrix_type           full
_refine_ls_number_parameters     237
_refine_ls_number_reflns         4130
_refine_ls_number_restraints     0
_refine_ls_restrained_S_all      1.101
_refine_ls_R_factor_all          0.0341
_refine_ls_R_factor_gt           0.0319
_refine_ls_shift/su_max          0.000
_refine_ls_shift/su_mean         0.000
_refine_ls_structure_factor_coef Fsqd
_refine_ls_weighting_details
'w=1/[\s^2^(Fo^2^)+(0.0217P)^2^+0.5394P] where P=(Fo^2^+2Fc^2^)/3'
_refine_ls_weighting_scheme      calc
_refine_ls_wR_factor_gt          0.0642
_refine_ls_wR_factor_ref         0.0652
_reflns_Friedel_coverage         0.735
_reflns_friedel_fraction_full    0.979
_reflns_friedel_fraction_max     0.979
_reflns_number_gt                3973
_reflns_number_total             4130
_reflns_threshold_expression     'I > 2\s(I)'
_cod_data_source_file            ol5b03459_si_003.cif
_cod_data_source_block           sa4150
_cod_original_cell_volume        1813.6(9)
_cod_database_code               1542720
_shelx_space_group_comment
;
The symmetry employed for this shelxl refinement is uniquely defined
by the following loop, which should always be used as a source of
symmetry information in preference to the above space-group names.
They are only intended as comments.
;
_diffrn_number_total             2404
_olex2_refinement_description
;
1. Fixed Uiso
 At 1.2 times of:
  All C(H) groups, All C(H,H) groups
 At 1.5 times of:
  All C(H,H,H) groups
2.a Ternary CH refined with riding coordinates:
 C1(H1), C2(H2)
2.b Secondary CH2 refined with riding coordinates:
 C4(H4A,H4B)
2.c Aromatic/amide H refined with riding coordinates:
 C6(H6), C7(H7), C9(H9), C10(H10), C13(H13), C14(H14), C16(H16), C17(H17)
2.d Idealised Me refined as rotating group:
 C11(H11A,H11B,H11C), C18(H18A,H18B,H18C)
;
_shelx_res_file
;
    sa4150.res created by SHELXL-2014/7

TITL sa4150_a.res in P2(1)2(1)2(1)
CELL 0.71073 8.1153 11.495 19.4412 90 90 90
ZERR 4 0.0023 0.0034 0.0055 0 0 0
LATT -1
SYMM 0.5-X,-Y,0.5+Z
SYMM -X,0.5+Y,0.5-Z
SYMM 0.5+X,0.5-Y,-Z
SFAC C H Br N O S
UNIT 72 72 4 4 20 4

L.S. 4 0 0
PLAN  20
BOND $H
LIST 6
fmap 2 53
MORE -1
ACTA 52
CONF
OMIT 0 1 1
REM <olex2.extras>
REM <HklSrc "%.\\sa4150.hkl">
REM </olex2.extras>

WGHT    0.021700    0.539400
FVAR       0.51818
BR1   3    0.636386    0.789409    0.166073    11.00000    0.03551    0.04008 =
         0.02485    0.00205    0.00685   -0.00433
S1    6    0.146439    0.765366    0.242258    11.00000    0.01944    0.02273 =
         0.02533    0.00322   -0.00128   -0.00249
O1    5    0.519278    0.956678    0.295476    11.00000    0.02267    0.01999 =
         0.03452   -0.00343   -0.00304   -0.00215
O2    5    0.264424    0.997084    0.265380    11.00000    0.02532    0.01848 =
         0.03159    0.00175    0.00175    0.00388
O3    5    0.428845    0.574584    0.565650    11.00000    0.04039    0.05310 =
         0.02078    0.00872    0.00211    0.00842
O4    5    0.161772    0.642638    0.232227    11.00000    0.03075    0.02134 =
         0.03607    0.00503   -0.00885   -0.00667
O5    5    0.028568    0.807866    0.290166    11.00000    0.02182    0.03689 =
         0.02997    0.00392    0.00426   -0.00009
N1    4    0.336427    0.806181    0.268463    11.00000    0.01975    0.01714 =
         0.02415    0.00105   -0.00175    0.00028
C1    1    0.627716    0.764907    0.265946    11.00000    0.02108    0.02391 =
         0.02089    0.00066    0.00164    0.00045
AFIX  13
H1    2    0.713064    0.708942    0.279242    11.00000   -1.20000
AFIX   0
C2    1    0.459470    0.716385    0.284959    11.00000    0.02181    0.01738 =
         0.02189   -0.00058   -0.00008    0.00203
AFIX  13
H2    2    0.437725    0.647674    0.256532    11.00000   -1.20000
AFIX   0
C3    1    0.367231    0.924399    0.276127    11.00000    0.02369    0.02104 =
         0.01750   -0.00074    0.00202   -0.00161
C4    1    0.656987    0.877650    0.302722    11.00000    0.02039    0.02760 =
         0.02987    0.00009   -0.00324   -0.00072
AFIX  23
H4A   2    0.675516    0.862193    0.351158    11.00000   -1.20000
H4B   2    0.755456    0.914118    0.284420    11.00000   -1.20000
AFIX   0
C5    1    0.452921    0.680564    0.360895    11.00000    0.02480    0.01819 =
         0.02195    0.00027    0.00122   -0.00011
C6    1    0.557161    0.593408    0.384236    11.00000    0.03110    0.03119 =
         0.02523   -0.00049    0.00504    0.01047
AFIX  43
H6    2    0.631117    0.559360    0.353740    11.00000   -1.20000
AFIX   0
C7    1    0.553517    0.555831    0.452212    11.00000    0.03371    0.03012 =
         0.02664    0.00552   -0.00110    0.01052
AFIX  43
H7    2    0.624644    0.497453    0.466887    11.00000   -1.20000
AFIX   0
C8    1    0.443690    0.605663    0.497847    11.00000    0.02786    0.03298 =
         0.02041    0.00163   -0.00061   -0.00259
C9    1    0.339116    0.692937    0.475251    11.00000    0.03069    0.03534 =
         0.02684   -0.00266    0.00514    0.00679
AFIX  43
H9    2    0.265718    0.727339    0.505843    11.00000   -1.20000
AFIX   0
C10   1    0.343317    0.729140    0.407471    11.00000    0.02992    0.02468 =
         0.02851    0.00172    0.00234    0.00443
AFIX  43
H10   2    0.271397    0.787074    0.392854    11.00000   -1.20000
AFIX   0
C11   1    0.543528    0.491528    0.591624    11.00000    0.04546    0.03523 =
         0.02887    0.00938   -0.00433   -0.00499
AFIX 137
H11A  2    0.529961    0.419161    0.567636    11.00000   -1.50000
H11B  2    0.524154    0.479752    0.639837    11.00000   -1.50000
H11C  2    0.653690    0.519747    0.584889    11.00000   -1.50000
AFIX   0
C12   1    0.114744    0.831735    0.161826    11.00000    0.01826    0.02426 =
         0.02673    0.00346   -0.00314   -0.00191
C13   1    0.170465    0.775848    0.103088    11.00000    0.02850    0.02512 =
         0.02959   -0.00064   -0.00199   -0.00036
AFIX  43
H13   2    0.234419    0.708963    0.106503    11.00000   -1.20000
AFIX   0
C14   1    0.129644    0.820927    0.039196    11.00000    0.03770    0.03193 =
         0.02916   -0.00451    0.00020   -0.00367
AFIX  43
H14   2    0.165612    0.783336   -0.000413    11.00000   -1.20000
AFIX   0
C15   1    0.035532    0.921710    0.033523    11.00000    0.02836    0.03376 =
         0.02998    0.00554   -0.00633   -0.00817
C16   1   -0.013829    0.976987    0.092743    11.00000    0.02725    0.03034 =
         0.03585    0.00594   -0.00458    0.00292
AFIX  43
H16   2   -0.074064    1.045570    0.089317    11.00000   -1.20000
AFIX   0
C17   1    0.023669    0.933358    0.157720    11.00000    0.02261    0.02839 =
         0.02924   -0.00072   -0.00108    0.00216
AFIX  43
H17   2   -0.011516    0.971454    0.197283    11.00000   -1.20000
AFIX   0
C18   1   -0.012201    0.969979   -0.036061    11.00000    0.04469    0.04769 =
         0.03136    0.00692   -0.00834   -0.00320
AFIX 137
H18A  2    0.028370    1.048088   -0.040372    11.00000   -1.50000
H18B  2   -0.130046    0.970043   -0.040364    11.00000   -1.50000
H18C  2    0.034779    0.922439   -0.071609    11.00000   -1.50000
AFIX   0
HKLF 4

REM  sa4150_a.res in P2(1)2(1)2(1)
REM R1 =  0.0319 for    3973 Fo > 4sig(Fo)  and  0.0341 for all    4130 data
REM    237 parameters refined using      0 restraints

END

WGHT      0.0217      0.5393

REM Highest difference peak  0.287,  deepest hole -0.315,  1-sigma level  0.054
Q1    1   0.3631  0.7780  0.1585  11.00000  0.05    0.29
Q2    1   0.4587  0.6970  0.3251  11.00000  0.05    0.26
Q3    1   0.4606  0.7276  0.3808  11.00000  0.05    0.25
Q4    1   0.2010  0.9796  0.2418  11.00000  0.05    0.25
Q5    1   0.2934  0.8026  0.2378  11.00000  0.05    0.23
Q6    1  -0.0101  0.9260  0.0005  11.00000  0.05    0.22
Q7    1   0.4784  0.6453  0.3649  11.00000  0.05    0.21
Q8    1   0.6544  0.3357  0.6761  11.00000  0.05    0.21
Q9    1   0.3610  0.8394  0.2746  11.00000  0.05    0.20
Q10   1   0.3819  0.7876  0.2698  11.00000  0.05    0.20
Q11   1   0.7220  0.8753  0.1616  11.00000  0.05    0.19
Q12   1   0.6324  0.8951  0.1629  11.00000  0.05    0.19
Q13   1  -0.0459  0.9253  0.1322  11.00000  0.05    0.19
Q14   1   0.1436  0.7051  0.4977  11.00000  0.05    0.19
Q15   1   0.4400  0.4355  0.6567  11.00000  0.05    0.19
Q16   1   0.0636  0.9730  0.0582  11.00000  0.05    0.18
Q17   1   0.0004  0.8550  0.0377  11.00000  0.05    0.18
Q18   1   0.6216  0.8249  0.2796  11.00000  0.05    0.17
Q19   1  -0.1612  0.8627 -0.0062  11.00000  0.05    0.17
Q20   1   0.3195  0.7719  0.2922  11.00000  0.05    0.17
;
_shelx_res_checksum              56330
_shelx_hkl_file
;
   0   0  -1   -0.19    0.10
   0   0  -3    3.83    1.28
   0   0  -4 2702.77   23.53
   0   0  -5    4.25    1.56
   0   0   6  156.98    3.27
   0   0   7    6.19    2.25
   0   0  -7    5.23    1.62
   0   0   8   21.29    3.18
   0   0  -8   14.54    1.53
   0   0   9    3.00    2.01
   0   0  -9   -0.91    1.61
   0   0  10 1369.20   17.04
   0   0  12 1658.11   41.33
   0   0  13   13.88    2.79
   0   0  14  444.36   18.44
   0   0  15    4.23    2.51
   0   0  16 1029.18   33.49
   0   0  18  668.00   22.27
   0   0  19    6.90    3.00
   0   0  20    5.55    1.97
   0   0  21    6.45    4.37
   0   0  22   82.15    8.26
   0   0  23   -3.33    2.90
   0   0  24  321.28   77.56
   0   0  25    8.93    3.26
   0   1   0    0.34    0.37
   0  -1   0   -0.04    0.26
   0   1   0   -0.53    0.30
   0   1  -1    0.38    0.19
   0   1   1   -0.18    0.34
   0  -1   1   -0.06    0.30
   0   1  -1   -0.27    0.32
   0   1  -2  202.40    2.62
   0   1  -3 2012.84   17.54
   0   1   3 2066.96   18.27
   0  -1  -3 2045.84   18.07
   0  -1   4  154.46    2.70
   0  -1  -4  161.49    2.98
   0  -1   5   11.77    1.44
   0   1  -5   11.62    1.18
   0   1   5    6.20    1.40
   0  -1  -5    5.83    1.08
   0  -1   6 2678.33   24.10
   0   1  -6 2557.69   22.90
   0  -1  -6 2373.29   21.75
   0  -1   7 2734.47   25.00
   0   1  -7 2604.51   23.52
   0   1   7 2560.48   23.65
   0  -1   8 3684.85   41.06
   0   1   8 3747.60   41.16
   0   1  -8 3682.73   40.01
   0  -1  -8 3509.31   38.47
   0  -1   9 5687.27  370.09
   0   1   9 5610.46  364.26
   0   1  -9 5291.98  343.50
   0  -1  10  242.15    5.48
   0   1  10  286.79    5.88
   0   1 -10  259.82    4.93
   0  -1  11  481.55   13.08
   0   1  11  469.90   13.20
   0  -1  12  289.69    7.82
   0   1  12  349.74   10.57
   0  -1  13  362.15    9.64
   0   1  13  352.45    9.68
   0  -1  14   42.09    3.48
   0   1  14   45.45    4.67
   0  -1  15 2970.05   92.32
   0   1  15 2740.86   89.70
   0  -1  16   98.98    5.88
   0  -1  17  413.42   14.88
   0   1  17  408.85   14.95
   0  -1  18   77.15    9.38
   0   1  18   60.89    7.52
   0  -1  19   54.85    7.81
   0   1  19   61.72    9.13
   0  -1  20   44.17    5.04
   0   1  20   50.45    5.96
   0  -1  21  151.62    8.78
   0   1  21  171.85    9.63
   0  -1  22   37.75    7.97
   0   1  22   44.34   10.07
   0  -1  23    6.15    4.30
   0   1  23    7.62    4.73
   0  -1 -23    5.43    5.14
   0  -1  24    5.54    3.14
   0   1  24    6.57    3.34
   0  -1 -24   12.94    5.55
   0   1  25  279.79   36.98
   0  -1 -25  316.40   42.51
   0   2   0 5177.20   43.56
   0   2   0 4827.21   40.78
   0   2   1 4264.88   36.24
   0   2  -1 4390.29   37.00
   0  -2   1 4182.76   35.45
   0   2  -1 4099.33   34.75
   0   2   1 4279.05   36.34
   0   2  -2 7235.94   75.57
   0   2   2 7314.52   76.69
   0   2  -2 7048.46   59.13
   0   2   2 7183.41   60.34
   0  -2   3  414.67    4.54
   0   2   3  451.96    5.86
   0   2  -3  426.50    4.99
   0  -2  -3  466.92    5.73
   0   2   3  456.49    5.55
   0  -2   4    4.04    0.73
   0   2  -4    6.37    1.18
   0  -2  -4    7.09    2.42
   0  -2   4    7.55    1.33
   0   2  -4    4.76    0.79
   0  -2  -4    5.49    1.73
   0  -2   5  216.90    3.83
   0   2  -5  181.63    3.00
   0   2   5  207.95    4.15
   0  -2  -5  210.31    3.87
   0  -2   6 1173.78   11.75
   0   2  -6 1101.34   10.99
   0  -2  -6 1076.36   11.31
   0   2  -6 1147.74   11.37
   0  -2   7 1849.61   17.64
   0   2  -7 1815.47   17.12
   0   2   7 1886.59   18.56
   0  -2  -7 1726.90   16.84
   0   2  -7 1778.26   16.74
   0  -2   8  356.05    5.92
   0   2  -8  337.84    5.36
   0  -2   9  251.11    5.13
   0   2  -9  229.78    4.51
   0   2   9  254.72    5.83
   0  -2  10  799.76   20.54
   0   2 -10  720.88   18.37
   0   2  10  694.35   18.26
   0  -2  11  436.13   12.03
   0   2 -11  439.70   11.79
   0   2  11  466.24   13.02
   0  -2  12 1990.45   42.26
   0   2  12 2040.64   43.66
   0  -2  13   95.05    5.33
   0   2  13  106.78    6.62
   0  -2  14  439.96   18.13
   0   2  14  455.39   19.05
   0  -2  15   21.96    3.71
   0   2  15   17.83    3.41
   0  -2  16  116.75    6.32
   0   2  16  129.00    7.21
   0  -2  17  237.85    9.26
   0   2  17  280.13   11.35
   0  -2  18  338.91   16.87
   0   2  18  307.24   15.78
   0  -2  19   45.93    6.47
   0   2  19   40.71    6.27
   0  -2 -19   47.04    8.39
   0  -2  20   51.41    5.85
   0   2  20   31.50    5.54
   0  -2 -20   51.60    7.74
   0  -2  21   19.21    4.36
   0   2  21   12.12    3.88
   0  -2 -21   29.46    7.45
   0  -2  22  167.73   14.65
   0   2  22  168.78   15.57
   0  -2 -22  170.19   16.10
   0  -2  23  147.49   10.52
   0   2  23  161.22   11.78
   0  -2 -23  166.76   13.19
   0   2  24  135.47   11.34
   0  -2 -24  131.92   12.71
   0   2  25   10.52    3.80
   0  -2 -25   12.87    8.07
   0   3   0   11.16    2.69
   0   3   0    4.80    0.97
   0   3   1 1018.98   10.53
   0  -3  -1  970.46    9.73
   0   3  -1  992.64   10.07
   0   3   1 1024.56   10.23
   0   3  -2 3767.51   32.39
   0   3   2 3639.82   31.90
   0  -3   2 3777.93   32.77
   0  -3  -2 3622.46   31.64
   0   3   2 3668.44   32.01
   0   3  -3 1610.33   14.67
   0   3   3 1724.63   16.56
   0  -3   3 1747.78   16.12
   0   3   3 1715.32   16.13
   0  -3   4  210.74    4.24
   0   3  -4  189.73    4.59
   0   3   4  208.07    4.36
   0  -3   4  215.17    4.28
   0   3  -4  209.36    3.46
   0   3   4  206.07    3.72
   0  -3   5  261.32    3.74
   0   3  -5  265.63    3.97
   0  -3  -5  236.44    4.32
   0  -3   5  289.86    4.39
   0   3  -5  262.48    4.08
   0  -3   6    5.01    1.30
   0   3  -6    4.13    1.20
   0  -3  -6    4.76    2.33
   0   3  -6    1.70    0.94
   0  -3  -6    1.65    2.07
   0  -3   7  117.52    2.97
   0   3  -7  110.95    2.79
   0   3  -7  117.77    2.92
   0  -3  -7  110.81    3.66
   0  -3   8 2191.74   24.81
   0   3  -8 2071.30   23.48
   0   3   8 2176.20   25.54
   0   3  -8 2113.63   24.01
   0  -3   9  801.55   10.86
   0   3  -9  691.51    9.42
   0  -3  -9  699.09   10.67
   0  -3  10  289.73    8.31
   0   3 -10  273.13   18.19
   0   3  10  289.84    8.13
   0  -3 -10  308.85    9.83
   0  -3  11  210.66   14.77
   0   3 -11  207.49   13.99
   0   3  11  219.79   15.29
   0  -3 -11  173.90   12.67
   0  -3  12    5.33    2.40
   0   3  12    9.47    3.46
   0  -3 -12   11.39    2.85
   0  -3  13  142.25    7.11
   0   3  13  144.58    7.38
   0  -3 -13  151.58    8.51
   0  -3  14  615.16   21.28
   0   3  14  614.58   21.73
   0  -3 -14  667.63   23.90
   0  -3  15  110.82    5.23
   0   3  15  122.79    7.04
   0  -3 -15  121.19    7.63
   0  -3  16  218.85    8.75
   0   3  16  247.77   10.83
   0  -3 -16  237.95   10.70
   0  -3  17  648.68   21.08
   0   3  17  697.17   23.25
   0  -3 -17  716.49   25.43
   0  -3  18    9.09    1.83
   0   3  18   11.42    3.83
   0  -3 -18    9.49    4.97
   0  -3  19  127.12   18.34
   0   3  19  145.66   11.67
   0  -3 -19  142.74   11.39
   0  -3  20   64.83   13.03
   0   3  20   93.10    7.78
   0  -3 -20   78.47    8.32
   0  -3  21   54.42   11.08
   0   3  21   68.70    6.15
   0  -3 -21   50.61    8.72
   0  -3  22   92.88   18.53
   0   3  22  150.06   12.16
   0  -3 -22  158.33   13.31
   0   3  23   25.23    6.22
   0  -3 -23   18.56    8.23
   0   3  24    0.39    3.55
   0  -3 -24    3.22    5.11
   0  -4   0 5772.63   49.38
   0  -4   0 5832.70   50.13
   0   4   0 5644.16   48.56
   0   4   1 1282.82   13.10
   0  -4  -1 1204.56   12.02
   0  -4   1 1247.72   12.43
   0   4  -1 1250.64   12.50
   0  -4  -1 1281.86   12.99
   0   4   1 1238.48   12.44
   0   4   2 1409.16   14.24
   0   4  -2 1432.70   13.91
   0  -4   2 1421.77   13.90
   0   4  -2 1362.22   13.37
   0   4  -3   18.72    3.13
   0   4   3   22.62    2.21
   0  -4  -3   12.41    1.61
   0  -4   3   23.62    2.68
   0   4  -3   23.06    1.57
   0   4  -4   14.68    1.80
   0   4   4   15.76    2.12
   0  -4  -4   17.02    2.28
   0  -4   4   15.86    2.50
   0   4  -4   16.98    1.75
   0   4   4   15.53    2.05
   0  -4   5  841.19   10.42
   0   4  -5  733.97    9.43
   0   4   5  792.10   11.16
   0  -4   5  784.89   11.53
   0   4  -5  759.48    9.91
   0  -4  -5  751.57   10.40
   0  -4   6  563.20    7.61
   0   4  -6  571.89    7.98
   0   4   6  542.80    8.95
   0  -4   6  568.11    8.08
   0   4  -6  543.16    7.77
   0  -4  -6  533.02    8.42
   0  -4   7  535.83    7.45
   0   4  -7  500.52    7.28
   0   4  -7  506.35    7.48
   0  -4   8   36.00    5.12
   0   4  -8   26.39    2.39
   0   4   8   35.98    4.10
   0  -4  -8   33.18    3.74
   0  -4   9  115.86    8.07
   0   4  -9  109.43    7.65
   0  -4  -9  108.20    8.18
   0  -4  10  219.31   15.35
   0   4 -10  212.26   14.31
   0   4  10  261.98   18.03
   0  -4 -10  239.53   16.66
   0  -4  11  910.91   20.04
   0   4 -11  807.09   17.89
   0   4  11  918.06   21.40
   0  -4 -11  933.18   21.61
   0  -4  12 1006.94   39.30
   0   4  12  995.66   39.58
   0  -4 -12  979.54   38.80
   0  -4  13  922.71   30.89
   0   4  13  983.60   33.65
   0  -4 -13  930.25   31.69
   0  -4  14  482.77   16.14
   0   4  14  469.59   16.88
   0  -4 -14  395.87   14.40
   0  -4  15  193.95    8.08
   0   4  15  235.18   10.12
   0  -4 -15  212.96    9.54
   0  -4  16  216.64    8.20
   0   4  16  208.53    8.91
   0  -4 -16  199.49    9.59
   0  -4  17  525.09   24.76
   0   4  17  567.50   27.28
   0  -4 -17  557.53   27.51
   0  -4  18   16.26    2.81
   0   4  18   21.18    4.97
   0  -4 -18   13.34    6.44
   0  -4  19   99.79   14.45
   0   4  19  145.28   11.70
   0  -4 -19  125.19   10.01
   0  -4  20    2.03    1.93
   0   4  20   12.79    6.08
   0  -4 -20    3.40    4.31
   0  -4  21    5.04    2.56
   0   4  21    5.77    5.26
   0  -4 -21   12.53    5.12
   0   4  22   16.43    5.89
   0  -4 -22   11.25    5.67
   0   4  23  206.19   18.92
   0  -4 -23  207.43   19.54
   0   4  24   62.42    9.82
   0  -4 -24   61.30    9.93
   0   5   0    3.93    2.27
   0  -5   0    2.19    1.71
   0  -5   0    3.42    0.94
   0   5   0    5.15    1.09
   0   5  -1   30.23    2.24
   0  -5  -1   38.62    2.17
   0  -5   1   29.14    1.93
   0  -5  -1   37.62    2.09
   0   5  -1   30.18    2.24
   0   5   1   37.79    2.53
   0   5   2 2252.76   25.98
   0   5  -2 2248.57   25.40
   0  -5   2 2195.75   24.88
   0   5  -2 2214.17   25.11
   0  -5  -2 2247.60   25.74
   0   5   2 2233.19   25.42
   0   5  -3  118.05    2.97
   0   5   3  116.80    4.03
   0   5  -3  121.37    3.88
   0  -5   3  128.50    5.13
   0   5  -3  122.01    3.64
   0  -5  -3  120.18    3.63
   0   5   3  106.71    6.94
   0   5  -4  754.26    9.77
   0   5   4  810.72   11.60
   0   5  -4  828.99   10.87
   0  -5   4  824.24   10.95
   0   5  -4  786.47   10.40
   0  -5  -4  782.89   10.89
   0   5  -5    6.92    0.99
   0   5   5   10.99    3.87
   0  -5   5   12.84    1.86
   0   5  -5    8.05    1.26
   0  -5  -5    7.38    1.76
   0   5  -6    5.01    1.11
   0   5   6    4.18    2.97
   0  -5   6   -0.78    1.38
   0   5  -6    9.87    1.59
   0  -5  -6    7.40    2.42
   0  -5   7  961.65   24.04
   0   5  -7  859.89   21.71
   0   5   7  807.73   22.52
   0  -5   7  900.35   22.69
   0  -5  -7  864.71   22.29
   0  -5   8 1421.75   35.01
   0   5  -8 1190.26   29.97
   0   5   8 1367.92   34.82
   0  -5  -8 1344.54   33.88
   0  -5   9  158.25    4.85
   0   5  -9  124.07    3.96
   0   5   9  140.64    5.88
   0  -5  -9  130.14    6.31
   0  -5  10 1537.41   33.57
   0   5 -10 1224.30   26.37
   0  -5  11  119.75    5.53
   0   5  11  125.00    7.63
   0  -5  12    2.01    1.03
   0   5  12    3.89    3.06
   0  -5 -12    1.51    3.41
   0  -5  13   23.84    4.50
   0   5  13   10.00    3.01
   0  -5 -13   16.68    5.02
   0  -5  14  465.94   15.68
   0   5  14  476.86   17.20
   0  -5 -14  514.95   18.13
   0  -5  15  138.19   15.54
   0   5  15  128.24   14.66
   0  -5 -15  146.55    7.81
   0  -5  16  169.88   16.33
   0   5  16  202.99   10.44
   0  -5 -16  203.56    9.83
   0  -5  17    0.43    1.41
   0   5  17    0.10    3.47
   0  -5 -17   -1.71    4.50
   0  -5  18    3.70    2.09
   0   5  18    8.30    3.63
   0  -5 -18   11.82    5.61
   0  -5  19   11.98    2.61
   0   5  19   -0.67    4.08
   0  -5 -19   12.71    4.36
   0  -5  20  210.27   10.20
   0   5  20  233.47   12.63
   0  -5 -20  219.10   12.59
   0   5  21    0.26    4.14
   0  -5 -21    9.02    6.66
   0   5  22   96.91    8.92
   0  -5 -22  101.68   10.16
   0   5  23   18.28    6.74
   0  -5 -23    8.92    6.98
   0   6   0  215.83    5.24
   0  -6   0  217.82    4.86
   0   6   1 4980.28   54.32
   0   6  -1 5021.48  326.06
   0  -6   1 4999.61  324.65
   0  -6  -1 4980.56   54.42
   0   6  -2    8.63    1.95
   0  -6   2    7.55    1.41
   0  -6  -2    5.42    2.13
   0   6  -3  860.59   21.59
   0   6   3  915.96   23.59
   0   6  -3  938.81   23.75
   0  -6   3  926.24   23.41
   0  -6  -3  897.21   22.94
   0   6  -4   25.44    2.74
   0   6   4   21.67    3.65
   0   6  -4   37.00    3.52
   0  -6   4   31.61    5.38
   0  -6  -4   25.66    2.69
   0   6  -5  217.14   14.54
   0   6   5  254.87   17.55
   0   6  -5  243.25   16.38
   0  -6   5  254.29   17.12
   0  -6  -5  249.55   16.99
   0   6  -6   85.36    6.09
   0   6   6   83.87    6.73
   0  -6   6  102.05   10.87
   0  -6  -6   86.33    6.58
   0   6  -7   34.11    5.37
   0   6   7   61.54    4.38
   0  -6   7   52.92    6.34
   0  -6  -7   49.00    3.47
   0   6  -8    8.74    1.65
   0   6   8   21.36    3.16
   0  -6   8   17.63    2.97
   0  -6  -8   16.77    3.16
   0   6   9   28.40    3.67
   0  -6  -9   25.16    3.41
   0  -6  10   25.12    3.59
   0   6  10   20.54    2.71
   0  -6 -10   22.17    3.42
   0  -6  11 1237.49   40.85
   0   6  11 1059.40   35.99
   0  -6 -11 1211.82   40.89
   0  -6  12   79.80    8.37
   0  -6 -12   70.30    5.15
   0  -6  13  709.60   23.16
   0   6  13  735.16   25.19
   0  -6 -13  735.80   25.11
   0  -6  14   19.30    3.60
   0   6  14    9.21    3.64
   0  -6  15    2.81    1.63
   0   6  15    5.31    3.88
   0  -6  16   88.65   14.01
   0   6  16   76.73   10.51
   0  -6 -16   90.84   12.40
   0  -6  17  325.97   18.16
   0   6  17  385.41   22.86
   0  -6 -17  387.67   22.80
   0  -6  18   26.69    6.03
   0   6  18   28.32    6.39
   0  -6 -18   35.67    7.74
   0   6  19  296.56   15.71
   0  -6 -19  306.40   15.54
   0   6  20   17.26    6.91
   0  -6 -20   11.75    4.61
   0   6  21   30.57    6.05
   0  -6 -21   40.48    7.76
   0   6  22   42.90    6.04
   0  -6 -22   58.69    8.14
   0   6  23  133.56   26.04
   0  -6 -23  152.19   21.77
   0   7   0    1.16    3.03
   0  -7   0    9.07    2.88
   0   7   1  139.65   10.13
   0   7  -1  151.69   10.89
   0  -7   1  158.41   11.19
   0  -7  -1  136.02    9.66
   0   7   2 2129.16   52.75
   0   7  -2 2118.51   52.08
   0  -7   2 2106.31   51.73
   0  -7  -2 2051.82   50.60
   0   7   3   14.15    3.27
   0   7  -3    7.85    1.99
   0  -7   3   17.84    3.15
   0  -7  -3   19.30    3.09
   0   7   4  738.59   17.65
   0   7  -4  746.01   17.02
   0  -7   4  698.22   16.04
   0  -7  -4  733.64   17.13
   0   7   5   69.28    4.72
   0   7  -5   75.01    3.47
   0  -7   5   86.70    8.41
   0  -7  -5   78.75    4.02
   0   7   6    0.94    3.25
   0   7  -6    8.29    3.58
   0  -7   6    3.84    1.03
   0  -7  -6    0.51    2.61
   0   7   7  141.80    7.71
   0   7  -7  159.74    7.68
   0  -7   7  125.15    7.46
   0  -7  -7  154.01    7.64
   0   7   8  674.75   27.58
   0  -7   8  672.48   27.00
   0  -7  -8  675.68   27.42
   0   7   9  164.29   14.92
   0  -7   9  149.60   13.09
   0  -7  -9  167.98   15.12
   0   7  10  117.69   11.06
   0  -7 -10  135.41   12.55
   0   7  11  313.77   12.26
   0  -7 -11  326.61   12.43
   0   7  12    8.38    5.04
   0  -7 -12    2.51    3.43
   0  -7  13    2.76    1.21
   0  -7 -13    1.86    3.37
   0  -7  14  909.99  104.65
   0   7  14  833.02   39.15
   0  -7 -14  891.03  102.81
   0  -7  15   23.92    4.75
   0   7  15   21.01    4.64
   0  -7 -15   19.57    3.92
   0  -7  16  550.83   29.96
   0   7  16  591.97   99.35
   0  -7 -16  575.30   96.47
   0  -7  17    4.12    1.76
   0   7  17    1.71    4.19
   0   7  18    5.39    3.99
   0   7  19   45.87    8.13
   0   7  20   31.97    6.69
   0  -7 -20   39.61    8.72
   0   7  21   33.44    8.65
   0  -7 -21   39.82    7.99
   0   7  22   40.15    7.90
   0  -7 -22   43.09    8.92
   0   8   0  361.99   15.32
   0  -8   0  355.90   14.86
   0   8   1 1244.58   48.68
   0   8  -1 1299.50   50.76
   0  -8   1 1269.02   49.38
   0  -8  -1 1214.58   47.41
   0   8   2   73.33    5.05
   0   8  -2   69.80    4.67
   0  -8   2   84.15    9.75
   0  -8  -2   89.63    6.38
   0   8   3  175.94    8.73
   0   8  -3  172.20    8.25
   0  -8   3  185.10    8.64
   0  -8  -3  169.52    8.33
   0   8   4  192.79    9.51
   0   8  -4  221.31   10.17
   0  -8   4  204.49    9.19
   0  -8  -4  212.67   10.02
   0   8   5   17.22    5.45
   0   8  -5   15.53    4.07
   0  -8   5   15.26    1.89
   0  -8  -5   26.15    3.59
   0   8   6 1006.05   34.49
   0   8  -6 1036.60   34.71
   0  -8   6 1041.10   34.84
   0  -8  -6  990.66   33.53
   0   8   7  135.52   12.62
   0   8  -7  134.82   12.22
   0  -8   7  145.88   18.70
   0  -8  -7  134.18   12.19
   0   8   8  577.37   20.45
   0   8  -8  602.44   19.91
   0  -8   8  567.66   18.84
   0  -8  -8  571.83   19.57
   0   8   9  354.26   13.92
   0   8  -9  386.17   13.66
   0  -8   9  346.60   12.92
   0  -8  -9  349.30   13.03
   0   8  10   92.49   12.89
   0  -8  10  107.87   14.26
   0  -8 -10  117.21   16.46
   0   8  11  985.38   31.72
   0  -8 -11 1038.32   33.22
   0   8  12  131.43   16.50
   0  -8 -12  121.78   14.03
   0   8  13  502.84   24.98
   0  -8 -13  472.10   23.26
   0   8  14   44.95    7.63
   0  -8 -14   33.16    6.13
   0  -8 -15   32.82    6.08
   0   8  16  152.12   11.36
   0  -8 -16  167.82   15.98
   0   8  17  104.29    8.20
   0  -8 -17   97.34    8.57
   0   8  18  121.33   10.70
   0  -8 -18  138.07   11.72
   0   8  19   53.85    6.81
   0  -8 -19   79.26    9.11
   0   8  20   57.33    7.66
   0  -8 -20   67.50    8.22
   0   8  21    6.98    4.31
   0  -8 -21    9.38    6.19
   0   9   0   -0.74    3.28
   0  -9   0    0.24    2.35
   0   9   1   11.37    3.81
   0   9  -1    3.15    3.23
   0  -9   1    5.30    2.22
   0  -9  -1    9.31    2.62
   0   9   2  294.70   12.03
   0   9  -2  294.69   12.10
   0  -9   2  247.74   21.21
   0  -9  -2  265.94   10.45
   0   9   3  131.04   12.15
   0   9  -3  124.19   11.33
   0  -9   3  145.17   12.84
   0  -9  -3  118.91   10.83
   0   9   4  320.71   13.51
   0   9  -4  310.24   11.71
   0  -9   4  292.24   10.70
   0  -9  -4  297.08   11.19
   0   9   5   21.08    3.97
   0   9  -5   18.90    3.04
   0  -9   5   31.21    4.92
   0  -9  -5   20.89    2.84
   0   9   6    6.35    3.87
   0   9  -6    3.69    2.92
   0  -9   6    6.39    2.38
   0  -9  -6    4.86    2.79
   0   9   7  310.10   12.80
   0   9  -7  305.94   11.37
   0  -9   7  311.53   11.51
   0  -9  -7  319.92   12.35
   0   9   8   -2.71    4.01
   0   9  -8   13.86    4.20
   0  -9   8    7.06    2.62
   0  -9  -8   11.31    4.35
   0   9   9  873.64   30.26
   0   9  -9  874.41   27.52
   0  -9   9  864.60   27.27
   0  -9  -9  856.83   27.72
   0   9  10   94.67   11.92
   0   9 -10  104.93   11.85
   0  -9  10  111.86   18.65
   0  -9 -10  110.18   13.13
   0   9  11  274.65   14.77
   0   9 -11  257.70   13.06
   0  -9 -11  285.78   14.95
   0   9  12    8.96    3.99
   0   9 -12    9.40    3.77
   0  -9 -12   10.12    3.73
   0   9  13   22.17    4.91
   0  -9 -13   24.81    5.03
   0   9  14  142.25   10.32
   0  -9 -14  137.37   11.02
   0   9  15   13.44    5.39
   0  -9 -15   17.85    4.68
   0  -9 -16  104.71   10.42
   0   9  17    4.56    4.21
   0  -9 -17    7.70    4.25
   0   9  18   13.17    4.75
   0  -9 -18    3.74    4.10
   0   9  19   94.80    9.26
   0  -9 -19   83.02    8.60
   0   9  20  129.11   18.19
   0  -9 -20  159.26   21.86
   0  10   0  435.86   16.11
   0 -10   0  372.74   13.63
   0  10   1  268.59   11.59
   0  10  -1  279.67   11.05
   0 -10   1  270.84   10.44
   0 -10  -1  271.55   10.39
   0  10   2   10.20    5.77
   0  10  -2    8.05    4.85
   0 -10   2    4.12    2.01
   0 -10  -2    4.61    2.67
   0  10   3   52.60    8.51
   0  10  -3   75.99   11.36
   0 -10   3   66.96   13.37
   0 -10  -3   56.14    8.08
   0  10   4  118.64   13.81
   0  10  -4  126.08   14.27
   0 -10   4  120.57   20.77
   0 -10  -4  113.81   12.95
   0  10   5  142.38    7.80
   0  10  -5  131.33   16.16
   0 -10   5  158.95   20.19
   0 -10  -5  145.78    7.63
   0  10   6  382.61   14.46
   0  10  -6  375.08   13.30
   0 -10   6  368.77   12.97
   0 -10  -6  365.79   13.49
   0  10   7   32.75    5.21
   0  10  -7   22.90    4.26
   0 -10   7   26.77    6.36
   0 -10  -7   34.32    7.05
   0  10   8   16.24    4.57
   0  10  -8    8.41    2.84
   0 -10   8   16.49    3.04
   0 -10  -8   13.51    3.75
   0  10   9   36.54    5.99
   0  10  -9   37.84    5.93
   0 -10   9   30.11    6.90
   0 -10  -9   28.63    5.26
   0  10  10   13.16    4.44
   0  10 -10   12.88    3.18
   0 -10  10   15.56    2.90
   0 -10 -10   30.48    6.33
   0  10  11  153.39   10.94
   0  10 -11  145.60    9.41
   0 -10 -11  182.60   11.83
   0  10  12   84.05    8.02
   0  10 -12   67.22    9.69
   0 -10 -12   90.60    7.41
   0  10  13  218.33   12.01
   0 -10 -13  217.11   11.84
   0  10  14    1.12    4.05
   0 -10 -14    6.40    4.54
   0  10  15   84.56    9.15
   0 -10 -15   94.54    8.87
   0  10  16   76.73    7.70
   0 -10 -16   82.85    7.83
   0  10  17   19.23    7.10
   0 -10 -17   25.74    6.79
   0  10  18  106.77   10.10
   0 -10 -18  117.84   10.72
   0  11   0   12.44    5.13
   0 -11   0    5.65    2.49
   0  11   1   47.66    8.28
   0  11  -1   49.38    7.74
   0 -11   1   61.11   10.34
   0 -11  -1   45.85    6.38
   0  11   2   40.99    6.26
   0  11  -2   49.43    8.21
   0 -11   2   47.40    9.03
   0 -11  -2   44.49    6.22
   0  11   3  115.18   14.84
   0  11  -3  112.34   13.93
   0 -11   3  120.57   12.21
   0 -11  -3  108.15   13.44
   0  11   4   19.93    4.41
   0  11  -4   10.62    3.53
   0 -11   4   23.54    4.18
   0 -11  -4   17.69    4.22
   0  11   5   41.31    7.23
   0  11  -5   29.07    4.84
   0 -11   5   39.33    6.84
   0 -11  -5   33.91    5.35
   0  11   6    4.37    4.50
   0  11  -6    3.20    2.91
   0 -11   6    2.50    1.85
   0 -11  -6    6.32    3.23
   0  11   7   27.15    5.27
   0  11  -7   29.05    4.38
   0 -11   7   33.24    6.06
   0 -11  -7   29.62    4.56
   0  11   8   70.98    8.44
   0  11  -8   88.59    8.81
   0 -11   8   81.24   14.54
   0 -11  -8   88.28    9.22
   0  11   9  338.71   21.22
   0  11  -9  383.46   22.92
   0 -11   9  333.46   19.83
   0 -11  -9  364.95   22.42
   0  11  10   41.73    7.64
   0  11 -10   47.06    7.43
   0 -11  10   40.49    7.61
   0 -11 -10   43.32    8.46
   0  11  11   90.06    7.04
   0  11 -11   98.27    6.29
   0 -11  11   93.09    5.82
   0 -11 -11   83.53    6.44
   0  11  12   21.87    6.00
   0 -11 -12   53.22    6.62
   0  11  13    3.87    6.01
   0 -11 -13    6.49    3.62
   0  11  14  157.42   13.49
   0 -11 -14  180.37   12.85
   0  11  15   88.42   10.73
   0 -11 -15   71.60    8.54
   0  11  16   85.47    9.93
   0 -11 -16  101.93   12.89
   0  11  17    7.32    4.74
   0 -11 -17    7.27    3.91
   0  12   0   87.51    8.93
   0 -12   0   82.88   13.83
   0  12   1   65.54    7.76
   0  12  -1   79.05    9.27
   0 -12   1   61.00   11.53
   0 -12  -1   55.18    6.21
   0  12   2   33.86    5.99
   0  12  -2   43.81    6.44
   0 -12   2   54.07    8.87
   0 -12  -2   36.03    4.90
   0  12   3   -0.36    4.12
   0  12  -3    5.87    4.42
   0 -12   3   10.13    3.51
   0 -12  -3    3.60    3.99
   0  12   4   47.53    9.83
   0  12  -4   49.29   10.00
   0 -12   4   57.25   13.17
   0 -12  -4   51.55    9.94
   0  12   5    8.55    3.82
   0  12  -5    5.38    2.94
   0 -12   5    9.80    3.27
   0 -12  -5    9.81    3.46
   0  12   6  369.90   18.13
   0  12  -6  360.59   16.75
   0 -12   6  338.80   15.95
   0 -12  -6  366.86   17.66
   0  12   7   12.40    5.68
   0  12  -7    6.97    2.77
   0 -12   7    4.43    1.44
   0 -12  -7   17.48    5.12
   0  12   8  221.38   19.54
   0  12  -8  215.25   18.46
   0 -12   8  221.72   18.75
   0 -12  -8  202.74   17.60
   0  12   9  127.31   12.27
   0  12  -9  130.88   11.81
   0 -12   9  115.07   17.83
   0 -12  -9  130.01   12.06
   0  12  10    7.03    4.24
   0 -12  10   11.90    2.94
   0 -12 -10   13.84    5.04
   0  12  11   51.55   11.13
   0 -12  11   52.52   13.25
   0 -12 -11   64.23    6.91
   0  12  12   10.29    4.39
   0 -12 -12    8.11    3.67
   0  12  13   60.14    7.33
   0 -12 -13   69.03    8.27
   0  12  14    4.81    4.30
   0 -12 -14    9.64    4.36
   0  12  15    8.35    4.81
   0 -12 -15   10.41    4.08
   0  13   0    3.95    3.97
   0 -13   0    8.79    3.77
   0  13   1    5.42    3.85
   0  13  -1   13.84    5.78
   0 -13   1   12.90    3.98
   0 -13  -1   11.79    4.15
   0  13   2   20.83    6.67
   0  13  -2   24.09    6.68
   0 -13   2   16.96    4.10
   0 -13  -2    8.08    3.17
   0  13   3  176.41   16.26
   0  13  -3  160.44   14.76
   0 -13   3  132.99   23.64
   0 -13  -3  180.50   15.86
   0  13   4   19.19    6.38
   0  13  -4   23.24    5.69
   0 -13   4   11.34    3.11
   0 -13  -4   24.82    6.28
   0  13   5    2.46    3.72
   0  13  -5   11.52    4.74
   0 -13   5    8.72    2.31
   0 -13  -5    1.61    2.96
   0  13   6   19.86    6.35
   0  13  -6   12.60    4.55
   0 -13   6    3.87    2.05
   0 -13  -6    5.88    3.20
   0  13   7  158.59   12.10
   0  13  -7  189.67   13.10
   0 -13   7  173.84   11.63
   0 -13  -7  177.83   12.46
   0  13   8   -1.41    3.82
   0 -13   8   11.30    3.50
   0 -13  -8   15.01    3.72
   0  13   9   55.65    7.92
   0 -13   9   50.94    9.74
   0 -13  -9   47.81    6.01
   0  13  10   14.63    6.57
   0 -13 -10   -2.35    3.35
   0  13  11    8.72    4.72
   0 -13  11   20.86    6.56
   0 -13 -11   27.86    8.08
   0  13  12   11.11    6.83
   0 -13 -12   21.52    5.60
   0  14   0  137.99   13.67
   0 -14   0   94.35   17.82
   0  14   1   13.63    5.86
   0  14  -1    3.85    3.51
   0 -14   1   -2.17    2.87
   0 -14  -1    9.91    3.68
   0  14   2   59.41    7.53
   0  14  -2   76.34    8.28
   0 -14   2   57.92   10.06
   0 -14  -2   70.35    9.15
   0  14   3    8.53    4.31
   0  14  -3   12.76    4.71
   0 -14   3   12.70    3.59
   0 -14  -3   14.28    4.22
   0  14   4   20.49    6.63
   0  14  -4   13.66    4.33
   0 -14   4    5.66    2.02
   0 -14  -4   15.08    4.63
   0  14   5  103.57    9.80
   0  14  -5  100.60    9.39
   0 -14   5   75.13   17.31
   0 -14  -5   96.60    9.69
   0  14   6    5.09    3.88
   0  14  -6   10.89    4.76
   0 -14   6    3.94    2.10
   0 -14  -6    4.58    3.05
   0  14   7   43.26    9.76
   0 -14   7   37.33    9.60
   0 -14  -7   39.42    5.50
   0  14   8    7.33    4.06
   0 -14   8    8.25    3.67
   0 -14  -8    7.27    3.20
   1   0   0   -0.11    0.57
  -1   0   0   -1.63    0.45
   1   0   0    3.57    0.62
  -1   0  -3  433.37    5.25
  -1   0   3  430.99    4.40
  -1   0  -3  405.21    4.57
   1   0   4 1496.06   14.46
  -1   0  -4 1443.97   13.95
  -1   0   4 1438.48   12.98
  -1   0  -4 1433.55   13.27
  -1   0  -5 1533.93   14.95
  -1   0   5 1499.75   13.70
   1   0  -5 1499.45   13.64
   1   0   6   88.08    3.04
  -1   0  -6   88.13    2.72
  -1   0   6   95.91    2.51
   1   0  -6   99.94    2.37
  -1   0   7 1703.68   16.03
   1   0  -7 1659.58   15.54
   1   0   8  484.13   10.84
  -1   0   8  532.38    7.43
   1   0  -8  512.23    7.08
   1   0   9   97.66    3.65
  -1   0   9  108.14    4.98
   1   0  -9   82.25    2.54
   1   0  10  774.18   11.72
  -1   0  10  787.30   10.72
   1   0  11   37.72    3.90
  -1   0  11   45.51    4.28
   1   0 -11   33.94    3.13
   1   0  12   10.95    2.90
  -1   0  12   12.61    2.25
   1   0  13   10.16    3.00
  -1   0  13   11.08    2.90
   1   0  14  897.24   35.78
  -1   0  14  851.31   33.65
   1   0  15   13.22    2.55
  -1   0  15    7.49    2.67
   1   0  16   74.31    4.95
  -1   0  16   74.93    5.19
   1   0  17  304.42   12.22
  -1   0  17  306.72   11.46
   1   0  18   14.59    3.77
  -1   0  18    6.64    2.57
   1   0  19  281.03   18.25
  -1   0  19  314.82   19.96
   1   0  20  272.55   16.46
  -1   0  20  260.02   15.28
   1   0  21   27.54    5.72
  -1   0  21   20.89    4.57
   1   0  22  296.93   25.14
  -1   0  22  325.75   27.15
  -1   0 -22  360.37   30.79
   1   0  23   14.07    3.98
  -1   0 -23   23.17    6.14
   1   0  24   94.78    9.79
  -1   0  24   74.47    7.82
  -1   0 -24  110.10   12.08
   1   0  25   31.61    6.18
  -1   0 -25   33.73    6.51
   1  -1   0   23.72    1.88
  -1  -1   0   31.02    1.20
  -1  -1   1  262.80    3.39
   1   1   1  252.74    3.25
   1   1   2  336.79    4.25
   1  -1  -2  299.09    3.56
  -1   1  -4  622.60    7.20
   1   1  -4  584.20    5.45
   1  -1  -4  643.27    6.97
   1   1  -4  589.80    6.56
  -1  -1  -4  577.93    6.75
  -1  -1   5 5943.65   49.83
  -1  -1  -5 5841.43   50.30
   1   1  -5 6119.70   51.13
  -1   1   5 6135.81   52.20
   1   1  -5 6107.86   52.24
  -1  -1  -5 5914.66   50.54
   1   1   6  686.98    8.82
  -1  -1  -6  628.88    7.81
  -1   1   6  646.55    7.60
   1  -1  -6  675.48    7.71
   1   1  -6  656.38    7.46
  -1  -1  -6  637.56    7.61
   1  -1   7 3606.95   32.81
  -1   1  -7 3450.61   31.27
  -1  -1   7 3660.07   31.78
  -1   1   7 3562.48   31.70
   1   1  -7 3503.00   30.24
   1  -1  -7 3440.93   30.48
  -1  -1  -7 3560.15   32.00
   1  -1   8 1347.21   16.85
  -1  -1   8 1195.81   14.14
  -1   1  -8 1155.66   14.50
  -1   1   8 1287.13   15.62
   1   1  -8 1237.35   14.19
   1  -1  -8 1180.53   14.32
  -1  -1  -8 1314.04   16.30
   1  -1   9  498.49    8.64
  -1   1   9  476.62    7.46
   1   1  -9  457.73    6.44
   1  -1  -9  542.56    7.98
  -1  -1  -9  493.29    8.09
   1  -1  10 2641.61   30.71
  -1  -1  10 2562.09   28.83
  -1   1  10 2643.63   30.14
   1   1 -10 2539.95   28.21
   1  -1  11  404.06   14.42
  -1  -1  11  535.20   14.18
   1   1  11  509.46   14.30
  -1   1  11  455.98   12.48
   1   1 -11  446.35   12.37
   1  -1  12   65.28    3.50
  -1  -1  12   64.31    3.31
   1   1  12   69.17    4.13
  -1   1  12   67.41    4.02
   1   1 -12   76.49    2.99
   1   1  13   85.87    4.60
   1  -1  14    7.59    3.89
  -1  -1  14   38.47    3.57
   1   1  14   24.97    3.61
  -1   1  14   12.23    3.40
   1  -1  15   70.69    7.10
  -1  -1  15   55.28    5.71
   1   1  15   62.38    6.50
  -1   1  15   70.24    6.96
   1  -1  16   37.27    4.33
  -1  -1  16   12.76    2.28
   1   1  16   10.85    3.29
  -1   1  16   25.12    3.02
   1  -1  17  363.70   13.62
  -1  -1  17  475.05   16.60
   1   1  17  491.20   17.66
  -1   1  17  378.26   14.09
  -1  -1 -17  392.34   15.25
   1  -1  18   18.93    3.82
  -1  -1  18   35.03    5.00
   1   1  18   29.97    4.60
  -1   1  18   25.68    4.66
  -1  -1 -18   34.47    7.34
   1  -1  19  367.27   23.29
  -1  -1  19  373.95   23.37
   1   1  19  381.32   24.34
  -1   1  19  409.25   25.58
  -1  -1 -19  417.10   26.70
   1  -1  20  467.72   26.54
  -1  -1  20  471.41   26.26
   1   1  20  503.12   28.41
  -1   1  20  445.51   25.05
  -1  -1 -20  526.13   30.19
  -1  -1  21   14.88    3.67
   1   1  21    1.96    3.53
  -1   1  21    6.84    3.06
  -1  -1 -21    4.07    4.73
   1  -1  22  220.99   19.29
  -1  -1  22  224.76   19.13
   1   1  22  217.08   19.25
  -1   1  22  224.31   19.32
  -1  -1 -22  241.79   22.22
   1  -1  23  117.37    9.33
  -1  -1  23  118.32    8.98
  -1   1  23  109.11    8.78
  -1  -1 -23  128.45   10.88
   1  -1  24   21.99    7.07
   1   1  24   14.15    5.80
  -1   1  24    9.33    4.02
  -1  -1 -24   33.75    8.88
   1  -1  25   31.46    6.02
   1   1  25   70.30   10.66
  -1   1  25   36.69    6.45
  -1  -1 -25   52.01    8.82
  -1   1 -25   71.17   11.29
  -1   2   0 2360.42   20.91
   1   2   0 2318.41   20.07
  -1  -2   0 2365.39   20.45
  -1  -2   0 2201.98   19.78
   1   2   0 2167.21   19.49
   1  -2   0 2309.59   19.62
  -1   2  -1  681.91    7.26
  -1   2  -1  681.52    6.13
  -1   2  -2 4257.68   36.79
   1   2   2 4262.51   36.63
   1   2  -2 3899.29   32.52
   1  -2  -2 4212.30   36.18
   1  -2   2 3918.67   32.76
  -1   2  -2 4222.62   35.28
  -1  -2  -2 3931.44   34.11
   1  -2   3 1996.24   18.44
   1   2  -3 2033.20   17.12
  -1   2  -3 2161.60   19.86
   1   2   3 2254.57   20.58
   1   2  -3 2050.13   17.18
   1  -2  -3 2121.00   19.24
   1   2  -3 2041.80   18.69
  -1  -2  -3 2077.54   19.11
  -1   2  -4  454.23    6.03
   1   2   4  449.78    6.19
   1  -2  -4  433.27    5.53
  -1  -2   4  454.29    5.71
  -1  -2  -4  403.12    5.63
   1   2   4  453.44    5.89
  -1  -2   5 2177.05   18.68
   1  -2   5 2173.75   21.15
   1   2  -5 2145.17   18.38
   1  -2  -5 2167.08   20.04
   1   2  -5 2173.12   20.13
  -1  -2  -5 2113.20   19.78
   1  -2   6   20.98    3.84
  -1  -2   6   10.72    1.47
  -1   2  -6    9.14    1.55
   1   2  -6   27.78    2.05
  -1  -2  -6   23.10    2.06
  -1   2   6   32.30    2.20
   1   2  -6   26.26    3.23
  -1  -2  -6   28.50    2.05
   1  -2   7  171.45    4.20
   1   2   7  113.33    4.75
  -1  -2  -7  162.26    3.98
  -1  -2  -7  162.49    4.17
   1  -2   8 2308.24   26.88
  -1  -2   8 2192.91   24.15
  -1   2  -8 2034.20   23.67
   1   2  -8 2146.46   23.42
  -1   2   8 2288.45   26.46
   1  -2  -8 2020.19   23.19
  -1  -2  -8 2114.78   24.59
  -1  -2  -9  138.17    4.28
   1  -2  10 1185.66   29.99
  -1  -2  10 1334.76   32.83
   1   2  10 1338.88   33.72
   1   2 -10 1208.97   29.70
  -1   2  10 1219.58   30.69
   1  -2  11  823.68   21.73
  -1  -2  11  865.41   21.72
   1   2  11  913.86   23.84
  -1   2  11  780.72   20.39
   1   2 -11  760.07   19.15
  -1  -2 -11  789.18   20.89
   1  -2  12  302.36    9.50
  -1  -2  12  333.64    8.23
   1   2  12  329.44    9.38
  -1   2  12  261.46    7.70
   1   2 -12  259.55    6.62
  -1  -2 -12  285.04    8.58
   1  -2  13  579.79   23.55
  -1  -2  13  602.02   23.87
   1   2  13  612.42   25.07
  -1   2  13  547.24   22.23
   1   2 -13  486.16   19.29
  -1  -2 -13  589.89   24.03
   1  -2  14   41.45    4.77
  -1  -2  14   70.40    6.53
   1   2  14   74.02    7.56
  -1   2  14   43.81    4.86
  -1  -2 -14   27.38    4.50
   1  -2  15  498.49   17.38
  -1  -2  15  566.26   18.70
   1   2  15  574.51   19.87
  -1   2  15  527.02   18.14
  -1  -2 -15  528.33   18.68
   1  -2  16   26.99    4.77
  -1  -2  16    2.41    2.27
   1   2  16   11.88    3.66
  -1   2  16   30.82    4.99
  -1  -2 -16   23.72    4.16
   1  -2  17  366.14   13.34
  -1  -2  17  315.43   11.10
   1   2  17  312.38   12.15
  -1   2  17  360.65   13.42
  -1  -2 -17  401.93   15.02
   1  -2  18  124.31    7.74
  -1  -2  18   85.89   10.81
   1   2  18   85.51   11.15
  -1   2  18  136.16    8.15
  -1  -2 -18  134.78    9.55
   1  -2  19  221.60   15.02
  -1  -2  19  172.42   11.35
   1   2  19  189.14   13.22
  -1   2  19  217.30   14.96
  -1  -2 -19  226.39   16.82
   1  -2  20  448.69   25.40
  -1  -2  20  472.01   26.25
   1   2  20  432.88   24.95
  -1  -2 -20  471.29   27.04
   1  -2  21   74.35    5.73
  -1  -2  21   53.95    8.35
   1   2  21   68.42    6.30
  -1   2  21   73.53    5.79
  -1  -2 -21   89.43    7.20
   1  -2  22  277.24   20.07
  -1  -2  22  282.30   20.09
   1   2  22  318.13   40.07
  -1   2  22  283.84   20.66
  -1  -2 -22  336.02   42.41
   1   2  23    5.94    5.54
  -1   2  23   38.54    6.90
  -1  -2 -23   36.80    7.54
   1  -2  24   20.88    6.89
   1   2  24   37.90    5.80
  -1   2  24   10.70    4.97
  -1  -2 -24   23.73    7.60
   1  -2 -24   33.19    9.95
  -1  -3   0 2039.27   18.19
  -1  -3   0 2081.13   19.33
   1   3   0 2101.56   19.53
   1  -3   0 2140.93   18.80
  -1   3   0 2065.54   18.08
  -1   3  -2 1734.19   16.36
   1   3   2 1929.44   18.06
   1   3  -2 1917.24   16.82
  -1   3   2 1773.38   17.07
  -1  -3   2 1867.61   16.33
   1  -3   2 1897.29   16.65
   1   3  -2 1930.50   18.18
  -1   3  -2 1838.95   16.22
   1   3   2 1895.31   17.85
   1  -3  -2 1926.25   17.45
  -1   3   2 1905.22   17.30
   1   3  -3 1444.94   12.76
   1   3   3 1611.74   15.71
   1  -3  -3 1522.75   14.68
   1  -3   3 1528.28   13.69
  -1   3  -3 1562.25   14.05
   1   3   3 1576.34   15.42
   1  -3  -3 1601.03   15.10
   1   3   4 1548.63   15.49
   1  -3  -4 1509.22   14.85
  -1  -3   4 1635.23   15.98
   1  -3  -4 1507.24   14.63
   1  -3   5 2460.71   23.00
  -1   3  -5 2455.26   22.96
   1   3   5 2542.52   23.84
   1  -3  -5 2503.68   23.06
  -1   3  -5 2598.19   22.96
   1   3  -5 2455.94   22.82
  -1  -3  -5 2549.59   23.89
   1  -3  -5 2646.02   24.41
  -1  -3   6  398.57    5.03
   1  -3   6  381.83    6.28
  -1   3  -6  347.65    6.04
   1   3  -6  420.65    5.39
   1   3   6  374.93    6.70
  -1   3   6  395.79    6.86
   1  -3  -6  356.87    6.05
  -1   3  -6  363.87    5.31
   1   3  -6  406.94    6.37
  -1  -3  -6  383.99    6.64
  -1  -3   7 1437.33   15.98
   1  -3   7 1362.02   16.96
  -1   3  -7 1266.24   15.64
   1   3  -7 1279.30   14.35
  -1   3  -7 1345.53   16.05
  -1  -3  -7 1306.04   16.29
  -1  -3   8  860.92   10.27
   1  -3   8  819.59   11.47
  -1   3  -8  821.95   11.31
   1   3  -8  784.56    9.45
  -1   3   8  805.56   11.58
  -1   3  -8  855.12   10.63
  -1  -3  -8  756.07   14.57
   1  -3   9   11.39    2.43
  -1  -3   9    4.61    1.11
   1   3  -9   10.25    1.32
   1   3   9    6.50    2.41
  -1   3   9   12.74    2.65
  -1   3  -9    1.40    0.78
  -1  -3  -9    4.26    2.73
   1  -3  10  206.74   14.22
  -1  -3  10  203.67   13.59
   1   3 -10  200.49   13.37
  -1   3  10  193.52   13.51
  -1  -3 -10  197.96   13.81
   1  -3  11  288.16    8.09
  -1  -3  11  248.52    6.43
   1   3  11  247.34    8.05
   1   3 -11  278.66    6.80
  -1   3  11  276.52    8.06
  -1  -3 -11  290.57    8.62
   1  -3  12  486.74   12.54
  -1  -3  12  442.12   10.55
   1   3  12  409.00   11.30
   1   3 -12  471.32   10.75
  -1   3  12  502.61   12.99
  -1  -3 -12  482.78   12.49
   1  -3  13  127.12   15.98
  -1  -3  13  100.51    8.62
   1   3  13   89.72    6.12
  -1   3  13  106.08    5.99
   1   3 -13  103.37    5.03
  -1  -3 -13  115.84    8.72
   1  -3  14   61.49    8.84
  -1  -3  14   46.51    7.58
   1   3  14   46.37    5.71
  -1   3  14   41.92    5.06
  -1  -3 -14   50.73    6.03
   1  -3  15  145.94   19.80
  -1  -3  15   89.36    5.00
   1   3  15   96.30    6.07
  -1   3  15  135.78    6.64
  -1  -3 -15  162.73    9.27
   1  -3  16   69.84   12.90
  -1  -3  16   75.05    9.91
   1   3  16  108.53   14.75
  -1   3  16   99.71   13.56
  -1  -3 -16   84.04   12.08
   1  -3  17  409.93   14.50
  -1  -3  17  321.12   13.15
   1   3  17  315.33   12.45
  -1   3  17  398.07   14.33
  -1  -3 -17  398.24   14.70
   1  -3  18  193.70   10.70
  -1  -3  18  234.99   13.91
   1   3  18  279.84   14.63
  -1   3  18  210.19   11.59
  -1  -3 -18  190.65   11.13
   1  -3  19  363.88   20.70
  -1  -3  19  345.15   20.53
   1   3  19  413.46   23.93
  -1   3  19  365.17   21.16
  -1  -3 -19  392.06   22.92
   1  -3 -19  445.32   25.91
   1  -3  20  272.46   16.84
  -1  -3  20  241.21   15.57
   1   3  20  268.25   17.37
  -1   3  20  292.61   18.46
  -1  -3 -20  311.12   29.46
   1  -3 -20  342.71   21.78
   1  -3  21  156.34   19.13
   1   3  21  205.22   11.92
  -1   3  21  161.77    9.45
  -1  -3 -21  183.50   10.58
   1  -3 -21  192.93   12.00
   1  -3  22  105.82   17.17
   1   3  22  137.86   11.65
  -1   3  22  149.34   12.13
  -1  -3 -22  148.24   12.30
   1  -3 -22  149.40   14.18
   1  -3  23   34.38   10.61
   1   3  23   62.11    7.48
  -1   3  23   44.85    6.89
  -1  -3 -23   52.45    7.44
   1  -3 -23   69.30    9.49
   1  -3  24   20.17    6.40
   1   3  24    6.00    3.81
  -1   3  24   11.76    5.51
  -1  -3 -24   20.86    8.13
   1  -3 -24   11.67    5.85
   1   4   0  406.61    5.54
  -1  -4   0  394.09    5.06
  -1   4   0  435.17    6.55
  -1  -4   0  415.68    6.03
   1  -4   0  410.57    5.05
   1   4   0  408.63    5.88
  -1   4   0  413.80    5.01
  -1   4  -1   86.50    8.66
   1   4   1  107.60    3.19
  -1  -4  -2 1832.83   17.41
  -1   4   2 1824.00   16.93
   1   4   3 1227.12   13.10
  -1  -4  -3 1266.80   12.98
  -1   4   3 1243.58   13.38
   1   4  -3 1301.13   12.18
  -1   4  -3 1201.01   11.58
   1   4   3 1181.23   12.58
   1  -4  -3 1144.41   11.69
  -1   4   3 1262.58   12.67
   1  -4   4 1043.66   13.16
   1   4  -4  935.82   10.78
  -1   4  -4  938.76   11.95
   1   4   4  957.00   12.71
   1   4  -4  939.30   10.88
   1  -4   4 1005.40   11.77
  -1   4  -4  952.23   11.35
  -1  -4  -4  958.03   12.70
   1  -4  -4  917.29   11.70
   1   4  -5  291.89    4.19
   1   4   5  282.75    6.09
  -1   4   5  315.95    6.42
   1   4  -5  291.71    5.30
   1  -4   6  428.40    7.01
  -1   4  -6  453.59    7.14
  -1  -4   6  464.00    7.52
  -1   4  -6  462.88    7.81
   1  -4  -6  489.27    7.87
   1   4  -7 1320.86   15.00
   1   4   7 1341.43   17.36
  -1  -4   7 1405.50   17.56
  -1   4  -7 1256.61   14.89
   1  -4  -7 1270.30   16.07
  -1  -4   8  280.53   18.56
   1  -4   8  217.00   16.02
   1   4  -8  212.03   14.05
   1   4   8  217.50   15.33
  -1   4   8  222.73   15.30
  -1   4  -8  260.50   17.33
  -1  -4  -8  200.21   13.83
   1  -4  -8  270.80   18.35
  -1  -4   9  611.49   15.28
   1  -4   9  598.77   15.92
   1   4  -9  584.64   14.73
   1   4   9  659.49   17.89
  -1   4   9  583.63   16.00
  -1  -4  -9  588.28   16.02
   1  -4  -9  635.52   17.19
  -1  -4  10  951.65   20.51
   1  -4  10 1048.20   23.28
   1   4 -10  985.90   20.99
   1   4  10  946.73   21.94
  -1   4  10 1042.18   23.55
  -1  -4 -10 1000.97   22.65
   1  -4 -10  934.45   21.55
  -1  -4  11  230.44    6.11
   1  -4  11  239.48    8.01
   1   4 -11  234.11    5.86
  -1   4  11  246.01    7.89
  -1  -4 -11  250.74    7.94
   1  -4 -11  243.24    9.16
  -1  -4  12  734.39   28.62
   1  -4  12  825.95   33.63
   1   4  12  751.14   30.25
   1   4 -12  719.45   28.05
  -1   4  12  737.60   29.67
  -1  -4 -12  726.55   30.76
   1  -4 -12  813.75   32.61
  -1  -4  13  233.78   19.76
   1  -4  13  164.95   16.98
   1   4  13  213.54   18.81
   1   4 -13  141.93   12.15
  -1   4  13  172.49   15.40
  -1  -4 -13  154.01   13.90
   1  -4  14  372.20   15.23
  -1  -4  14  364.09   13.41
   1   4  14  367.67   13.79
   1   4 -14  294.92   10.04
  -1   4  14  330.81   12.47
  -1  -4 -14  326.49   13.03
   1  -4  15  110.74   21.86
  -1  -4  15  170.43    6.58
   1   4  15  189.73   10.30
  -1   4  15  115.45   15.40
  -1  -4 -15  109.21   15.14
  -1  -4  16   34.15    6.00
   1  -4  16   28.13    5.33
   1   4  16   39.97    5.94
  -1   4  16   16.01    3.56
  -1  -4 -16   15.46    4.16
   1  -4 -16   27.45    4.68
  -1  -4  17  305.38   15.53
   1  -4  17  311.48   16.69
   1   4  17  338.57   17.97
  -1   4  17  321.05   16.42
  -1  -4 -17  322.29   16.88
   1  -4 -17  366.43   18.87
   1  -4  18  376.98   24.14
  -1  -4  18  304.03   18.86
   1   4  18  333.23   21.49
  -1   4  18  404.54   25.77
  -1  -4 -18  374.26   24.06
   1  -4 -18  394.45   25.75
  -1  -4  19  134.48   13.27
   1  -4  19  169.99   22.63
   1   4  19  146.29   10.19
  -1   4  19  167.71   10.84
  -1  -4 -19  178.95   12.15
   1  -4 -19  175.48   12.05
   1  -4  20   92.05   14.49
   1   4  20  102.94    8.53
  -1   4  20  113.89    7.87
  -1  -4 -20   96.51    7.95
   1  -4 -20  120.36    8.63
   1  -4  21  134.83   19.00
   1   4  21  150.46   14.08
  -1   4  21  176.04   15.82
  -1  -4 -21  163.59   15.17
   1  -4 -21  127.70   12.32
   1  -4  22   70.05   12.25
   1   4  22  115.08    9.95
  -1   4  22   81.82    8.74
  -1  -4 -22   93.01    8.77
   1  -4 -22  106.17    9.76
   1  -4  23   33.94   10.12
   1   4  23   67.54    8.59
  -1   4  23   63.16    7.65
  -1  -4 -23   54.86    7.70
   1  -4 -23   55.83    8.17
   1   4  24   25.70    7.29
  -1   4  24   15.65    4.71
  -1  -4 -24   19.61    5.89
   1  -4 -24   33.18    6.98
   1   5   0   23.52    2.69
  -1  -5   0   18.29    2.02
  -1   5   0   21.20    3.15
   1  -5   0   27.08    1.87
  -1   5   0   20.33    1.38
   1   5   1   80.55    3.10
   1   5  -1   84.70    2.77
  -1  -5  -1   74.10    2.55
  -1   5   1   89.84    4.85
  -1  -5   1   96.32    2.60
  -1   5  -1   87.84    3.98
  -1  -5   1   99.91    4.39
   1  -5   1   83.75    2.45
   1  -5  -1   98.26    3.12
  -1   5  -1   99.49    7.18
  -1   5   1   78.52    2.60
  -1   5  -2   90.23    8.26
   1   5   2  115.58    3.82
   1   5  -2   95.31    2.93
  -1  -5  -2   94.13    2.94
  -1   5   2  104.36    3.75
  -1  -5   2  106.95    4.22
   1  -5   2   98.07    5.15
  -1  -5  -2  107.46    3.73
  -1   5  -2  116.40    2.88
   1  -5  -2  107.90    3.10
  -1   5   2   85.11    2.52
  -1   5   3 1942.20   23.12
   1   5  -3 1934.61   21.64
   1  -5   3 1922.84   21.67
  -1  -5   3 1918.41   24.33
  -1   5  -3 1868.37   21.08
  -1  -5  -3 1899.06   22.71
   1  -5  -3 1883.65   21.76
  -1   5   3 1829.02   21.00
   1   5  -4 1134.31   13.64
  -1   5  -4 1149.39   14.34
  -1   5   4 1134.53   15.20
   1   5  -4 1186.45   13.88
   1  -5   4 1176.25   13.89
  -1   5  -4 1217.87   14.41
   1  -5  -4 1285.35   15.79
   1   5   5  607.74    9.75
  -1   5   5  595.52    9.85
   1   5  -5  608.30    7.88
   1  -5   5  618.60    8.27
  -1  -5   5  641.86    9.60
  -1   5  -5  607.24    8.17
   1  -5  -5  651.21    9.63
   1  -5   6 2280.19   55.72
   1   5  -6 2099.84   50.87
   1   5   6 2255.62   55.51
  -1   5   6 2159.86   53.22
   1   5  -6 2172.29   52.49
   1  -5   6 2236.07   54.27
  -1  -5   6 2288.02   56.22
  -1   5  -6 2168.98   52.72
  -1  -5  -6 2117.22   52.11
   1  -5  -6 2301.15   56.30
   1  -5   7  591.72   15.62
   1   5  -7  519.32   13.21
   1   5   7  703.00   18.85
  -1   5   7  557.59   15.57
  -1  -5   7  652.50   17.68
  -1   5  -7  648.49   17.44
  -1  -5  -7  587.35   16.00
   1  -5  -7  645.66   17.14
   1  -5   8 1040.61   26.54
   1   5  -8  955.96   23.70
   1   5   8 1140.32   29.33
  -1  -5   8 1045.18   26.47
  -1   5  -8 1093.60   27.24
  -1  -5  -8 1032.25   26.67
   1  -5  -8 1082.96   27.65
   1  -5   9  481.01   12.99
   1   5  -9  476.66   10.76
   1   5   9  499.06   12.75
  -1   5   9  517.72   13.44
  -1  -5  -9  501.46   12.90
   1  -5  -9  471.66   11.97
  -1  -5  10  193.38    5.20
   1  -5  10  224.50    6.60
   1   5 -10  234.38    5.95
   1   5  10  189.36    7.12
  -1   5  10  241.73    8.69
  -1  -5 -10  214.91    7.17
   1  -5 -10  176.08    6.70
  -1  -5  11   94.23    8.33
   1  -5  11  110.19   11.80
   1   5 -11  101.36    4.73
   1   5  11   89.20    5.85
  -1   5  11  113.33    6.83
  -1  -5 -11   90.54    5.64
   1  -5 -11  115.90   12.18
  -1  -5  12  203.63   17.22
   1  -5  12  173.77   15.09
   1   5 -12  172.32   14.63
   1   5  12  194.85   17.15
  -1   5  12  179.83   16.11
  -1  -5 -12  188.68   16.59
   1  -5 -12  198.75   17.53
  -1  -5  13   43.68    5.98
   1  -5  13   95.88   11.07
   1   5 -13   67.92    3.24
  -1   5  13   95.05    5.88
  -1  -5 -13   83.73    5.80
   1  -5 -13   39.64    3.67
  -1  -5  14   22.99    5.10
   1  -5  14   50.47    9.06
   1   5  14   36.58    6.87
  -1   5  14   47.61    8.03
  -1  -5 -14   51.49    8.60
   1  -5 -14   20.52    4.53
  -1  -5  15  144.63    5.51
   1  -5  15  193.22    7.72
   1   5  15  159.76    7.94
  -1   5  15  206.74    9.26
  -1  -5 -15  198.21   17.59
   1  -5 -15  176.23    9.15
  -1  -5  16  204.06   10.00
   1  -5  16  184.23   19.42
   1   5  16  238.22   13.17
  -1   5  16  209.39   11.71
  -1  -5 -16  192.03   11.14
   1  -5 -16  216.86   12.29
  -1  -5  17  142.03    9.18
   1  -5  17  196.24   12.86
   1   5  17  152.45   12.67
  -1   5  17  215.90   14.88
  -1  -5 -17  212.47   14.79
   1  -5  18  192.18   22.16
   1   5  18  215.62   13.96
  -1   5  18  239.38   14.91
  -1  -5 -18  231.70   14.83
   1  -5  19  154.77   10.09
   1   5  19  179.45   12.95
  -1   5  19  163.67   11.72
  -1  -5 -19  166.68   12.04
   1  -5 -19  187.54   13.11
   1  -5  20  111.77   19.55
   1   5  20  132.84   12.90
  -1   5  20  153.66   14.02
  -1  -5 -20  148.03   13.87
   1  -5 -20  142.49   14.10
   1  -5  21  146.66   21.08
   1   5  21  242.28   18.43
  -1   5  21  199.57   16.08
  -1  -5 -21  225.72   17.61
   1  -5 -21  223.25   17.33
   1   5  22   46.42    6.82
  -1   5  22   56.41    6.95
  -1  -5 -22   58.63    7.20
   1  -5 -22   66.99   12.19
   1   5  23   61.38    7.66
  -1   5  23   54.57    7.13
  -1  -5 -23   59.51    8.47
   1  -5 -23   70.76    9.80
   1   6   0   28.42    2.30
  -1  -6   0   27.40    2.17
  -1  -6   0   28.24    2.54
   1  -6   0   25.24    2.23
  -1   6   0   30.67    1.84
   1   6   1   80.35    3.41
   1   6  -1  111.97    3.68
  -1   6   1  121.07    5.17
  -1   6  -1   81.13    7.30
  -1  -6   1   72.10    3.10
   1  -6   1  116.43    8.07
  -1  -6  -1  108.68    3.66
   1  -6  -1   75.03    5.56
  -1   6  -1   72.93    5.25
   1   6   2  181.00   12.57
   1   6  -2  177.30   12.32
  -1   6  -2  216.96   14.96
  -1  -6   2  193.35   13.30
   1  -6   2  169.83   11.50
  -1  -6  -2  162.11   11.34
   1  -6  -2  205.61   13.90
  -1   6  -2  209.87   14.13
  -1   6   2  166.34   11.30
   1   6   3 1036.69   26.43
  -1   6   3 1098.01   28.29
   1   6  -3 1103.20   27.41
  -1   6  -3 1122.83   28.41
   1  -6   3 1086.59   27.08
  -1  -6   3  972.93   24.81
  -1  -6  -3 1091.87   27.78
  -1   6  -3 1060.82   26.38
   1  -6  -3 1073.80   26.95
   1   6  -4  245.67   16.30
   1   6   4  282.59    8.28
  -1   6   4  241.41   16.71
   1   6  -4  272.13   18.24
   1  -6   4  257.03   17.51
  -1  -6   4  258.76   17.60
  -1   6  -4  258.73   17.24
  -1  -6  -4  260.41   17.74
   1  -6  -4  264.47   17.86
   1   6  -5  379.40    9.98
   1   6   5  427.83   12.83
  -1   6   5  407.70   12.20
   1   6  -5  414.24   10.95
   1  -6   5  419.62   12.31
  -1  -6   5  423.74   12.20
  -1   6  -5  425.61   11.30
  -1  -6  -5  431.42   12.33
   1  -6  -5  393.90   11.02
   1   6  -6  965.17   23.93
   1   6   6 1002.11   25.96
  -1   6   6 1030.44   26.84
   1   6  -6 1069.45   26.42
   1  -6   6 1056.92   26.53
  -1  -6   6 1009.53   25.86
  -1   6  -6  864.04   21.70
  -1  -6  -6 1016.32   26.76
   1  -6  -6 1006.47   25.72
   1   6  -7  209.41    5.45
   1   6   7  242.34    7.95
  -1   6   7  206.95    7.61
   1   6  -7  211.78    5.56
   1  -6   7  227.03    6.19
  -1  -6   7  258.61    7.63
  -1   6  -7  224.87    5.94
   1  -6  -7  246.21    7.27
   1  -6   8  228.80    8.32
   1   6  -8  195.29    5.20
   1   6   8  152.07    6.62
  -1   6   8  204.25    7.40
   1   6  -8  217.39    5.76
  -1  -6   8  170.23    8.33
   1  -6  -8  165.84    5.91
   1  -6   9 1253.58   48.81
   1   6  -9 1104.95   42.72
   1   6   9 1015.67   40.26
  -1  -6   9 1070.43   41.95
  -1  -6  -9 1213.70   47.64
   1  -6  -9 1038.47   40.83
   1  -6  10  109.39   10.12
   1   6 -10   96.36    4.58
   1   6  10  151.84    7.88
  -1   6  10  115.48    6.66
  -1  -6 -10   97.65    6.09
   1  -6  11  309.17   17.50
   1   6 -11  285.19   10.06
   1   6  11  190.00   16.83
  -1   6  11  318.21   12.59
  -1  -6 -11  332.57   12.92
   1  -6 -11  256.27   10.34
   1  -6  12  529.22   17.82
   1   6 -12  463.83   15.11
   1   6  12  601.87   21.08
  -1   6  12  503.27   17.90
  -1  -6 -12  516.18   17.98
   1  -6 -12  568.14   19.66
  -1  -6  13   59.12   11.06
   1  -6  13   47.87    9.62
   1   6 -13   45.00    6.05
   1   6  13   62.39    9.01
  -1   6  13   46.18    7.61
  -1  -6 -13   68.76   11.17
   1  -6 -13   68.23    9.98
  -1  -6  14   25.95    4.72
   1  -6  14    5.92    1.59
  -1   6  14   17.88    5.29
  -1  -6 -14   14.19    5.67
   1  -6 -14   19.74    3.45
  -1  -6  15  157.50    7.91
   1  -6  15   88.63   15.03
   1   6  15  147.52    9.03
  -1   6  15  109.93   13.95
  -1  -6 -15   88.27   11.61
   1  -6 -15  161.43    9.72
  -1  -6  16   15.38    3.08
   1  -6  16   35.96    7.62
   1   6  16   22.04    4.53
  -1   6  16   34.73    6.13
  -1  -6 -16   45.44    7.53
   1  -6 -16   26.75    5.63
   1  -6  17  144.76    9.13
   1   6  17  176.93   12.05
  -1   6  17  145.29    9.93
  -1  -6 -17  145.48   10.07
   1  -6 -17  213.23   13.54
   1  -6  18  354.19   20.98
   1   6  18  320.69   20.40
  -1   6  18  379.73   23.18
  -1  -6 -18  377.71   23.05
   1  -6 -18  302.15   19.18
   1  -6  19   73.61   10.92
   1   6  19  104.42    7.78
  -1   6  19  118.53    8.14
  -1  -6 -19   97.07    7.51
   1  -6 -19  116.21    8.80
   1  -6  20   89.25   12.51
  -1   6  20  125.74   10.68
  -1  -6 -20  118.58   10.82
   1  -6 -20  127.90   12.03
   1   6  21  147.35   11.24
  -1   6  21  156.51   11.85
  -1  -6 -21  177.79   13.67
   1  -6 -21  167.96   12.82
   1   6  22   92.39   13.16
  -1   6  22   84.75   10.44
  -1  -6 -22   82.21    9.38
   1   7   0  262.23   17.83
  -1   7   0  261.29   18.01
  -1  -7   0  234.63   16.01
   1  -7   0  246.93   16.60
   1   7   1  282.34    8.09
   1   7  -1  253.61   17.25
  -1   7   1  263.52   18.27
  -1   7  -1  268.16   18.69
  -1  -7   1  256.23   17.38
   1  -7   1  261.95   17.59
  -1  -7  -1  238.26   16.28
   1  -7  -1  284.46    7.52
   1   7   2   41.28    5.29
   1   7  -2   12.39    2.30
  -1   7   2   10.90    2.24
  -1   7  -2   49.69    6.13
  -1  -7   2   28.75    4.33
   1  -7   2   14.17    2.91
  -1  -7  -2   11.42    2.36
   1  -7  -2   41.63    5.81
  -1   7  -2   32.53    3.71
   1   7   3  390.92   10.56
   1   7  -3  391.80    9.75
  -1   7   3  385.30   10.62
  -1   7  -3  371.74   10.05
  -1  -7   3  373.36    9.93
   1  -7   3  397.19   10.35
  -1  -7  -3  389.70   10.28
  -1   7  -3  359.75    8.81
   1  -7  -3  339.20    8.85
   1   7  -4  431.46   10.05
   1   7   4  479.20   12.38
  -1   7   4  496.45   12.94
   1   7  -4  503.61   11.86
  -1   7  -4  464.14   11.88
   1  -7   4  484.25   11.99
  -1  -7   4  484.83   12.17
  -1  -7  -4  486.75   12.44
   1  -7  -4  465.42   11.61
   1   7  -5   32.83    3.73
   1   7   5   32.41    3.89
  -1   7   5   60.36    4.37
   1   7  -5   46.12    3.24
   1  -7   5   48.56    6.85
  -1  -7   5   37.15    6.93
  -1  -7  -5   48.57    3.76
   1  -7  -5   55.21    7.11
   1   7  -6  768.04   29.87
   1   7   6  922.42   36.65
  -1   7   6  909.76   36.24
   1   7  -6  952.49   37.00
  -1  -7   6  921.71   36.29
  -1  -7  -6  951.35   37.62
   1  -7  -6  940.95   37.09
   1   7  -7  101.83    4.75
   1   7   7  172.75    8.81
  -1   7   7  103.72    6.21
   1   7  -7  113.38    5.72
   1  -7   7  130.29   11.67
  -1  -7   7  171.48    8.16
  -1  -7  -7  115.23    6.45
   1  -7  -7  165.81    8.11
   1   7  -8  346.57   14.02
   1   7   8  412.71   17.70
  -1   7   8  336.72   14.81
   1   7  -8  361.34   15.95
   1  -7   8  339.90   13.94
  -1  -7   8  426.50   17.62
  -1  -7  -8  349.49   15.44
   1  -7  -8  413.14   17.26
   1   7  -9  488.56   16.61
   1   7   9  581.03   21.10
  -1   7   9  630.83   22.36
   1   7  -9  606.86   20.37
  -1  -7   9  598.77   20.85
  -1  -7  -9  618.74   22.09
   1  -7  -9  616.78   21.64
   1   7 -10   89.13    3.97
   1   7  10   62.65    5.81
  -1   7  10   93.55    5.85
   1   7 -10   98.16    4.50
  -1  -7  10   73.54    9.32
  -1  -7 -10   90.19    5.50
   1  -7 -10   52.71    4.57
   1  -7  11  174.50    7.09
   1   7 -11  141.05    5.40
   1   7  11  182.32    9.28
   1  -7 -11  188.17    8.16
   1  -7  12  364.52   13.31
   1   7  12  367.75   14.30
  -1   7  12  371.68   14.22
   1  -7 -12  384.46   14.71
   1  -7  13   75.98   14.25
   1   7  13   49.74    7.34
  -1   7  13   77.13    9.61
  -1  -7 -13   81.90   10.02
   1  -7 -13   59.75    7.89
   1  -7  14   29.27    6.60
   1   7  14   24.38    5.52
  -1   7  14   25.84    5.49
  -1  -7 -14   27.90    5.32
   1  -7 -14   27.69    5.35
   1  -7  15   40.30    7.51
   1   7  15   13.61    4.55
  -1   7  15   49.76    9.09
  -1  -7 -15   44.38    7.35
   1  -7 -15   22.62    7.02
   1  -7  16  141.64   20.07
  -1   7  16  166.23   11.23
  -1  -7 -16  181.46   17.75
   1  -7 -16  201.72   14.21
   1  -7  17    1.64    1.85
   1   7  17    7.50    4.36
  -1   7  17    5.42    4.22
  -1  -7 -17    4.35    3.72
   1  -7 -17   23.56    7.29
   1  -7  18  145.11   16.53
   1   7  18  212.83   12.26
  -1   7  18  162.22   10.11
  -1  -7 -18  151.79    9.72
   1  -7 -18  213.96   12.08
   1  -7  19  117.56   14.61
   1   7  19  164.47   13.40
  -1   7  19  126.17   10.92
  -1  -7 -19  181.08   15.97
   1  -7 -19  146.07   12.59
   1   7  20   71.79    7.65
  -1   7  20   48.21    8.27
  -1  -7 -20   61.82    7.25
   1  -7 -20   54.37    6.66
   1   7  21  243.45   18.95
  -1   7  21  228.54   17.83
  -1  -7 -21  218.56   17.47
   1  -7 -21  258.74   19.95
   1   7  22   21.94    5.21
  -1   7  22   15.38    4.25
  -1  -7 -22   25.02    8.01
   1  -7 -22   23.60    5.96
   1   8   0   12.08    3.88
  -1   8   0    9.04    3.27
  -1  -8   0    4.88    1.61
   1  -8   0    5.61    3.35
   1   8   1  231.51   10.51
   1   8  -1  190.94    8.90
  -1   8   1  200.23    9.72
  -1   8  -1  243.92   11.18
   1  -8   1  170.41    7.66
  -1  -8   1  237.38   10.58
  -1  -8  -1  187.55    8.60
   1  -8  -1  235.67   10.18
   1   8   2   76.20    5.13
   1   8  -2   50.98    4.62
  -1   8   2   55.22    4.97
  -1   8  -2   71.82    5.52
   1  -8   2   61.82    7.28
  -1  -8   2   80.62   10.66
  -1  -8  -2   49.42    3.80
   1  -8  -2   77.00    4.80
   1   8   3  613.71   24.92
   1   8  -3  507.60   20.51
  -1   8   3  528.09   21.84
  -1   8  -3  597.25   24.25
   1  -8   3  536.06   21.50
  -1  -8   3  571.81   23.20
  -1  -8  -3  535.37   21.85
   1  -8  -3  584.64   23.60
   1   8   4  605.60   24.65
  -1   8   4  676.12   27.54
   1   8  -4  645.49   25.69
  -1   8  -4  637.87   25.91
   1  -8   4  632.62   25.23
  -1  -8   4  624.69   25.21
  -1  -8  -4  629.79   25.56
   1  -8  -4  601.61   24.29
   1   8   5   98.78    9.79
  -1   8   5   64.87    7.02
   1   8  -5   78.61    7.44
  -1   8  -5  101.81    9.68
   1  -8   5   72.73    9.41
  -1  -8   5  134.37   17.14
  -1  -8  -5   62.62    8.42
   1  -8  -5   89.54    8.34
   1   8   6  574.49   20.70
  -1   8   6  639.89   23.00
   1   8  -6  691.34   23.39
  -1   8  -6  611.31   21.32
   1  -8   6  699.17   23.64
  -1  -8   6  637.54   22.15
  -1  -8  -6  640.60   22.63
   1  -8  -6  604.57   21.24
   1   8   7  286.44   11.77
  -1   8   7  403.06   15.71
   1   8  -7  392.78   13.80
   1  -8   7  372.76   13.18
  -1  -8   7  296.63   11.60
  -1  -8  -7  378.00   14.58
   1  -8  -7  288.73   11.32
   1   8   8  140.63    7.59
  -1   8   8  207.95    9.32
   1   8  -8  205.82    7.62
   1  -8   8  193.94    7.36
  -1  -8   8  175.31   16.75
  -1  -8  -8  213.98    9.38
   1  -8  -8  166.11    7.50
   1   8   9  677.89   23.45
  -1   8   9  681.27   23.45
   1   8  -9  751.73   24.06
  -1  -8   9  703.24   23.33
  -1  -8  -9  679.79   23.04
   1  -8  -9  681.15   22.99
   1   8  10  280.72   12.15
  -1   8  10  228.53   10.19
   1   8 -10  232.30    8.55
  -1  -8  10  306.81   11.73
  -1  -8 -10  263.63   11.69
   1  -8 -10  279.23   10.97
   1   8  11   97.56   11.65
  -1   8  11   87.94   11.21
   1   8 -11   92.42   10.17
  -1  -8  11   89.90   10.39
  -1  -8 -11  100.70   11.89
   1  -8 -11   90.66   10.67
   1   8  12  190.24    9.13
  -1   8  12  155.50    9.02
   1   8 -12  161.67    6.26
  -1  -8 -12  152.61    7.44
   1  -8 -12  184.66    8.62
   1   8  13   79.55   11.08
  -1   8  13   70.94    9.79
   1   8 -13   59.19    7.29
  -1  -8 -13   57.64    8.00
   1  -8 -13   88.66   11.51
   1   8  14  139.30   10.87
   1  -8 -14  140.53   10.28
   1  -8  15   55.98    9.10
   1   8  15   61.03    7.42
  -1   8  15   61.91    7.98
   1  -8 -15   71.38    7.88
   1  -8  16  108.07   16.57
   1   8  16  156.93    9.94
  -1   8  16  121.23    8.58
  -1  -8 -16  132.13    8.40
   1  -8 -16  168.27    9.80
   1  -8  17    5.22    1.89
   1   8  17   -2.13    3.99
  -1   8  17   14.39    4.75
  -1  -8 -17   10.54    4.29
   1  -8 -17    3.81    3.74
   1   8  18  102.60    9.34
  -1  -8 -18  144.72   13.17
   1  -8 -18  125.47   10.63
   1   8  19   69.28    7.49
  -1   8  19   64.79    7.39
  -1  -8 -19   77.09    8.13
   1  -8 -19   78.14    8.03
   1   8  20    8.01    5.69
  -1   8  20   18.29    7.54
  -1  -8 -20   36.43    9.02
   1  -8 -20   11.10    4.88
   1   8  21  198.98   26.80
  -1   8  21  155.32   21.36
  -1  -8 -21  199.17   27.15
   1  -8 -21  206.99   27.89
   1   9   0   98.89    9.32
  -1   9   0  106.69   10.43
  -1  -9   0  111.46   10.37
   1  -9   0   91.96    8.38
   1   9   1  334.77   12.94
   1   9  -1  289.49   11.64
  -1   9   1  293.05   12.49
  -1   9  -1  319.36   13.38
  -1  -9   1  283.60   10.99
   1  -9   1  299.28   11.13
  -1  -9  -1  293.61   11.72
   1  -9  -1  319.46   11.83
   1   9   2   97.16    9.42
   1   9  -2  120.39   10.97
  -1   9   2  125.61   13.38
  -1   9  -2   88.67    9.08
  -1  -9   2   92.66   13.03
   1  -9   2  118.26   15.07
  -1  -9  -2  127.55   11.60
   1  -9  -2   79.24    7.49
   1   9   3  275.25   11.11
   1   9  -3  289.21   10.65
  -1   9   3  264.67   11.07
  -1   9  -3  288.68   11.30
   1  -9   3  287.50   10.35
  -1  -9   3  267.17   10.24
  -1  -9  -3  264.17   10.34
   1  -9  -3  273.76   10.31
   1   9   4  381.66   14.32
  -1   9   4  417.17   15.67
   1   9  -4  424.69   14.93
  -1   9  -4  402.88   14.52
   1  -9   4  408.54   14.00
  -1  -9   4  372.83   13.55
  -1  -9  -4  410.88   14.74
   1  -9  -4  399.21   14.05
   1   9   5  127.20    7.12
  -1   9   5  180.35    9.49
   1   9  -5  185.91    7.86
  -1   9  -5  135.27    7.42
   1  -9   5  183.22    7.29
  -1  -9   5  162.70    7.28
  -1  -9  -5  170.57    7.75
   1  -9  -5  154.45    7.00
   1   9   6  827.40   28.16
  -1   9   6  804.08   27.47
   1   9  -6  826.15   26.97
  -1   9  -6  868.40   28.93
   1  -9   6  836.62   27.49
  -1  -9   6  844.04   28.10
  -1  -9  -6  806.81   27.26
   1  -9  -6  832.73   27.80
   1   9   7  103.92   14.36
  -1   9   7   47.01    8.12
   1   9  -7   34.17    5.24
  -1   9  -7   84.23   11.50
   1  -9   7   58.89   10.45
  -1  -9   7   99.12   18.82
  -1  -9  -7   60.63    9.13
   1  -9  -7   86.34   11.68
   1   9   8  489.49   17.44
  -1   9   8  355.30   13.66
   1   9  -8  373.26   12.69
  -1   9  -8  502.80   17.01
   1  -9   8  392.97   13.45
  -1  -9   8  449.68   15.33
  -1  -9  -8  367.93   13.60
   1  -9  -8  463.46   16.07
   1   9   9   98.09   11.88
  -1   9   9   81.78   10.43
   1   9  -9   78.29    8.96
  -1   9  -9  105.68   12.37
   1  -9   9   87.98   14.23
  -1  -9   9   97.06   15.14
  -1  -9  -9   66.33    8.80
   1  -9  -9   78.41    9.53
   1   9  10  240.33   13.40
  -1   9  10  179.21   10.81
   1   9 -10  178.40    9.14
  -1  -9  10  212.00   11.22
  -1  -9 -10  201.43   11.60
   1  -9 -10  222.55   11.85
   1   9  11  358.78   18.60
  -1   9  11  349.83   18.93
   1   9 -11  371.18   17.52
  -1  -9  11  336.90   20.47
  -1  -9 -11  380.63   19.19
   1  -9 -11  348.07   17.53
   1   9  12   38.98    6.69
  -1   9  12   50.15    7.78
   1   9 -12   48.07    6.34
  -1  -9 -12   61.07    9.18
   1  -9 -12   37.77    6.00
   1   9  13  124.62   10.65
  -1   9  13  151.33   10.89
  -1  -9 -13  162.82   11.04
   1  -9 -13  162.79   10.87
   1   9  14   42.94    8.63
  -1  -9 -14   55.94   10.83
   1  -9 -14   50.99   10.16
   1   9  15  107.18    8.46
  -1   9  15  104.65    9.90
  -1  -9 -15  120.35    8.74
   1  -9 -15   93.69    7.16
   1   9  16  100.31   10.22
  -1   9  16  154.73   14.54
  -1  -9 -16  132.47   12.76
   1  -9 -16  135.51   14.39
   1   9  17    9.30    4.05
  -1   9  17   13.43    6.57
  -1  -9 -17   15.38    5.40
   1  -9 -17   27.21    6.22
   1   9  18  149.66   14.84
  -1   9  18  116.34   12.13
   1  -9 -18  108.96   11.65
   1   9  19  147.11   13.03
  -1   9  19  124.67   13.03
   1  -9 -19  138.21   12.38
   1  10   0  172.58    8.02
  -1  10   0  190.88   10.74
  -1 -10   0  148.76    6.99
   1 -10   0  192.01    8.06
   1  10   1  195.41    8.61
   1  10  -1  190.32    8.34
  -1  10   1  195.66    9.25
  -1  10  -1  200.03   10.27
  -1 -10   1  203.15    8.78
   1 -10   1  200.91   18.17
  -1 -10  -1  180.90    8.01
   1 -10  -1  195.45    8.10
   1  10   2  225.87   10.63
   1  10  -2  213.80    8.75
  -1  10   2  212.89    9.84
  -1  10  -2  272.83   11.45
  -1 -10   2  232.17    9.57
   1 -10   2  223.62   19.14
  -1 -10  -2  208.10    9.07
   1 -10  -2  256.21   10.33
   1  10   3   71.79    9.82
   1  10  -3   43.52    5.93
  -1  10   3   43.11    6.02
  -1  10  -3   90.12   12.19
   1 -10   3   40.02    8.27
  -1 -10   3   81.09   12.89
  -1 -10  -3   40.65    5.72
   1 -10  -3   74.56    9.47
   1  10   4  457.31   16.40
  -1  10   4  409.11   15.10
   1  10  -4  411.53   13.98
  -1  10  -4  421.15   14.92
   1 -10   4  391.95   14.92
  -1 -10   4  447.61   15.53
  -1 -10  -4  390.20   13.87
   1 -10  -4  442.19   15.13
   1  10   5  139.24    7.60
  -1  10   5  150.80    8.11
   1  10  -5  144.12    7.06
  -1  10  -5  162.24    8.40
   1 -10   5  155.00   14.78
  -1 -10   5  161.26   16.38
  -1 -10  -5  143.88    8.26
   1 -10  -5  122.51   13.78
   1  10   6  463.89   17.54
  -1  10   6  495.89   17.76
   1  10  -6  510.68   16.79
  -1  10  -6  463.62   16.06
   1 -10   6  516.35   17.11
  -1 -10   6  449.92   16.21
  -1 -10  -6  485.57   17.05
   1 -10  -6  459.52   15.82
   1  10   7  136.61    8.74
  -1  10   7  213.22   12.49
   1  10  -7  209.03   10.73
  -1  10  -7  159.08    9.72
   1 -10   7  202.47   10.78
  -1 -10   7  171.66   16.89
  -1 -10  -7  190.15   10.75
   1 -10  -7  154.69    8.98
   1  10   8  102.93   13.11
  -1  10   8  174.31   15.63
   1  10  -8  169.55    9.31
  -1  10  -8  116.45   14.52
   1 -10   8  154.42    8.10
  -1 -10   8  120.86   20.29
  -1 -10  -8  170.23   10.27
   1 -10  -8  112.68   14.00
   1  10   9  445.94   28.16
  -1  10   9  541.04   33.98
   1  10  -9  524.13   31.99
  -1  10  -9  444.61   27.58
   1 -10   9  493.35   30.09
  -1 -10   9  486.54   30.34
  -1 -10  -9  541.51   33.71
   1 -10  -9  457.16   28.53
   1  10  10  100.90   10.61
  -1  10  10   53.03    7.17
   1  10 -10   49.81    5.20
  -1  10 -10  109.82   10.72
  -1 -10  10  105.76   19.10
  -1 -10 -10   53.87    6.54
   1 -10 -10  118.18   18.98
   1  10  11  188.92   13.83
  -1  10  11  203.88   13.28
  -1  10 -11  181.09   11.20
  -1 -10  11  188.05   19.85
  -1 -10 -11  193.66   12.76
   1 -10 -11  199.97   12.56
   1  10  12  108.08    8.67
  -1  10  12   79.49    7.80
  -1  10 -12  113.13    8.59
  -1 -10 -12   65.21   10.52
   1 -10 -12  118.17   10.79
   1  10  13  135.84   10.58
  -1  10  13  123.66    8.64
  -1 -10 -13  109.13    7.66
   1 -10 -13  141.16    8.64
   1  10  14  330.52   28.27
  -1  10  14  319.01   27.19
  -1 -10 -14  306.91   26.05
   1 -10 -14  336.02   28.22
   1  10  15   17.63    6.96
  -1 -10 -15    8.92    3.83
   1 -10 -15   22.81    5.48
   1  10  16  188.96   13.89
  -1  10  16  213.94   15.22
  -1 -10 -16  214.29   15.03
   1 -10 -16  188.32   13.15
   1  10  17   13.28    6.80
  -1  10  17   14.31    6.75
  -1 -10 -17   26.33    7.52
   1 -10 -17   11.88    4.57
   1  10  18   53.56    9.91
  -1  10  18   39.97    7.73
  -1 -10 -18   50.10    8.88
   1 -10 -18   44.42    8.03
   1  11   0  137.29    8.36
  -1  11   0  154.23    9.80
  -1 -11   0  140.09    8.34
   1 -11   0  147.82    8.21
   1  11   1  234.95   13.20
   1  11  -1  278.81   14.46
  -1  11   1  246.88   13.78
  -1  11  -1  232.53   13.35
   1 -11   1  280.37   14.02
  -1 -11   1  224.38   21.21
  -1 -11  -1  260.12   13.60
   1 -11  -1  225.23   11.75
   1  11   2  191.63   11.23
   1  11  -2  169.89    9.61
  -1  11   2  151.88    9.51
  -1  11  -2  186.03   12.09
  -1 -11   2  172.22   21.17
   1 -11   2  146.67   14.79
  -1 -11  -2  134.75    8.24
   1 -11  -2  166.48    9.42
   1  11   3   16.77    3.63
   1  11  -3   21.35    3.93
  -1  11   3   26.69    5.00
  -1  11  -3   17.63    4.18
  -1 -11   3   22.91    4.66
   1 -11   3   32.40    5.45
  -1 -11  -3   34.04    6.03
   1 -11  -3   15.63    3.30
   1  11   4  184.90   13.11
  -1  11   4  164.27   12.37
   1  11  -4  166.91   11.58
  -1  11  -4  181.71   12.99
   1 -11   4  137.26   15.86
  -1 -11   4  178.12   23.30
  -1 -11  -4  130.78    9.56
   1 -11  -4  165.48   11.32
   1  11   5  123.23    9.96
  -1  11   5  111.94    9.41
   1  11  -5  140.15   10.14
  -1  11  -5  124.24   10.17
   1 -11   5  111.77   12.67
  -1 -11   5  133.18   18.74
  -1 -11  -5  159.95   11.33
   1 -11  -5  106.25    8.38
   1  11   6   35.78    6.72
  -1  11   6   28.43    5.87
   1  11  -6   18.21    3.89
  -1  11  -6   42.71    7.03
   1 -11   6   23.27    5.59
  -1 -11   6   35.17    8.12
  -1 -11  -6   19.95    4.49
   1 -11  -6   28.04    4.82
   1  11   7   67.83    7.63
  -1  11   7   71.76    8.93
   1  11  -7   71.95    7.41
  -1  11  -7   71.09    7.26
   1 -11   7   63.04   10.78
  -1 -11   7   76.62   11.66
  -1 -11  -7   78.14    8.42
   1 -11  -7   82.89    8.37
   1  11   8  285.09   17.37
  -1  11   8  264.63   16.53
   1  11  -8  278.69   16.10
  -1  11  -8  306.65   18.10
   1 -11   8  289.33   16.40
  -1 -11   8  293.42   17.07
  -1 -11  -8  270.29   16.16
   1 -11  -8  259.84   15.54
   1  11   9  120.04    9.45
  -1  11   9  106.65    8.81
   1  11  -9  104.24    7.43
  -1  11  -9  111.99    8.69
   1 -11   9   88.60   13.84
  -1 -11   9  106.59   15.41
  -1 -11  -9   93.79    7.60
   1 -11  -9  100.56    7.94
   1  11  10    6.74    3.64
  -1  11  10   15.92    5.84
  -1  11 -10   14.47    4.01
  -1 -11 -10    5.55    3.49
   1 -11 -10   13.13    3.94
   1  11  11  140.14    9.40
  -1  11  11  105.98    8.22
  -1  11 -11  120.97    7.19
  -1 -11  11  113.24   12.82
  -1 -11 -11  106.36    7.76
   1 -11 -11  123.01    8.68
   1  11  12   16.40    5.24
  -1  11 -12   19.48    4.78
  -1 -11  12   21.10    5.08
  -1 -11 -12   35.74    8.53
   1 -11 -12   22.21    6.06
   1  11  13   87.80    8.80
  -1  11  13  101.72   10.01
  -1  11 -13   87.44    7.54
   1 -11 -13  103.47    9.25
   1  11  14   83.10    7.46
  -1  11  14  104.38    9.38
  -1 -11 -14  117.24    9.87
   1 -11 -14   99.94    9.90
   1  11  15   45.86    7.40
  -1  11  15   60.54    8.58
  -1 -11 -15   48.53    7.05
   1 -11 -15   58.24    8.46
   1  11  16  161.55   13.47
  -1  11  16  177.38   15.19
  -1 -11 -16  195.92   15.58
   1 -11 -16  191.62   15.17
   1  12   0   -3.67    3.00
  -1  12   0    7.45    3.68
   1 -12   0   -1.51    2.13
  -1 -12   0    6.95    1.98
   1  12   1  248.70   16.23
   1  12  -1  233.28   14.94
  -1  12   1  263.27   17.20
  -1  12  -1  245.11   15.90
  -1 -12   1  235.96   14.81
   1 -12   1  238.15   14.59
   1 -12  -1  244.62   15.14
  -1 -12  -1  234.80   14.86
   1  12   2  103.25    9.03
   1  12  -2  101.10    8.56
  -1  12   2   93.40    8.03
  -1  12  -2  108.29    8.54
   1 -12   2   86.08   15.11
  -1 -12   2  118.31   14.92
  -1 -12  -2   96.57    7.50
   1 -12  -2  117.44    8.28
   1  12   3    8.67    3.86
   1  12  -3   11.36    5.29
  -1  12   3    0.94    3.64
  -1  12  -3    7.58    3.78
   1 -12   3    6.18    2.77
  -1 -12   3   18.42    4.45
  -1 -12  -3    5.86    4.89
   1 -12  -3   10.14    3.84
   1  12   4   69.41   10.80
  -1  12   4   66.52   11.84
   1  12  -4   64.35   11.91
  -1  12  -4   67.94   11.94
   1 -12   4   44.62    9.44
  -1 -12   4   55.05   12.60
  -1 -12  -4   55.54   10.54
   1 -12  -4   65.42   10.11
   1  12   5   45.51    9.03
  -1  12   5   16.64    5.33
   1  12  -5   11.79    4.59
  -1  12  -5   48.43    9.98
   1 -12   5   14.08    3.04
  -1 -12   5   36.04    9.11
  -1 -12  -5   12.39    4.08
   1 -12  -5   27.46    6.02
   1  12   6   56.26    9.08
  -1  12   6   60.57   10.10
   1  12  -6   68.69    6.27
  -1  12  -6   57.08    8.85
   1 -12   6   44.77   10.07
  -1 -12   6   49.49   11.21
  -1 -12  -6   65.95   13.05
   1 -12  -6   51.88    8.00
   1  12   7  201.84   11.33
  -1  12   7  242.12   19.59
   1  12  -7  243.28   11.91
  -1  12  -7  246.54   13.08
   1 -12   7  227.73   13.09
  -1 -12   7  218.34   24.20
  -1 -12  -7  242.65   13.31
   1 -12  -7  216.95   11.20
   1  12   8  162.82   15.05
  -1  12   8  166.27   15.74
  -1  12  -8  171.17   15.33
   1 -12   8  137.11   17.74
  -1 -12   8  156.65   21.48
  -1 -12  -8  149.72   13.59
   1 -12  -8  154.87   13.82
   1  12   9   44.04    9.24
  -1  12   9   40.15    9.17
  -1  12  -9   45.20    9.46
   1 -12   9   31.86    7.99
  -1 -12   9   45.13   10.27
  -1 -12  -9   61.55    7.34
   1 -12  -9   54.08    6.64
   1  12  10   77.00    7.98
  -1  12  10  121.33   11.25
  -1  12 -10   70.82    6.71
   1 -12  10  100.20    8.01
  -1 -12  10   60.65   16.12
  -1 -12 -10   98.89    9.02
   1 -12 -10   73.13    6.94
   1  12  11   25.19    5.83
  -1  12  11   43.98    7.82
  -1  12 -11   33.12    5.65
  -1 -12  11   40.41    7.33
  -1 -12 -11   40.20    6.53
   1 -12 -11   41.96    7.16
   1  12  12   13.34    6.08
  -1  12  12   18.57    5.85
  -1 -12  12   12.09    4.49
  -1 -12 -12    4.97    3.70
   1 -12 -12   15.53    4.82
   1  12  13   50.93    7.06
  -1  12  13   37.22    6.44
  -1 -12 -13   46.97    6.34
   1 -12 -13   46.53    5.83
   1  12  14  113.83   17.21
  -1  12  14   96.61   14.58
  -1 -12 -14   54.08    8.96
   1 -12 -14   88.47   12.84
   1  13   0   90.23    9.27
  -1  13   0   79.14   10.37
   1 -13   0   66.14   13.47
  -1 -13   0   64.23   13.37
   1  13   1   86.31    9.12
   1  13  -1   96.64   10.65
  -1  13   1   68.66    8.09
  -1  13  -1   60.93    7.26
   1 -13   1   58.55    9.26
  -1 -13   1   63.29   13.20
   1 -13  -1   74.40    8.71
  -1 -13  -1   59.29   11.71
   1  13   2  126.96   12.86
   1  13  -2  125.11   11.79
  -1  13   2  152.42   15.23
  -1  13  -2  121.07   11.67
  -1 -13   2   95.36   13.53
   1 -13   2  109.37   18.11
   1 -13  -2  101.23    9.33
  -1 -13  -2  117.20   18.12
   1  13   3   13.08    5.54
   1  13  -3    5.83    3.27
  -1  13   3    7.45    4.18
  -1  13  -3    3.66    4.99
   1 -13   3   -1.24    1.50
  -1 -13   3    8.45    3.34
  -1 -13  -3    3.15    3.17
   1 -13  -3    2.70    2.57
   1  13   4   36.34    7.15
   1  13  -4   50.94    8.37
  -1  13   4   73.00    9.17
  -1  13  -4   30.41    6.84
   1 -13   4   40.99    9.61
  -1 -13   4   19.53    4.97
  -1 -13  -4   55.53    9.11
   1 -13  -4   21.35    4.32
   1  13   5   73.11    7.72
  -1  13   5   63.73   10.84
   1  13  -5   56.46    9.00
  -1  13  -5   81.98    7.85
   1 -13   5   59.90   11.32
  -1 -13   5   57.89   12.25
  -1 -13  -5   69.54   10.03
   1 -13  -5   80.34    7.30
   1  13   6   40.08    7.53
  -1  13   6   47.27    8.08
  -1  13  -6   50.55    9.08
   1 -13   6   32.74    9.26
  -1 -13   6   49.25    9.24
  -1 -13  -6   38.12    7.20
   1 -13  -6   52.34    8.53
   1  13   7  127.36   10.28
  -1  13  -7  138.74   10.27
  -1 -13   7  107.74   15.11
  -1 -13  -7  169.03   12.37
   1 -13  -7  161.53   11.38
   1  13   8   63.65    7.05
  -1  13   8   58.11    7.64
  -1  13  -8   90.41    8.31
  -1 -13   8   68.58   15.00
  -1 -13  -8   68.08    7.22
   1 -13  -8   76.38    6.82
   1  13   9    8.87    4.21
  -1  13   9   15.99    6.78
  -1  13  -9    8.30    4.21
  -1 -13   9    7.53    2.91
  -1 -13  -9    5.87    3.50
   1 -13  -9   10.57    3.45
   1  13  10   38.64    5.75
  -1  13  10   35.51    9.24
  -1 -13  10   28.72    7.98
  -1 -13 -10   34.52    7.72
   1  13  11   88.66    9.49
  -1  13  11  102.24   11.31
  -1 -13  11   55.06   11.49
  -1 -13 -11   85.54    9.65
   1 -13 -11   72.56    7.76
   1  13  12    9.74    4.72
  -1  13  12    0.43    4.40
  -1 -13  12    5.62    2.62
  -1 -13 -12   13.29    4.41
   1 -13 -12   10.05    4.53
   1  14   0   92.39    9.78
  -1  14   0   90.50    9.72
   1 -14   0   68.20   11.91
  -1 -14   0   78.22   13.86
   1  14   1   17.94    4.85
   1  14  -1   11.73    3.86
  -1  14   1   30.33    8.39
  -1  14  -1   22.37    6.99
   1 -14   1   20.13    5.81
  -1 -14   1   19.26    4.80
  -1 -14  -1   20.85    4.82
   1 -14  -1   21.41    7.27
   1  14   2   79.30    8.68
   1  14  -2   69.24    8.58
  -1  14   2   70.69    8.76
  -1  14  -2   88.98    9.79
  -1 -14   2   68.16   14.51
   1 -14   2   45.27   11.23
   1 -14  -2   93.67    9.24
  -1 -14  -2   52.47    9.72
   1  14   3   22.36    6.86
   1  14  -3   33.76    7.95
  -1  14   3   38.91    9.24
  -1  14  -3   21.40    5.91
  -1 -14   3   22.67    5.73
  -1 -14  -3   24.99    7.28
   1 -14  -3   29.86    6.71
   1  14   4   68.66    8.30
  -1  14   4   53.18    8.20
  -1  14  -4   65.11    8.26
  -1 -14   4   62.22   10.24
   1 -14  -4   59.03    6.61
  -1 -14  -4   66.67    7.71
   1  14   5    5.00    3.80
  -1  14   5   10.04    4.81
  -1  14  -5    9.84    4.92
  -1 -14   5   10.89    3.71
   1 -14  -5    9.73    3.40
  -1 -14  -5   10.11    5.24
  -1  14   6   15.62    6.95
  -1  14  -6   15.80    5.39
  -1 -14   6    8.20    3.21
  -1 -14  -6   14.20    5.39
   1 -14  -6   15.73    5.04
   1  14   7    7.85    3.80
  -1  14  -7   13.94    4.16
  -1 -14   7   14.39    5.41
  -1 -14  -7   19.75    4.62
   1 -14  -7   12.07    4.61
   1  14   8   11.12    4.52
  -1  14   8   20.18    6.43
  -1  14  -8   20.57    5.57
  -1 -14   8    9.39    2.90
  -1 -14  -8   24.20    6.14
   1 -14  -8   15.08    4.57
   2   0   0 3542.36   30.90
   2   0   0 3441.43   29.44
  -2   0   1 4999.55   42.58
   2   0   1 4964.85   42.97
   2   0  -1 5182.10   43.91
   2   0   1 5126.13   43.26
  -2   0   2 1573.79   14.26
   2   0   2 1625.35   15.84
  -2   0   2 1550.25   14.30
   2   0  -2 1609.03   14.73
  -2   0  -2 1626.54   14.64
   2   0   2 1612.25   14.48
  -2   0   3 2834.12   24.45
   2   0   3 2829.01   26.03
  -2   0  -3 2954.15   25.78
   2   0   3 2894.55   25.11
   2   0   4  345.97    5.68
  -2   0   4  327.81    4.14
  -2   0  -4  339.95    4.42
   2   0   4  333.26    4.33
   2   0   5 1841.03   18.34
  -2   0  -5 1692.61   16.95
  -2   0   5 1852.64   16.65
  -2   0  -5 1859.55   17.12
  -2   0  -6  192.11    4.30
  -2   0   6  184.84    3.19
   2   0  -6  186.11    3.04
  -2   0  -6  196.54    6.45
  -2   0   7  386.54    5.67
   2   0  -7  384.94    5.49
  -2   0  -7  335.45    5.51
   2   0   8  670.57   10.46
  -2   0   8  640.34    8.45
   2   0  -8  646.93    8.32
  -2   0  -8  621.03    8.89
   2   0   9  890.37   13.01
  -2   0   9  975.63   12.12
   2   0  -9  967.76   11.90
  -2   0  -9  883.13   11.78
   2   0  10  167.70   12.48
  -2   0  10  168.76   11.49
   2   0 -10  166.14   11.25
  -2   0 -10  152.31   10.70
   2   0  11   14.27    3.20
  -2   0  11    8.99    2.26
   2   0 -11    5.57    1.91
  -2   0 -11    7.80    3.04
   2   0  12  592.03   14.65
  -2   0  12  690.19   15.81
   2   0 -12  580.91   13.19
  -2   0 -12  611.20   14.61
   2   0  13 2096.00  174.09
  -2   0 -13 2047.19   79.06
   2   0  14  261.99   10.97
  -2   0  14  308.16   11.29
  -2   0 -14  270.88   10.79
   2   0  15 2202.99  276.60
  -2   0  15 2755.76  345.75
  -2   0 -15 2734.67  343.25
   2   0  16   32.37    5.67
  -2   0  16   59.39    8.42
  -2   0 -16   38.94    6.54
   2   0  17  527.26   18.31
  -2   0  17  505.22   16.80
  -2   0 -17  517.10   18.16
   2   0  18    9.10    3.55
  -2   0  18   11.08    3.39
  -2   0 -18    6.78    4.16
   2   0  19   25.23    5.20
  -2   0  19   23.47    4.26
  -2   0 -19   20.20    4.47
   2   0  20   53.43   10.65
  -2   0  20   61.13   11.10
  -2   0 -20   65.81   10.70
   2   0  21  188.15   11.62
  -2   0  21  195.30    9.93
  -2   0 -21  221.22   12.01
   2   0  22    7.98    3.36
  -2   0  22    1.95    2.40
  -2   0 -22    0.22    3.67
   2   0  23    3.77    4.12
  -2   0 -23   10.04    4.58
   2   0  24   50.49    6.30
  -2   0 -24   50.43    7.09
   2  -1   0 9999.00  104.87
  -2   1   0 9730.19  102.05
  -2  -1   0 9666.07  101.10
   2  -1  -1  256.28    6.46
   2  -1   1  262.07    5.00
   2   1   1  244.78    4.10
  -2  -1   1  254.64    3.39
   2  -1  -1  272.03    3.23
  -2   1  -1  252.92    3.37
  -2  -1   1  257.66    4.06
  -2  -1  -1  280.02    4.02
   2  -1   1  274.73    2.92
   2   1   1  251.06    3.69
  -2   1   2 4949.74   42.27
   2   1  -2 5029.56   42.28
   2  -1   2 5076.27   44.28
  -2  -1   2 5001.71   42.18
   2   1   2 4979.44   43.19
   2  -1  -2 4906.01   41.49
  -2  -1   2 5031.36   43.76
  -2   1  -2 5036.52   42.00
  -2  -1  -2 5265.55   45.05
   2   1   2 5006.79   42.90
   2  -1   2 5171.61   43.07
  -2  -1   3  694.86    6.56
   2  -1   3  622.55    8.08
   2   1   3  670.15    8.12
  -2  -1  -3  657.18    7.81
  -2   1   3  704.60    7.65
  -2  -1   3  708.54    8.68
  -2   1  -3  652.96    6.23
   2   1   3  632.84    7.09
  -2  -1   4  152.16    4.25
  -2   1  -4  132.97    3.33
   2   1   4  137.19    4.22
  -2  -1   4  134.15    1.96
  -2  -1   4  140.44    3.21
   2   1   4  126.37    2.76
   2  -1   5 1057.38   12.00
  -2   1  -5  982.84   11.16
   2   1   5 1093.30   12.26
  -2  -1   5 1060.86    9.58
  -2   1   5 1037.37   10.61
   2  -1  -5  982.04    9.87
  -2   1  -5 1021.70    9.87
   2   1   5 1001.64   10.43
  -2  -1   6 1157.79   10.56
   2  -1  -6 1119.70   11.17
   2   1  -6 1155.16   11.86
  -2   1  -6 1161.26   11.41
   2   1   6 1141.94   11.92
   2  -1   7  807.94   11.70
  -2  -1   7  866.90   10.03
  -2   1   7  821.13   10.73
   2  -1  -7  825.01   10.34
   2   1  -7  817.96    9.44
  -2  -1  -7  817.78   10.83
  -2   1  -7  855.41   10.69
  -2  -1   8   54.66    1.81
  -2   1   8   68.92    3.06
   2  -1  -8   47.41    2.09
  -2  -1  -8   64.61    3.01
   2  -1   9  115.81    4.37
   2   1   9   95.99    6.22
  -2  -1   9  114.26    2.63
  -2   1   9  113.97    3.45
   2   1  -9  117.29    2.75
   2  -1  -9  105.65    3.25
  -2  -1  -9  107.21    3.59
   2  -1  10 1955.94   48.76
   2   1  10 1784.27   44.52
  -2  -1  10 1720.75   41.92
  -2   1  10 1833.41   44.97
   2   1 -10 1829.11   44.41
   2  -1 -10 1680.72   41.19
  -2  -1 -10 1735.61   42.94
   2  -1  11   20.39    3.22
   2   1  11    1.07    3.58
  -2  -1  11   13.96    2.32
  -2   1  11   29.23    3.38
   2   1 -11   28.18    2.50
  -2  -1 -11   27.42    3.80
   2  -1  12 1897.08   41.10
   2   1  12 1846.43   40.28
  -2  -1  12 1832.49   38.56
  -2   1  12 1860.85   39.54
   2   1 -12 1847.63   38.69
  -2  -1 -12 1822.24   39.06
   2  -1  13  202.46    9.52
   2   1  13  249.56   12.23
  -2  -1  13  241.89   10.34
  -2   1  13  269.20   11.62
   2   1 -13  232.14    9.73
  -2  -1 -13  233.98   11.67
   2  -1  14 1232.07   41.48
   2   1  14 1146.20   38.93
  -2  -1  14 1195.32   39.59
  -2   1  14 1196.69   39.90
  -2  -1 -14 1189.94   39.93
   2  -1  15   32.71    3.41
   2   1  15   18.72    2.98
  -2  -1  15   33.77    2.87
  -2   1  15   25.03    2.93
  -2  -1 -15   23.84    2.88
   2  -1  16  175.56    8.62
   2   1  16  215.81    9.78
  -2  -1  16  208.80    8.04
  -2   1  16  142.16    6.65
  -2  -1 -16  135.99   15.87
   2  -1  17   37.74    5.71
   2   1  17   49.99    6.83
  -2  -1  17   46.69    5.94
  -2   1  17   40.22    5.66
  -2  -1 -17   40.77    5.93
   2  -1  18  414.53   20.87
   2   1  18  451.91   22.34
  -2  -1  18  425.27   20.28
  -2   1  18  416.90   20.22
  -2  -1 -18  391.33   19.95
   2  -1  19   57.00    8.24
   2   1  19   39.50    6.52
  -2  -1  19   42.93    5.75
  -2   1  19   62.04    8.29
  -2  -1 -19   69.28    9.61
  -2   1 -19   51.05    7.66
   2  -1  20    3.12    3.55
   2   1  20   24.95    7.25
  -2  -1  20   24.47    4.78
  -2   1  20   10.33    4.60
  -2  -1 -20   10.83    5.60
  -2   1 -20   29.45    6.75
   2  -1  21   18.20    6.02
  -2  -1  21   12.07    2.77
   2   1  21    2.37    3.77
  -2   1  21   13.55    3.51
  -2  -1 -21   11.69    4.41
  -2   1 -21   14.01    6.13
   2  -1  22  288.88   21.09
   2   1  22  269.49   19.96
  -2   1  22  304.55   21.75
  -2  -1 -22  284.12   20.77
  -2   1 -22  254.45   19.16
   2  -1  23   79.97    7.45
   2   1  23   83.58    7.63
  -2   1  23   67.10    5.81
  -2  -1 -23   97.65    8.79
  -2   1 -23   71.64    7.27
   2  -1  24  327.43   23.93
   2   1  24  330.20   24.24
  -2  -1 -24  349.78   61.64
  -2   1 -24  365.64   64.35
   2  -2   0 3974.14   35.19
   2   2   0 3903.28   33.65
  -2  -2   0 3791.96   32.62
  -2  -2   0 3797.84   33.51
   2  -2   1 3782.61   33.62
   2   2  -1 3720.46   31.81
  -2  -2   1 3909.42   33.31
  -2  -2  -1 3636.44   31.82
  -2  -2   1 3877.42   34.27
  -2  -2  -1 3749.51   33.11
   2  -2   2 2648.60   24.48
  -2  -2  -2 2705.97   24.47
  -2  -2   2 2497.40   21.31
  -2  -2   2 2564.55   23.61
   2   2  -3 2911.83   24.38
  -2   2  -3 2986.82   27.49
   2   2   3 2974.92   27.01
  -2  -2   3 2995.65   25.02
  -2  -2   3 3054.02   27.74
   2   2  -3 2845.20   25.81
  -2  -2  -3 2891.64   26.26
  -2   2  -3 2924.65   24.42
  -2   2  -4  109.60    7.37
  -2  -2   4  132.65    3.39
   2   2   5  340.51    5.79
   2  -2  -5  303.75    4.56
   2   2   5  301.53    4.77
   2  -2   6   19.86    3.21
  -2   2  -6    9.60    1.61
   2   2   6   14.53    3.31
  -2   2   6   16.94    2.15
   2  -2  -6   11.31    1.45
  -2  -2   6   12.83    1.96
  -2  -2  -6   18.40    2.24
  -2   2   7  360.30    6.25
   2  -2  -7  429.89    6.50
   2  -2   8  848.22   13.79
  -2  -2   8  934.64   10.61
   2   2   8  853.87   12.40
  -2   2   8  875.56   11.77
   2   2  -8  876.99    9.86
   2  -2   9  637.53   17.16
  -2  -2   9  782.21   19.23
   2   2   9  722.21   19.15
  -2   2   9  659.98   17.27
   2   2  -9  644.06   15.88
   2  -2  10  376.46   11.28
  -2  -2  10  374.99    9.70
   2   2  10  422.47   12.69
  -2   2  10  377.41   10.87
   2   2 -10  360.73    9.27
  -2  -2 -10  359.17   10.52
   2  -2  11  182.99    6.63
  -2  -2  11  160.12    4.36
  -2   2  11  161.90    5.36
   2   2 -11  169.53    4.36
  -2  -2 -11  166.75    5.92
   2  -2  12  206.65   21.02
  -2  -2  12  151.39    4.36
   2   2  12  144.49    5.96
  -2   2  12  178.44    6.21
   2   2 -12  172.58    4.62
  -2  -2 -12  159.79    5.99
   2  -2  13  282.88   14.09
  -2  -2  13  265.16   10.93
   2   2  13  276.04   12.54
  -2   2  13  278.13   12.05
   2   2 -13  235.61    9.71
  -2  -2 -13  265.92   11.85
   2  -2  14  418.08   15.50
  -2  -2  14  486.04   16.64
   2   2  14  514.88   19.04
  -2   2  14  441.62   16.01
   2   2 -14  387.04   13.32
  -2  -2 -14  427.75   15.89
   2  -2  15 1914.72  240.53
  -2  -2  15 1680.78   52.37
   2   2  15 1737.97   55.38
  -2   2  15 1849.23  232.21
  -2  -2 -15 1778.11   56.21
   2  -2  16  505.62   18.02
  -2  -2  16  481.18   16.34
   2   2  16  532.21   19.54
  -2   2  16  573.01   19.94
  -2  -2 -16  520.93   18.64
   2  -2  17   86.25   10.31
  -2  -2  17   59.09    6.86
   2   2  17   79.85   10.05
  -2   2  17   75.39    9.05
  -2  -2 -17   66.99    8.98
   2  -2  18    7.32    1.97
  -2  -2  18   14.19    3.44
   2   2  18    4.49    3.43
  -2   2  18   13.28    4.41
  -2  -2 -18   13.51    5.75
   2  -2  19   42.70    9.05
  -2  -2  19   30.16    3.36
   2   2  19   44.36    5.90
  -2   2  19   43.71    5.07
  -2  -2 -19   40.73    6.24
   2  -2  20  170.63   11.61
   2   2  20  120.70    9.49
  -2   2  20  148.95   10.20
  -2  -2 -20  146.86   10.35
   2  -2  21   69.16   13.27
   2   2  21   54.83    7.01
  -2   2  21   79.14    9.01
  -2  -2 -21   86.02    9.73
   2  -2  22   75.94   11.19
   2   2  22   99.76    9.18
  -2   2  22   91.23    8.32
  -2  -2 -22  108.20   11.11
  -2   2 -22  100.61   10.35
   2  -2  23   21.41    5.51
   2   2  23   28.01    7.59
  -2   2  23   12.55    4.08
  -2  -2 -23   14.53    5.20
  -2   2 -23   18.40    5.51
   2   2  24   17.65    6.67
  -2   2  24   15.54    5.00
  -2  -2 -24   23.58    7.26
  -2   2 -24   28.60    8.48
   2   3   0 2916.76   25.73
  -2  -3   0 2899.30   25.49
  -2  -3   0 2942.20   27.14
   2  -3   0 3004.89   25.52
   2   3  -1 2414.68   21.29
   2   3   1 2346.50   23.54
  -2  -3  -1 2389.42   21.61
  -2  -3   1 2417.64   21.21
  -2  -3   1 2357.71   23.28
  -2  -3  -1 2402.72   22.60
   2  -3   1 2323.19   19.59
   2   3   1 2409.34   22.62
   2  -3  -1 2405.72   20.92
   2  -3   2 1287.51   13.57
   2   3  -2 1267.41   11.52
   2   3   2 1124.99   11.78
  -2  -3  -2 1243.69   12.57
  -2  -3   2 1198.66   10.86
   2  -3   2 1156.74    9.77
  -2  -3   2 1216.64   13.01
  -2  -3  -2 1238.93   13.08
  -2   3  -2 1177.05    9.96
   2  -3  -2 1202.66   11.51
  -2   3  -3  475.73    6.64
   2   3  -3  528.93    5.22
  -2  -3  -3  502.75    6.65
  -2  -3   3  502.75    4.80
  -2   3   3  537.80    7.48
  -2  -3   3  481.40    8.55
  -2   3  -3  494.48    4.58
  -2  -3  -3  538.24    7.41
   2  -3   4   99.00    9.49
  -2   3  -4   62.91   10.54
   2   3   4   76.27    3.22
  -2  -3  -4   78.24    2.79
  -2   3  -4   73.82    1.98
   2   3  -4   90.11    2.87
  -2  -3  -4   93.05    3.13
   2   3   4   71.14    2.72
   2   3   5  883.28   12.07
  -2   3   5  863.35   11.93
  -2   3  -5  901.89   10.25
  -2  -3  -5  864.84   11.78
   2  -3   6  154.28   13.77
   2   3   6   96.69    3.88
  -2   3   6  134.78    4.79
  -2  -3   6  104.05    9.60
  -2   3  -6   99.45    5.88
  -2  -3  -6  131.79    4.15
   2  -3   7 1796.41   22.12
   2   3   7 1724.29   21.50
  -2   3   7 1777.37   21.51
  -2   3  -7 1728.97   19.20
  -2  -3   7 1727.04   20.91
  -2  -3  -7 1857.28   22.22
  -2  -3   8    6.11    0.61
   2  -3   8   29.47    3.97
   2   3   8    5.69    1.76
  -2   3   8   13.36    2.39
   2   3  -8   14.91    1.15
  -2   3  -8    5.07    0.97
  -2  -3  -8   10.14    2.36
  -2  -3   9   83.96    6.26
   2  -3   9  120.84   16.97
   2   3   9   69.43    6.50
  -2   3   9   98.18    7.46
   2   3  -9  100.18    6.68
  -2  -3  -9   97.25    7.81
  -2  -3  10  883.28   21.62
   2  -3  10  958.64   25.91
   2   3  10  910.95   24.16
  -2   3  10  958.61   24.87
   2   3 -10  860.03   20.98
  -2  -3 -10  896.13   23.40
   2  -3  11  415.36   11.44
  -2  -3  11  356.63    8.15
   2   3  11  373.74   10.67
  -2   3  11  424.14   10.97
   2   3 -11  412.22    9.11
  -2  -3 -11  411.65   11.01
   2  -3  12 1879.58   73.11
  -2  -3  12 1666.09   63.87
  -2   3  12 1772.07   68.73
   2   3 -12 1681.65   64.39
  -2  -3 -12 1632.48   65.63
   2  -3  13  429.94   16.08
  -2  -3  13  360.12   12.33
   2   3  13  415.17   16.16
  -2   3  13  436.86   16.03
   2   3 -13  389.62   13.21
  -2  -3 -13  416.28   15.84
   2  -3  14  175.13   20.64
  -2  -3  14  176.01    6.30
   2   3  14  191.45    8.74
  -2   3  14  166.82    7.31
   2   3 -14  161.91    5.83
  -2  -3 -14  167.07    7.94
   2  -3  15  201.97   21.58
  -2  -3  15  167.84   10.09
   2   3  15  182.24    9.95
  -2   3  15  168.09    7.56
   2   3 -15  142.57    5.36
  -2  -3 -15  147.94    9.40
   2  -3  16   74.61   11.33
  -2  -3  16   27.89    5.66
   2   3  16   32.65    5.26
  -2   3  16   64.41    7.85
  -2  -3 -16   66.75    8.65
   2  -3  17  270.21   14.02
  -2  -3  17  204.05   10.02
   2   3  17  240.31   13.98
  -2   3  17  292.64   14.99
  -2  -3 -17  290.59   15.37
   2  -3  18  291.19   22.14
  -2  -3  18  268.78   21.63
   2   3  18  328.05   21.33
  -2   3  18  294.29   18.89
  -2  -3 -18  325.31   21.13
   2  -3  19   21.89    5.43
   2   3  19   52.69    7.00
  -2   3  19   44.66    5.67
  -2  -3 -19   59.87    7.80
   2  -3  20   17.86    3.88
   2   3  20   12.13    4.06
  -2   3  20   10.66    2.80
  -2  -3 -20   14.80    4.65
   2  -3  21   30.40    7.68
   2   3  21   12.90    4.84
  -2   3  21   31.06    7.13
  -2  -3 -21   23.72    7.26
   2  -3  22   60.66    7.32
   2   3  22   65.41    7.45
  -2   3  22   59.38    5.98
  -2  -3 -22   60.28    7.74
   2  -3  23  100.21   23.83
   2   3  23  143.10   13.88
  -2   3  23  153.46   14.49
  -2  -3 -23  121.50   25.35
   2  -3 -23  201.66   19.46
   2  -3  24   52.58   12.53
   2   3  24   77.65   12.33
  -2   3  24   86.15   12.87
  -2  -3 -24   68.21   11.04
  -2   3 -24  101.43   14.91
   2  -3 -24  103.91   15.88
   2   4   0   61.13    2.27
  -2  -4   0   64.09    2.12
  -2  -4   0   58.49    3.17
   2  -4   0   77.94    1.86
   2   4   1  425.62    6.70
   2   4  -1  465.60    6.38
  -2  -4  -1  483.83    6.93
  -2  -4   1  420.55    5.76
  -2   4   1  408.21    7.17
  -2  -4  -1  425.69    7.40
   2  -4  -1  424.01    5.73
  -2   4  -1  404.11    5.03
   2   4   2  430.69    6.81
   2   4  -2  426.33    5.84
  -2  -4  -2  410.14    6.35
  -2  -4   2  418.53    5.51
   2  -4   2  431.68    5.59
  -2  -4  -2  450.63    7.52
  -2   4  -2  429.07    5.21
   2  -4  -2  432.46    6.07
   2  -4   3 1179.22   15.02
   2   4   3 1183.27   14.81
   2   4  -3 1212.43   13.54
  -2  -4  -3 1150.69   14.23
  -2   4   3 1234.50   15.88
  -2  -4   3 1195.67   13.26
   2  -4   3 1263.12   13.74
  -2  -4   3 1270.96   16.26
  -2  -4  -3 1248.50   15.94
  -2   4  -3 1250.21   13.72
   2  -4  -3 1185.32   14.12
   2   4  -4 1767.64   18.99
  -2   4  -4 1780.99   19.30
  -2  -4  -4 1810.91   21.82
   2  -4  -4 1835.96   21.07
   2  -4   5  108.09    6.05
   2   4  -5  108.25    1.86
  -2   4   5  109.44    4.04
  -2   4  -5  150.25    6.18
  -2  -4  -5  101.59    4.03
   2  -4   6   86.95    3.40
   2   4   6   64.51    3.54
  -2   4  -6   75.87    2.32
  -2  -4  -6   76.02    3.71
   2  -4  -6   76.73    3.14
   2  -4   7  103.26   13.29
   2   4   7   91.67    7.45
  -2   4   7   93.19    7.14
  -2   4  -7   82.82    5.77
  -2  -4  -7   91.57    7.05
   2  -4  -7   84.95    6.55
   2  -4   8 1363.48   34.33
   2   4   8 1146.26   29.33
  -2   4   8 1399.49   35.30
  -2  -4   8 1095.41   27.85
  -2   4  -8 1075.22   26.46
  -2  -4  -8 1392.47   35.22
   2  -4   9  209.53   14.70
   2   4   9  181.71   12.87
   2   4  -9  190.98   12.48
  -2   4   9  204.12   14.27
  -2   4  -9  175.95   12.12
  -2  -4  -9  188.15   13.39
  -2  -4  10 1022.43   21.29
   2  -4  10 1115.29   25.12
   2   4  10  963.92   22.28
   2   4 -10 1088.17   22.51
  -2   4  10 1157.97   25.96
  -2  -4 -10 1124.92   25.32
  -2  -4  11  219.69    8.82
   2  -4  11  191.04   21.98
   2   4  11  206.13    9.82
   2   4 -11  206.51    8.22
  -2   4  11  197.69    9.38
  -2  -4 -11  199.29   10.14
  -2  -4  12  181.52   15.29
   2  -4  12  171.45   16.73
   2   4  12  187.97   16.76
  -2   4  12  167.31   14.80
   2   4 -12  175.06   14.69
  -2  -4 -12  158.53   14.36
  -2  -4  13   16.27    2.40
   2  -4  13   27.15    4.27
   2   4  13   16.77    3.02
  -2   4  13   19.82    4.86
   2   4 -13   13.48    1.66
  -2  -4 -13   21.00    5.52
  -2  -4  14  555.97   17.64
   2  -4  14  547.99   20.75
  -2   4  14  542.28   19.16
   2   4 -14  536.89   17.07
  -2  -4 -14  535.37   18.77
  -2  -4  15  251.46    8.59
   2  -4  15  271.54   10.91
   2   4  15  295.52   12.29
  -2   4  15  265.26   11.09
  -2  -4 -15  244.60   10.53
  -2  -4  16  626.94   19.38
   2  -4  16  585.45   19.83
   2   4  16  662.92   22.52
  -2   4  16  581.63   19.96
  -2  -4 -16  604.58   20.49
   2  -4  17   50.68    9.32
  -2  -4  17   37.38    6.58
   2   4  17   48.47    8.23
  -2   4  17   49.67    7.15
  -2  -4 -17   50.38    8.06
   2  -4  18   25.19    4.62
   2   4  18   28.29    6.57
  -2   4  18   20.04    4.31
  -2  -4 -18   23.23    3.85
   2  -4  19   12.99    3.90
   2   4  19   11.55    4.53
  -2   4  19   14.77    5.14
  -2  -4 -19    9.98    3.78
   2  -4 -19   16.57    5.79
   2  -4  20   87.83   17.23
   2   4  20  123.78    8.75
  -2   4  20  122.49    9.12
  -2  -4 -20  112.73    9.52
   2  -4 -20  149.63   11.18
   2  -4  21   24.87    5.26
   2   4  21   19.64    5.42
  -2  -4 -21   17.65    5.02
   2  -4  22   64.26   11.03
   2   4  22   51.94   11.32
  -2   4  22   68.22    7.62
  -2  -4 -22   83.21    8.22
   2  -4  23    9.91    4.29
   2   4  23   15.24    5.81
  -2   4  23   11.67    5.85
  -2  -4 -23   11.03    5.16
   2  -4 -23   25.59   10.12
   2   5   0  264.36    4.89
  -2  -5   0  277.41    4.90
  -2   5   0  297.92    6.49
  -2  -5   0  276.54    6.00
   2  -5   0  291.37    4.58
  -2   5   0  275.90    4.24
   2   5  -1 3657.61   39.74
  -2  -5  -1 3435.01   37.60
  -2  -5   1 3563.86   38.49
  -2   5   1 3404.16   38.48
   2  -5   1 3523.83   37.67
   2  -5  -1 3567.42   38.50
  -2   5  -1 3549.37   37.84
  -2   5   1 3443.62   37.16
   2   5   2  405.54    7.00
   2   5  -2  413.09    6.04
  -2  -5  -2  374.27    6.24
  -2  -5   2  416.18    5.97
  -2   5   2  384.12    7.64
   2  -5   2  378.51    5.62
   2  -5  -2  410.29    6.17
  -2   5  -2  401.35    5.36
   2   5   3  125.27    3.81
   2   5  -3  166.08    8.09
  -2   5   3  153.48    5.04
  -2  -5   3  124.73    2.60
   2  -5   3  139.75    2.78
  -2  -5  -3  155.76    4.54
  -2   5  -3  132.61    2.53
   2  -5  -3  128.92    3.28
   2  -5   4   38.01    3.76
   2   5   4   19.73    2.30
   2   5  -4   43.95    3.32
  -2   5   4   33.12    4.15
   2  -5   4   40.59    4.67
  -2  -5   4   28.66    3.79
  -2   5  -4   18.72    1.70
  -2  -5  -4   34.81    3.71
   2  -5  -4   20.36    2.54
   2  -5   5  406.31   15.68
   2   5   5  505.32   13.98
   2   5  -5  426.96   10.75
  -2   5   5  421.25   12.31
  -2  -5   5  508.19   17.91
  -2   5  -5  472.24   11.95
  -2  -5  -5  421.75   12.09
   2  -5  -5  505.88   13.47
   2  -5   6   75.73    8.38
   2   5  -6   52.50    4.64
   2   5   6   23.16    3.21
   2   5  -6   54.51    3.83
  -2  -5   6   40.07    6.18
  -2   5  -6   31.40    4.02
  -2  -5  -6   53.14    5.14
   2  -5  -6   27.55    3.07
   2  -5   7  523.68   15.54
   2   5   7  621.10   17.02
   2   5  -7  506.90   12.43
  -2   5   7  516.79   14.66
  -2  -5   7  653.02   19.25
  -2   5  -7  631.31   15.92
  -2  -5  -7  527.42   14.80
   2  -5  -7  650.79   17.28
   2  -5   8  285.50    8.25
   2   5  -8  276.89    6.00
   2   5   8  330.57    9.74
  -2   5   8  288.31    8.65
   2   5  -8  293.02    6.33
  -2  -5   8  322.94   10.51
  -2   5  -8  312.23    7.51
  -2  -5  -8  301.16    8.63
   2  -5  -8  333.88    9.16
   2  -5   9   52.89    7.08
   2   5  -9   51.20    2.22
   2   5   9   52.89    4.08
  -2   5   9   53.36    4.25
   2   5  -9   52.72    1.68
  -2  -5   9   55.29    8.33
  -2   5  -9   39.24    4.82
  -2  -5  -9   59.29    3.95
   2  -5  -9   53.22    4.65
   2  -5  10  263.19   11.60
   2   5  10  266.84   12.22
   2   5 -10  242.66    9.48
  -2   5  10  266.71   12.34
   2   5 -10  245.94    9.61
  -2  -5 -10  263.44   11.85
   2  -5 -10  294.68   13.28
   2  -5  11  678.39   25.65
   2   5  11  750.27   26.17
   2   5 -11  724.32   23.59
  -2   5  11  733.14   25.69
  -2  -5 -11  708.96   24.75
   2  -5 -11  746.68   25.86
   2  -5  12  531.22   20.69
   2   5 -12  513.23   16.90
  -2   5  12  498.42   18.32
  -2  -5 -12  498.54   18.24
   2  -5 -12  475.92   17.91
  -2  -5  13  689.85   21.52
   2  -5  13  702.03   23.53
   2   5  13  721.02   24.59
  -2   5  13  660.47   22.46
   2   5 -13  636.68   20.04
  -2  -5 -13  600.16   22.75
   2  -5 -13  768.07   26.11
  -2  -5  14  148.16    5.65
   2  -5  14  186.62   20.44
   2   5  14  166.36    8.15
  -2   5  14  169.97    7.96
  -2  -5 -14  170.78    9.84
   2  -5 -14  154.77    8.69
  -2  -5  15   19.56    4.15
   2  -5  15   31.40    5.87
  -2   5  15   18.93    3.93
  -2  -5 -15   14.46    3.96
   2  -5 -15   12.37    3.45
   2  -5  16   26.63    5.94
   2   5  16   23.28    4.14
  -2   5  16   26.67    4.99
  -2  -5 -16   24.80    5.49
   2  -5 -16   22.09    5.53
   2  -5  17  424.08   26.54
   2   5  17  452.44   28.89
  -2   5  17  413.65   26.27
  -2  -5 -17  394.85   25.19
   2  -5 -17  495.54   31.46
   2  -5  18   28.28    6.92
   2   5  18   41.79    8.12
  -2   5  18   25.13    5.63
  -2  -5 -18   21.14    4.78
   2  -5 -18   67.16   10.84
   2  -5  19  188.33   20.34
   2   5  19  190.01   10.96
  -2   5  19  196.54   10.88
  -2  -5 -19  185.04   10.92
   2  -5 -19  204.94   12.24
   2  -5  20   22.09    6.23
   2   5  20   31.67    7.59
  -2   5  20   22.40    5.62
  -2  -5 -20   16.69    5.92
   2  -5 -20   21.99    5.70
   2  -5  21    9.05    2.73
   2   5  21    9.12    5.40
  -2   5  21    4.74    3.89
  -2  -5 -21    4.56    3.95
   2  -5 -21    5.76    4.80
   2  -5  22   30.36    7.55
   2   5  22   37.99    9.08
  -2   5  22   41.75    6.30
  -2  -5 -22   51.35    8.23
   2  -5 -22   56.62    8.12
   2  -5  23  145.29   25.53
   2   5  23  156.09   21.49
  -2   5  23  187.82   25.36
  -2  -5 -23  204.32   27.43
   2  -5 -23  198.32   27.63
   2   6   0   66.92    5.22
  -2  -6   0   68.24    5.24
  -2   6   0   69.29    6.17
   2  -6   0   62.50    4.66
  -2   6   0   65.06    4.73
   2   6   1   36.86    3.56
   2   6  -1   21.59    2.56
  -2  -6   1   28.00    2.77
  -2   6   1   18.46    2.73
  -2   6  -1   37.11    4.20
  -2  -6   1   32.96    3.65
   2  -6   1   20.31    2.01
   2  -6  -1   25.56    3.04
  -2   6  -1   25.31    4.05
  -2   6   1   21.57    2.18
   2   6   2 1534.37   38.10
   2   6  -2 1540.69   37.83
  -2   6   2 1520.58   38.38
  -2  -6   2 1440.43   35.22
  -2  -6   2 1489.95   39.09
   2  -6   2 1462.44   35.68
  -2  -6  -2 1384.45   34.83
   2  -6  -2 1490.17   36.65
  -2   6  -2 1538.17   37.45
   2   6   3    4.44    2.79
   2   6  -3    2.51    1.37
  -2   6   3    4.79    3.72
   2  -6   3    3.33    0.64
  -2  -6   3    8.14    2.75
  -2  -6  -3   19.42    4.88
  -2   6  -3    1.80    1.78
   2  -6  -3    1.20    1.63
   2   6   4 1186.50   30.17
   2   6  -4 1370.38   33.57
  -2   6   4 1225.18   31.57
   2  -6   4 1396.68   34.12
  -2  -6   4 1201.70   30.66
  -2  -6  -4 1324.90   33.74
  -2   6  -4 1203.60   29.51
   2  -6  -4 1148.58   28.73
   2   6  -5   29.17    3.79
   2   6   5   41.35    3.47
   2   6  -5   38.00    2.05
  -2   6   5   31.84    4.23
   2  -6   5   38.73    5.32
  -2  -6   5   51.84    6.77
  -2   6  -5   34.79    1.63
  -2  -6  -5   36.85    4.10
   2  -6  -5   38.59    4.72
   2  -6   6   66.64    3.78
   2   6  -6   54.91    4.49
   2   6   6   79.92    5.19
   2   6  -6   66.52    2.59
  -2   6   6   60.28    4.81
  -2  -6   6   74.98    8.34
  -2   6  -6   69.20    2.57
  -2  -6  -6   68.28    4.68
   2  -6  -6   64.46    3.58
   2  -6   7  109.22   12.84
   2   6  -7   87.38    3.84
   2   6   7   87.02    5.29
   2   6  -7   98.91    2.92
  -2  -6   7   88.63   13.69
  -2   6  -7   80.50    2.90
  -2  -6  -7   98.43    4.65
   2  -6  -7   86.03    6.03
   2  -6   8  627.86   25.28
   2   6  -8  533.65   20.65
   2   6   8  589.25   24.22
  -2   6   8  664.36   27.18
   2   6  -8  615.92   23.78
  -2  -6   8  579.40   23.99
  -2   6  -8  575.99   22.62
  -2  -6  -8  491.44   20.31
   2  -6  -8  601.70   24.21
   2  -6   9  177.89    8.57
   2   6  -9  168.38    6.78
   2   6   9  192.83    9.53
  -2   6   9  179.87    9.42
   2   6  -9  186.17    7.47
  -2  -6   9  183.38   11.56
  -2   6  -9  153.21    6.74
  -2  -6  -9  187.24    9.03
   2  -6  -9  181.84    8.65
   2  -6  10  481.83   17.26
   2   6 -10  463.62   15.25
   2   6  10  575.02   20.85
  -2   6  10  464.15   17.45
   2   6 -10  464.82   15.31
  -2  -6  10  556.92   20.63
  -2  -6 -10  474.97   17.39
   2  -6 -10  602.20   21.35
   2  -6  11  159.91    7.11
   2   6 -11  166.42    5.53
   2   6  11  153.48    7.74
  -2   6  11  162.59    7.90
   2   6 -11  165.91    5.58
  -2  -6 -11  155.26    7.53
   2  -6 -11  163.22    7.59
   2  -6  12   94.26   10.96
   2   6  12  108.21    6.94
   2   6 -12   86.92    3.19
  -2   6  12   97.29    6.23
   2   6 -12   90.66    3.36
  -2  -6 -12  104.64    6.62
   2  -6 -12   93.31    5.53
   2  -6  13   78.94   13.07
   2   6  13  106.18   14.93
  -2   6  13   79.45   11.42
   2   6 -13   74.43    9.47
  -2  -6 -13   85.53   12.56
   2  -6 -13  120.14   19.04
   2  -6  14  529.85   18.02
   2   6  14  530.62   18.75
  -2   6  14  560.53   19.48
  -2  -6 -14  544.72   18.84
   2  -6 -14  566.15   20.74
   2  -6  15   33.99    6.57
   2   6  15   33.06    6.78
  -2   6  15   45.84    6.86
  -2  -6 -15   33.28    6.20
   2  -6 -15   36.80    6.44
   2  -6  16  682.39   41.57
   2   6  16  751.33   62.15
  -2   6  16  729.87   60.15
  -2  -6 -16  738.03   60.89
   2  -6 -16  727.73   60.06
   2  -6  17   20.10    2.84
   2   6  17   28.52    5.62
  -2   6  17    9.92    4.31
  -2  -6 -17   18.62    4.52
   2  -6 -17   13.91    4.72
   2  -6  18   40.30    8.24
   2   6  18   46.18   10.16
  -2   6  18   53.14    8.77
  -2  -6 -18   44.17    7.43
   2  -6 -18   45.17    8.00
   2  -6  19   13.82    3.71
   2   6  19   17.80    6.52
  -2   6  19   18.30    6.28
  -2  -6 -19   20.17    6.64
   2  -6 -19   10.07    4.42
   2  -6  20   88.41   12.77
   2   6  20   91.28   10.77
  -2   6  20  116.16   10.06
  -2  -6 -20  123.65   11.03
   2  -6 -20   89.18   12.14
   2  -6  21   29.22    7.28
   2   6  21   46.14    7.98
  -2   6  21   40.76    7.02
  -2  -6 -21   49.27    6.98
   2  -6 -21   39.25    9.39
   2  -6  22   13.74    4.24
   2   6  22   31.55    9.25
  -2   6  22   23.05    8.02
  -2  -6 -22   19.23    6.59
   2  -6 -22   52.66    7.25
   2   7   0   64.72    3.66
  -2   7   0   71.53    5.92
  -2  -7   0   56.34    4.26
   2  -7   0   64.34    3.06
  -2   7   0   61.84    2.50
   2   7   1 1530.75   33.03
   2   7  -1 1737.24   36.97
  -2   7   1 1660.82   36.41
  -2   7  -1 1639.87   35.83
  -2  -7   1 1569.43   34.30
   2  -7   1 1739.65   36.61
  -2  -7  -1 1602.51   34.88
   2  -7  -1 1563.78   33.14
  -2   7  -1 1555.62   32.71
  -2   7   1 1472.77   31.19
   2   7   2  230.46    7.22
   2   7  -2  273.85    7.43
  -2   7   2  303.49   10.08
  -2  -7   2  217.45    5.86
  -2   7  -2  246.53    8.02
  -2  -7   2  230.30    7.40
   2  -7   2  256.78    6.45
  -2  -7  -2  279.73    8.64
   2  -7  -2  222.96    6.22
  -2   7  -2  228.90    5.83
   2   7   3  269.02    8.15
   2   7  -3  251.10    6.81
  -2   7   3  252.22    8.06
   2  -7   3  254.40    8.67
  -2  -7   3  253.82    9.77
  -2  -7  -3  269.98    8.30
   2  -7  -3  255.40    7.12
  -2   7  -3  251.91    6.27
   2   7   4  231.12    7.41
   2   7  -4  269.80    7.04
  -2   7   4  261.09   12.21
   2  -7   4  267.60    6.71
  -2  -7   4  251.20   11.36
  -2   7  -4  248.19    6.24
   2  -7  -4  246.80    8.21
   2   7  -5  348.79   13.85
   2   7   5  290.77   13.09
   2   7  -5  392.29   15.66
  -2   7   5  385.63   16.51
   2  -7   5  390.65   15.51
  -2  -7   5  293.26   12.86
  -2   7  -5  270.16   11.00
   2  -7  -5  278.01   11.82
   2   7  -6  371.97   18.49
   2   7   6  478.66   19.86
   2   7  -6  462.30   18.24
  -2   7   6  434.49   18.39
   2  -7   6  460.96   18.28
  -2  -7   6  460.75   19.20
  -2   7  -6  451.34   17.87
  -2  -7  -6  461.34   19.32
   2  -7  -6  452.48   18.47
   2   7  -7  170.90    9.79
   2   7   7  130.74    7.39
   2   7  -7  199.39   16.80
  -2   7   7  191.51   17.02
  -2  -7   7  143.88   15.22
  -2   7  -7  129.38    5.74
  -2  -7  -7  188.09    9.44
   2  -7  -7  138.25    7.00
   2   7  -8  362.07   12.23
   2   7   8  505.45   18.70
  -2   7   8  399.14   15.35
   2   7  -8  423.73   14.25
  -2  -7   8  475.68   17.27
  -2   7  -8  412.95   14.17
  -2  -7  -8  434.92   15.98
   2  -7  -8  452.62   16.31
   2  -7   9  137.99    6.51
   2   7  -9  123.23    4.44
   2   7   9  148.38    8.19
   2   7  -9  146.72    5.22
  -2  -7   9  125.81    6.13
  -2  -7  -9  147.65    6.93
   2  -7  -9  156.12    7.03
   2  -7  10   47.34    7.71
   2   7 -10   35.96    1.79
   2   7  10   53.96    4.87
  -2   7  10   37.19    4.72
   2   7 -10   44.44    2.61
  -2  -7  10   66.05    8.06
  -2  -7 -10   46.98    5.99
   2  -7 -10   50.09    4.54
   2  -7  11  579.79   20.03
   2   7  11  598.76   21.24
  -2   7  11  577.47   20.62
   2   7 -11  549.43   17.47
  -2  -7  11  590.93   20.38
  -2  -7 -11  491.49   17.86
   2  -7 -11  635.09   21.91
   2  -7  12    7.21    2.66
   2   7  12    0.14    3.90
  -2   7  12   17.43    4.27
   2   7 -12    7.95    1.34
  -2  -7 -12    2.65    3.73
   2  -7 -12    9.71    3.39
   2  -7  13  908.63   28.95
   2   7  13  935.95   30.69
  -2   7  13  919.15   30.22
  -2  -7 -13  925.80   30.01
   2  -7 -13  915.43   32.34
   2  -7  14   57.24   11.04
   2   7  14   36.65    6.60
  -2   7  14   71.14   11.25
  -2  -7 -14   61.10    8.74
   2  -7 -14   24.19    4.90
   2  -7  15   85.29   14.15
   2   7  15   75.48    9.70
  -2   7  15   92.64    9.35
  -2  -7 -15   90.72    9.20
   2  -7 -15   93.95    9.39
   2  -7  16   65.23   13.29
   2   7  16   80.19    7.51
  -2   7  16   54.66   10.27
  -2  -7 -16   63.84   12.09
   2  -7 -16   58.67   11.21
   2  -7  17  178.39   18.64
   2   7  17  264.13   14.57
  -2   7  17  188.87   11.10
  -2  -7 -17  173.80   10.33
   2  -7 -17  268.13   14.07
   2  -7  18  101.12   15.00
  -2   7  18  126.99   12.04
  -2  -7 -18  134.30   12.77
   2  -7 -18  126.89   12.32
   2  -7  19   33.00    7.75
   2   7  19   62.69   11.14
  -2   7  19   26.38    6.10
  -2  -7 -19   33.01    6.91
   2  -7  20    5.78    2.42
   2   7  20    6.06    4.06
  -2   7  20   15.03    6.27
  -2  -7 -20    5.50    4.32
   2  -7 -20    4.78    4.19
   2  -7  21    5.18    2.19
   2   7  21    3.46    3.94
  -2   7  21    1.84    4.09
  -2  -7 -21   14.84    6.85
   2  -7 -21   15.03    5.62
   2   8   0  537.49   21.76
  -2   8   0  565.93   23.58
  -2  -8   0  473.94   19.75
   2  -8   0  520.44   20.68
   2   8   1  415.00   17.24
   2   8  -1  398.48   16.43
  -2   8   1  405.98   17.61
  -2   8  -1  425.62   18.12
  -2  -8   1  420.81   17.79
   2  -8   1  410.91   16.53
  -2  -8  -1  407.67   17.33
   2  -8  -1  427.54   17.26
   2   8   2  929.52   36.71
   2   8  -2  787.28   31.15
  -2   8   2  822.14   33.22
  -2   8  -2  940.70   37.47
  -2  -8   2  909.04   36.14
   2  -8   2  740.40   28.93
  -2  -8  -2  739.84   29.80
   2  -8  -2  921.62   36.07
  -2   8  -2  699.41   27.30
   2   8   3  293.66   11.54
   2   8  -3  239.98   20.43
  -2   8   3  250.48   22.04
  -2   8  -3  304.39   12.36
   2  -8   3  252.44   21.32
  -2  -8   3  292.48   15.79
  -2  -8  -3  241.96   20.92
   2  -8  -3  279.60   10.47
  -2   8  -3  264.42    9.42
   2   8   4  623.40   22.03
   2   8  -4  605.16   20.59
  -2   8   4  606.06   21.96
  -2   8  -4  622.11   22.04
   2  -8   4  592.28   20.37
  -2  -8   4  630.18   22.28
  -2  -8  -4  562.61   20.18
   2  -8  -4  617.39   21.36
  -2   8  -4  610.90   20.55
   2   8  -5   55.99    6.75
   2   8   5  108.11   10.87
   2   8  -5   88.96    8.27
  -2   8   5   98.60    9.82
   2  -8   5   73.76   10.11
  -2  -8   5   95.94   11.03
  -2  -8  -5   94.43    9.30
  -2   8  -5   74.26    6.61
   2  -8  -5   86.40   12.46
   2   8  -6    5.01    1.04
   2   8   6   12.24    3.67
   2   8  -6    8.52    1.38
  -2   8   6   15.80    4.98
   2  -8   6    9.90    1.53
  -2  -8   6    9.34    2.31
  -2  -8  -6   20.34    3.62
  -2   8  -6    6.25    1.43
   2  -8  -6   13.25    2.51
   2   8  -7   55.15    4.49
   2   8   7   46.90    4.67
   2   8  -7   90.64    4.09
  -2   8   7   72.27    6.20
   2  -8   7   74.68    8.66
  -2  -8   7   62.57   12.18
   2  -8  -7   67.40    4.47
   2   8   8  151.44    7.65
   2   8  -8  119.17    4.71
  -2   8   8  122.56    7.48
  -2  -8   8  150.64   18.96
   2  -8  -8  139.81    6.70
   2   8   9  287.78   12.48
  -2   8   9  243.10   10.72
   2   8  -9  246.99    8.46
  -2  -8   9  257.54   12.89
   2  -8  -9  301.01   11.81
   2   8  10  120.56   14.32
   2   8 -10  187.84    6.37
  -2  -8  10  123.59   18.39
  -2  -8 -10  187.77    8.49
   2  -8 -10  139.02   16.88
   2   8  11   16.96    4.60
  -2   8  11    9.99    3.76
   2   8 -11    6.96    1.55
  -2  -8  11   15.26    4.17
  -2  -8 -11    7.53    3.75
   2  -8 -11   19.87    4.08
   2  -8  12   97.90   12.19
   2   8  12   79.70   10.92
  -2   8  12   72.09    9.83
  -2  -8 -12   77.32   10.43
   2  -8 -12   79.69   10.39
   2  -8  13   11.12    2.56
   2   8  13   11.28    4.39
  -2   8  13   11.88    6.04
  -2  -8 -13   15.25    3.79
   2  -8 -13   20.33    5.35
   2  -8  14  320.52   18.86
   2   8  14  282.29   17.24
  -2   8  14  308.60   18.59
  -2  -8 -14  341.70   28.20
   2  -8 -14  304.87   18.26
   2  -8  15   43.64   10.03
   2   8  15   39.83    8.16
  -2   8  15   39.94    9.14
  -2  -8 -15   46.44    9.09
   2  -8 -15   53.12   10.23
   2  -8  16  297.75   16.63
   2   8  16  312.58   15.84
  -2   8  16  291.66   15.10
  -2  -8 -16  288.33   14.43
   2  -8 -16  326.63   16.29
   2  -8  17   10.44    2.96
   2   8  17   15.48    6.52
  -2   8  17   18.91    7.63
  -2  -8 -17   14.56    6.26
   2  -8 -17   12.77    4.83
   2  -8  18   16.89    3.64
   2   8  18   23.89    6.61
  -2   8  18   28.39    5.80
  -2  -8 -18   21.80    5.28
   2  -8 -18   27.31    5.12
   2  -8  19   21.12    5.49
  -2   8  19   30.69    8.17
  -2  -8 -19   10.68    4.68
   2  -8 -19   11.71    4.67
   2   8  20   41.90    5.98
  -2   8  20   77.36    8.13
  -2  -8 -20   78.25    8.18
   2  -8 -20   69.40    8.64
   2   9   0   22.97    3.24
  -2   9   0   23.48    4.25
  -2  -9   0   24.63    3.87
   2  -9   0   24.20    2.17
   2   9   1 1090.71   35.19
   2   9  -1 1026.22   32.91
  -2   9   1 1034.45   34.24
  -2   9  -1 1111.76   36.42
  -2  -9   1  976.56   34.32
   2  -9   1  936.39   29.77
  -2  -9  -1  916.99   30.14
   2  -9  -1 1069.56   34.02
   2   9   2  159.66    7.83
   2   9  -2  193.81    8.09
  -2   9   2  207.03    9.93
  -2   9  -2  166.30    8.28
  -2  -9   2  175.69   21.66
   2  -9   2  188.01    7.11
  -2  -9  -2  185.82    8.75
   2  -9  -2  165.83    6.77
   2   9   3   57.27    4.75
   2   9  -3   89.26    4.69
  -2   9   3   73.85    6.51
  -2   9  -3   84.51    6.11
   2  -9   3   80.40    7.86
  -2  -9   3   80.01   11.71
  -2  -9  -3   87.45    5.49
   2  -9  -3   71.66    4.02
   2   9   4  682.29   23.04
   2   9  -4  688.13   22.40
  -2   9   4  752.79   25.95
  -2   9  -4  722.15   24.70
   2  -9   4  772.34   24.71
  -2  -9   4  667.74   22.51
  -2  -9  -4  737.96   24.84
   2  -9  -4  674.19   23.94
   2   9   5   65.80    9.52
   2   9  -5   22.27    3.68
  -2   9   5   22.29    5.40
  -2   9  -5   50.26    7.92
   2  -9   5   21.52    3.55
  -2  -9   5   73.33   15.17
  -2  -9  -5   17.44    3.89
   2  -9  -5   70.54    9.77
   2   9   6  726.46   25.00
   2   9  -6  846.92   27.34
  -2   9   6  826.82   28.26
  -2   9  -6  792.53   26.88
   2  -9   6  909.61   29.05
  -2  -9   6  704.87   24.46
  -2  -9  -6  833.05   28.25
   2  -9  -6  753.69   25.19
   2   9   7    9.29    5.41
   2   9  -7    2.87    2.10
  -2   9   7    1.88    4.49
   2  -9   7    5.11    1.82
  -2  -9   7    8.74    3.04
  -2  -9  -7    8.77    3.39
   2  -9  -7   14.71    4.35
   2   9   8  389.37   14.34
   2   9  -8  399.23   12.81
  -2   9   8  413.48   15.72
  -2  -9   8  411.90   14.78
  -2  -9  -8  382.23   14.13
   2  -9  -8  406.82   14.25
   2   9   9    2.63    3.43
  -2   9   9   14.24    6.68
   2   9  -9    2.84    1.79
  -2  -9   9    4.38    2.60
  -2  -9  -9   12.04    4.66
   2  -9  -9   15.63    4.47
   2   9  10   82.08   11.59
  -2   9  10   41.55    6.48
  -2  -9  10   78.53   13.85
  -2  -9 -10   54.04    7.81
   2  -9 -10   76.23    9.91
   2   9  11  278.54   19.61
  -2  -9  11  309.20   19.85
   2  -9 -11  279.76   18.11
   2   9  12   25.52    6.15
  -2   9  12   21.92    4.81
   2  -9 -12   33.94    4.88
   2   9  13  250.09   16.27
  -2   9  13  293.94   19.03
  -2  -9 -13  283.82   17.81
   2  -9 -13  299.75   33.32
   2   9  14   68.21    7.34
  -2   9  14   47.94    8.42
  -2  -9 -14   62.12   10.18
   2  -9 -14   62.60   10.15
   2   9  15   21.48    5.96
  -2   9  15   31.09    7.69
   2  -9 -15   21.44    5.49
  -2   9  16  101.59    9.47
  -2  -9 -16   74.16    8.39
   2  -9 -16   70.04   11.66
   2   9  17   60.58    7.27
  -2   9  17   48.69    8.42
  -2  -9 -17   23.43    5.79
   2  -9 -17   55.78    6.75
   2   9  18   42.01    6.82
  -2   9  18   74.48   11.06
  -2  -9 -18   42.23    6.55
   2  -9 -18   52.21    7.24
   2   9  19    9.97    5.04
  -2   9  19   19.00    7.02
  -2  -9 -19   12.87    4.96
   2  -9 -19   27.46    7.04
   2  10   0    4.84    2.76
  -2  10   0    7.23    4.17
  -2 -10   0    4.63    3.30
   2 -10   0    9.99    3.03
   2  10   1  164.55    7.72
   2  10  -1  162.89    7.15
  -2  10   1  151.92    9.41
  -2  10  -1  177.20    9.20
  -2 -10   1  157.80   14.20
   2 -10   1  137.63   21.03
  -2 -10  -1  152.75    7.54
   2 -10  -1  143.23    6.16
   2  10   2   20.53    4.80
   2  10  -2   36.76    5.03
  -2  10   2   53.38    8.88
  -2  10  -2   30.76    5.74
   2 -10   2   34.24    5.64
  -2 -10   2   20.40    5.32
  -2 -10  -2   41.77    6.29
   2 -10  -2   16.03    2.97
   2  10   3  135.00   16.92
   2  10  -3  102.72   11.86
  -2  10   3  108.26   12.97
  -2  10  -3  128.43   16.02
   2 -10   3   96.59   14.48
  -2 -10   3  111.26   17.45
  -2 -10  -3  116.44   14.22
   2 -10  -3  111.79   12.62
   2  10   4   73.23    9.90
   2  10  -4  107.80   12.18
  -2  10   4   96.31   11.96
  -2  10  -4   75.31   10.06
   2 -10   4   98.56   14.54
  -2 -10   4   86.51   14.04
  -2 -10  -4   94.26   11.51
   2 -10  -4   67.01    8.06
   2  10   5  144.87    9.00
   2  10  -5  157.54    8.59
  -2  10   5  142.17    9.23
  -2  10  -5  155.68    9.58
   2 -10   5  145.11   11.99
  -2 -10   5  194.84   19.59
  -2 -10  -5  137.43    8.61
   2 -10  -5  161.33    8.82
   2  10   6   98.83   12.64
   2  10  -6   91.04   11.85
  -2  10   6  105.62   13.84
  -2  10  -6  110.38   13.93
   2 -10   6   82.88   14.06
  -2 -10   6  117.24   19.15
  -2 -10  -6  111.92   14.15
   2 -10  -6  109.67   13.48
   2  10   7  151.57    9.46
   2  10  -7  119.56    6.95
  -2  10   7  126.15    9.52
  -2  10  -7  146.40    9.22
   2 -10   7  121.07   10.21
  -2 -10   7  157.99   19.71
  -2 -10  -7  133.59    8.72
   2 -10  -7  139.11    7.93
   2  10   8  173.75   12.50
   2  10  -8  168.07   10.78
  -2  10   8  166.04   13.01
  -2  10  -8  150.79   11.08
   2 -10   8  166.88   11.25
  -2 -10   8  149.49   10.61
  -2 -10  -8  177.89   13.63
   2 -10  -8  136.76    9.59
   2  10   9  192.35   12.62
  -2  10   9  252.80   15.96
  -2  10  -9  237.02   14.49
  -2 -10   9  232.76   14.18
  -2 -10  -9  225.04   14.09
   2 -10  -9  231.75   15.67
   2  10  10  121.67    9.47
  -2  10  10   95.94   10.08
  -2 -10  10  113.48   27.07
  -2 -10 -10  102.53   10.64
   2 -10 -10  105.90    9.99
   2  10  11   33.41    7.21
  -2  10  11   34.74    7.72
  -2 -10  11   34.10    7.72
  -2 -10 -11   31.34    7.10
   2 -10 -11   20.60    5.34
   2  10  12    5.29    4.96
  -2  10  12   -3.07    3.98
  -2 -10  12    5.65    2.52
  -2 -10 -12   12.19    5.77
   2 -10 -12    6.23    4.43
   2  10  13   36.24    8.32
  -2 -10 -13   22.69    6.15
   2 -10 -13   37.29    8.71
   2  10  14   48.27    8.76
  -2  10  14   57.60   10.17
  -2 -10 -14   59.11    9.89
   2 -10 -14   62.83   11.10
   2  10  15   70.03    7.19
  -2  10  15   50.42    8.78
   2 -10 -15   56.62    6.64
   2  10  16   22.14    7.49
  -2  10  16   16.43    7.36
   2 -10 -16   21.76    5.84
   2  10  17   10.79    5.02
  -2  10  17   24.48    8.66
  -2 -10 -17   11.90    5.05
   2 -10 -17    6.25    3.91
  -2  10  18    5.85    4.07
  -2 -10 -18    3.64    4.46
   2 -10 -18    9.54    4.89
   2  11   0   46.14    6.47
  -2  11   0   37.88    6.65
   2 -11   0   42.91    7.24
  -2 -11   0   40.06    6.33
   2  11   1  351.88   22.23
   2  11  -1  354.53   22.35
  -2  11   1  363.47   23.77
  -2  11  -1  373.25   24.47
  -2 -11   1  363.17   23.08
   2 -11   1  366.53   22.64
  -2 -11  -1  335.96   21.52
   2 -11  -1  371.27   23.00
   2  11   2   39.96    7.05
   2  11  -2   57.87    7.79
  -2  11   2   61.11    8.58
  -2  11  -2   33.72    6.52
   2 -11   2   35.02    7.85
  -2 -11   2   33.34    5.77
  -2 -11  -2   51.73    7.37
   2 -11  -2   36.25    5.56
   2  11   3  126.64    9.59
   2  11  -3  146.94   10.49
  -2  11   3  134.49   10.70
  -2  11  -3  152.57   12.27
   2 -11   3  126.81   13.56
  -2 -11   3  122.22   13.93
  -2 -11  -3  135.15    9.80
   2 -11  -3  119.92    8.43
   2  11   4  290.11   19.01
   2  11  -4  276.98   17.58
  -2  11   4  293.06   19.82
  -2  11  -4  280.78   19.04
   2 -11   4  268.28   16.88
  -2 -11   4  264.04   27.55
  -2 -11  -4  259.53   16.99
   2 -11  -4  270.92   17.28
   2  11   5   53.93    7.30
   2  11  -5   35.91    4.55
  -2  11   5   55.44    7.52
  -2  11  -5   29.64    4.95
   2 -11   5   41.29    7.50
  -2 -11   5   35.78    6.88
  -2 -11  -5   69.26    8.79
   2 -11  -5   43.12    5.44
   2  11   6  312.29   18.50
   2  11  -6  316.70   17.75
  -2  11   6  297.25   18.27
  -2  11  -6  303.42   17.97
   2 -11   6  329.94   18.32
  -2 -11   6  290.67   17.29
  -2 -11  -6  280.23   16.75
   2 -11  -6  268.91   15.67
   2  11   7  116.23    9.21
  -2  11   7  136.39   10.87
  -2  11  -7  138.21    9.63
   2 -11   7  110.14    7.03
  -2 -11   7  135.59   23.09
  -2 -11  -7  121.42    9.26
   2 -11  -7  129.32    8.99
   2  11   8  194.25   13.25
  -2  11   8  198.12   13.95
  -2  11  -8  218.23   14.29
   2 -11   8  194.77   11.91
  -2 -11   8  173.82   24.85
  -2 -11  -8  174.87   11.96
   2 -11  -8  194.88   12.57
   2  11   9    1.54    3.36
  -2  11   9   -0.88    4.24
  -2  11  -9   19.30    6.33
  -2 -11   9    6.97    2.11
  -2 -11  -9   12.13    5.07
   2 -11  -9    2.77    2.83
   2  11  10   14.06    4.22
  -2  11  10   17.25    4.28
  -2  11 -10    8.65    5.20
  -2 -11  10    2.44    1.57
  -2 -11 -10   15.58    4.37
   2 -11 -10    5.91    2.95
   2  11  11   86.80   10.81
  -2  11  11   91.32   10.08
  -2  11 -11   78.08    8.07
  -2 -11  11   66.70   10.60
  -2 -11 -11  106.91   10.54
   2 -11 -11   86.27    8.56
   2  11  12   27.30    5.66
  -2  11  12   47.63    8.56
  -2 -11  12   21.98    6.11
  -2 -11 -12   19.39    4.85
   2 -11 -12   21.54    5.08
   2  11  13   86.74    8.05
  -2  11  13   99.91    9.08
  -2  11 -13   86.87    7.17
  -2 -11 -13   83.66    7.76
   2 -11 -13   90.09    7.89
   2  11  14    4.62    4.15
  -2 -11 -14    8.15    4.14
   2 -11 -14    4.69    3.27
   2  11  15   10.11    5.38
  -2  11  15   14.62    5.74
  -2 -11 -15   20.88    7.23
   2 -11 -15    8.84    3.87
   2  11  16   30.01    6.83
  -2  11  16   27.07    7.90
   2 -11 -16   37.28    7.15
   2  12   0    0.63    2.95
  -2  12   0    2.59    3.71
  -2 -12   0   -0.21    3.34
   2 -12   0    1.86    1.84
   2  12  -1   20.81    4.81
   2  12   1    8.43    3.41
  -2  12   1   22.56    5.18
  -2  12  -1    8.96    5.40
  -2 -12   1   17.75    4.59
   2 -12   1   12.92    2.60
   2 -12  -1   18.69    4.43
   2  12   2   53.34    9.86
   2  12  -2   43.26    8.28
  -2  12   2   30.69    8.45
  -2  12  -2   53.65   10.29
   2 -12   2   26.25    6.53
  -2 -12   2   47.75    9.61
  -2 -12  -2   36.16    7.59
   2 -12  -2   47.71    8.61
   2  12   3  131.19   10.16
   2  12  -3  135.14    9.88
  -2  12   3  130.81   10.99
  -2  12  -3  149.10   11.90
   2 -12   3   96.51   10.53
  -2 -12   3  129.13   18.25
  -2 -12  -3  113.48    8.54
   2 -12  -3  120.16    8.29
   2  12   4   84.44    6.75
   2  12  -4   72.61    5.13
  -2  12   4   58.98    9.25
  -2  12  -4   97.00    7.17
   2 -12   4   58.14   11.45
  -2 -12   4   70.82   11.53
  -2 -12  -4   74.77    5.87
   2 -12  -4   76.35    5.44
   2  12   5   12.34    4.13
   2  12  -5    9.79    2.57
  -2  12   5    0.28    3.69
  -2  12  -5    9.09    3.95
   2 -12   5    5.94    1.94
  -2 -12   5   15.50    3.12
  -2 -12  -5   10.33    3.71
   2 -12  -5   15.28    3.89
   2  12   6   19.11    5.97
  -2  12   6   16.49    4.89
  -2  12  -6   21.89    5.65
  -2 -12   6   24.45    5.79
  -2 -12  -6   22.74    5.36
   2 -12  -6   16.84    3.80
   2  12   7   68.34    8.60
  -2  12   7   79.75    9.16
  -2  12  -7   68.72    7.74
  -2 -12   7   90.30   12.47
  -2 -12  -7   78.15    8.35
   2 -12  -7   76.41    8.05
   2  12   8   17.15    5.17
  -2  12   8   29.16    7.52
  -2  12  -8   19.99    5.29
  -2 -12   8   26.56    6.61
  -2 -12  -8   14.04    4.54
   2 -12  -8   30.79    7.33
   2  12   9  107.13    9.58
  -2  12   9   79.70    8.50
  -2  12  -9   99.53    8.83
  -2 -12   9   91.26   15.80
  -2 -12  -9   67.25   11.08
   2 -12  -9  106.77    8.98
   2  12  10    0.80    3.97
  -2  12  10    5.87    7.00
  -2  12 -10   13.64    5.61
  -2 -12  10   13.21    3.34
  -2 -12 -10   10.37    5.28
   2 -12 -10    0.89    2.69
   2  12  11   50.75    8.74
  -2  12  11   57.46    7.27
  -2  12 -11   70.86    6.32
  -2 -12  11   59.75   10.58
  -2 -12 -11   54.58    6.76
   2 -12 -11   60.00    7.04
   2  12  12    0.11    4.13
  -2  12  12   15.05    7.72
  -2  12 -12   15.33    5.55
  -2 -12  12    9.16    2.99
  -2 -12 -12   12.23    5.80
   2  12  13   18.62    7.31
  -2  12  13   23.10    7.71
  -2  12 -13   12.88    4.25
  -2 -12 -13   25.29    7.52
   2 -12 -13   16.74    5.59
   2  12  14   -0.38    4.29
  -2  12  14   13.49    7.20
  -2 -12 -14    8.01    3.96
   2 -12 -14    5.98    3.23
   2  13   0   85.59    7.81
  -2  13   0  114.56   11.21
  -2 -13   0   85.35   17.93
   2 -13   0   81.22   13.05
   2  13   1   38.53    6.82
   2  13  -1   44.42    7.65
  -2  13   1   41.56    8.78
  -2  13  -1   48.26    8.96
  -2 -13   1   29.15    6.38
  -2 -13  -1   43.68    7.74
   2 -13  -1   25.01    5.03
   2  13   2   11.48    3.71
   2  13  -2    9.49    3.91
  -2  13   2   13.91    4.36
  -2  13  -2   12.75    4.40
  -2 -13   2   22.30    5.13
  -2 -13  -2   15.49    5.14
   2 -13  -2   14.06    3.41
   2  13   3   20.01    5.91
   2  13  -3   18.63    4.86
  -2  13   3   18.18    4.37
  -2  13  -3   16.08    5.12
  -2 -13   3   15.59    3.91
  -2 -13  -3   17.77    4.49
   2 -13  -3   17.63    4.45
   2  13   4   76.19    9.60
  -2  13   4  100.10    9.84
  -2  13  -4   56.74    9.75
  -2 -13   4   55.82   11.04
  -2 -13  -4  100.65    8.86
   2 -13  -4   61.54    9.65
   2  13   5   25.57    5.55
  -2  13  -5   30.21    6.24
  -2 -13   5   34.70    6.56
  -2 -13  -5   55.71    6.75
   2 -13  -5   39.27    6.27
   2  13   6  193.00   13.82
  -2  13   6  232.94   16.97
  -2  13  -6  175.68   12.67
  -2 -13   6  148.95   26.38
  -2 -13  -6  220.11   14.86
   2 -13  -6  180.56   12.32
   2  13   7  180.10   13.10
  -2  13   7  201.78   14.90
  -2  13  -7  193.37   14.43
  -2 -13   7  177.00   22.49
  -2 -13  -7  162.18   11.87
   2  13   8   47.44    6.70
  -2  13   8   22.71    6.63
  -2  13  -8   29.31    7.45
  -2 -13   8   32.10    8.38
  -2 -13  -8   45.84    6.42
   2 -13  -8   31.17    7.29
   2  13   9   26.67    7.68
  -2  13   9   27.09    9.44
  -2  13  -9   33.86    7.45
  -2 -13   9   10.36    4.18
  -2 -13  -9   13.98    4.80
   2 -13  -9   27.02    7.37
   2  13  10   49.06    8.33
  -2  13  10   21.12    7.99
  -2  13 -10   41.79    5.39
  -2 -13  10   38.54    5.73
  -2 -13 -10   13.06    5.07
   2 -13 -10   29.25    8.05
   2  13  11   50.44    8.76
  -2  13  11   40.29    7.23
  -2  13 -11   47.28    8.27
  -2 -13  11   36.14    9.36
  -2 -13 -11   27.70    6.87
   2 -13 -11   39.38    7.35
   2  14   0   14.54    4.44
  -2  14   0    5.31    4.10
  -2 -14   0   24.97    6.80
   2  14  -1   12.10    3.55
   2  14   1   24.13    6.09
  -2  14  -1   28.80    8.16
  -2 -14   1   36.85    9.99
  -2 -14  -1   22.88    5.81
   2  14   2    8.51    4.77
  -2  14   2    5.19    4.29
  -2  14  -2   11.75    4.68
  -2 -14   2   14.68    4.77
  -2 -14  -2    4.43    1.97
   2  14   3  149.75   12.73
  -2  14   3  152.14   13.02
  -2  14  -3  145.18   12.38
  -2 -14   3  132.72   18.90
  -2 -14  -3  122.48   10.38
   2  14   4    1.08    3.72
  -2  14   4    2.97    4.18
  -2  14  -4   22.61    7.81
  -2 -14   4    5.68    2.62
   2  14   5   21.91    7.86
  -2  14   5   19.95    6.65
  -2  14  -5   23.50    7.60
  -2 -14  -5   16.70    5.41
   2 -14  -5   17.86    5.26
   2  14   6   12.23    6.11
  -2  14   6   17.55    7.00
  -2  14  -6    2.03    3.33
  -2 -14   6    3.36    2.62
  -2 -14  -6   10.30    3.96
   2 -14  -6    6.80    3.80
   2  14   7   11.16    5.86
  -2  14   7   15.08    6.81
  -2  14  -7   11.53    5.08
  -2 -14   7    4.26    1.81
  -2 -14  -7    8.78    3.71
   2 -14  -7    4.06    3.39
   3   0   0    3.77    1.63
  -3   0   0    1.88    1.58
  -3   0   0   14.06    2.52
   3   0   0    4.35    0.78
   3   0  -1 1274.84   12.87
  -3   0   1 1305.13   13.14
  -3   0  -1 1252.42   13.13
  -3   0   1 1381.57   13.72
  -3   0  -1 1311.42   12.64
   3   0  -1 1289.25   12.44
   3   0   1 1312.52   12.57
   3   0  -2  105.59    4.61
  -3   0   2  113.14    5.21
   3   0   2  109.51    6.34
  -3   0  -2  106.82    3.23
  -3   0   2  104.02    5.54
   3   0  -2  113.39    4.04
  -3   0  -2  114.67    2.66
   3   0   2  115.27    2.56
  -3   0   3  184.48    7.17
   3   0   3  182.02    4.36
  -3   0   3  202.58    3.78
   3   0  -3  202.09   11.56
  -3   0  -3  191.78    3.26
   3   0   3  187.98    3.12
  -3   0   4 1161.30   13.41
   3   0   4 1209.74   16.79
   3   0  -4 1284.45   15.26
  -3   0  -4 1213.20   14.21
   3   0   4 1176.70   13.70
  -3   0   5 1781.63   19.82
   3   0   5 1856.78   22.62
  -3   0   5 1801.21   20.17
   3   0  -5 1806.49   20.88
  -3   0  -5 1813.60   20.54
   3   0   5 1729.16   19.52
  -3   0   6  330.83    6.47
   3   0   6  395.24    7.51
  -3   0   6  351.30    5.50
  -3   0  -6  364.31    5.74
   3   0   6  376.63    5.81
  -3   0   7 1712.31   19.45
  -3   0  -7 1766.27   20.50
   3   0   8   39.14    4.33
  -3   0   8   34.46    2.95
  -3   0  -8   33.87    3.13
   3   0   9  456.07   13.35
  -3   0   9  454.32   11.99
   3   0  -9  433.88   11.27
  -3   0  -9  459.38   12.40
  -3   0  10  369.46    8.93
   3   0 -10  368.71    8.65
  -3   0 -10  388.01   10.08
   3   0  11  316.20    9.41
  -3   0  11  361.52    8.94
   3   0 -11  339.32    8.12
  -3   0 -11  334.01    8.88
   3   0  12   49.26    4.24
  -3   0  12   54.75    3.42
   3   0 -12   42.81    4.26
  -3   0 -12   55.51    3.83
   3   0  13  480.96   17.85
  -3   0  13  532.68   18.43
  -3   0 -13  486.54   17.17
   3   0  14  202.47    9.01
  -3   0  14  210.87    7.92
  -3   0 -14  192.33    8.21
   3   0  15  386.03   15.32
  -3   0  15  365.19   12.81
  -3   0 -15  372.42   13.44
   3   0  16   22.19    5.02
  -3   0  16   28.83    4.03
  -3   0 -16   20.01    3.63
   3   0  17  515.42   25.15
  -3   0  17  544.16   25.57
  -3   0 -17  506.17   24.18
   3   0  18   94.60   12.29
  -3   0  18  100.67    9.14
  -3   0 -18  113.66    8.69
   3   0  19  421.92   24.53
  -3   0 -19  404.14   23.54
   3   0  20  154.27    9.78
  -3   0  20  150.92    7.99
  -3   0 -20  153.04    9.41
   3   0  21   31.43    7.21
  -3   0 -21   42.46    9.01
   3   0  22  120.85   10.19
  -3   0 -22  125.34    9.88
   3   0  23   18.44    5.54
  -3   0 -23   32.94    8.20
   3   0  24   96.62   13.96
  -3   0 -24  109.32   16.13
   3  -1   0  109.02    7.93
  -3   1   0   87.47   10.59
   3   1   0   80.63    4.32
  -3  -1   0   85.99    2.85
  -3   1   0   91.59    2.19
  -3  -1   0   91.81    5.12
   3  -1   0  100.27    4.59
   3   1   0   84.27    2.49
   3  -1   1   80.27    8.99
   3   1  -1   75.50    4.25
   3   1  -3  300.81    5.10
   3  -1   3  319.11    5.97
  -3  -1   3  377.41    6.06
   3   1  -3  323.06    5.44
  -3  -1  -3  307.89    4.85
   3   1   3  366.17    5.17
   3  -1   3  308.93    3.74
   3  -1   4  829.94   11.96
  -3   1   4  827.50   10.79
   3   1  -4  818.25   11.95
  -3  -1  -4  823.60   10.61
  -3   1   5  684.02    8.85
  -3  -1   5  671.91    8.30
   3  -1   5  738.11   11.27
   3   1   5  689.84   10.38
  -3   1   5  725.40    9.79
  -3  -1   5  667.94    8.04
  -3  -1   5  638.59    9.08
   3  -1  -5  691.06    9.04
  -3  -1  -5  695.34    9.45
  -3   1  -5  667.40    8.29
   3   1   5  661.14    9.07
  -3  -1   6  728.00    8.54
   3   1   6  732.31   10.98
  -3  -1   6  770.26    9.12
  -3   1  -6  713.10   10.71
  -3  -1   7  278.30    4.51
   3  -1   7  270.11   19.37
   3   1   7  297.06    7.36
  -3  -1   7  295.25    4.34
  -3   1   7  246.96    4.82
  -3  -1  -7  243.11    5.07
  -3   1  -7  252.84    4.46
   3   1   7  262.68    5.10
   3  -1   8 3248.80   68.36
   3   1   8 3223.82   78.87
  -3  -1   8 3224.51   77.55
  -3   1   8 3273.99   67.83
  -3  -1  -8 3251.06   67.60
  -3   1  -8 3194.87   77.20
   3   1   9  268.45   18.64
  -3  -1   9  303.97    8.08
  -3   1   9  341.74    9.65
   3  -1  -9  272.18   18.08
  -3  -1  -9  343.76    9.86
  -3   1  -9  255.13   17.10
   3  -1  10 2218.60   47.89
   3   1  10 2265.51   48.77
  -3  -1  10 2128.63   44.16
  -3   1  10 2165.24   45.55
   3   1 -10 2083.99   43.11
  -3  -1 -10 2146.44   45.41
  -3   1 -10 2194.57   46.04
   3  -1  11  330.08    9.93
   3   1  11  240.16    8.89
  -3  -1  11  282.58    6.88
  -3   1  11  316.99    9.06
   3   1 -11  315.73    7.39
  -3  -1 -11  313.97    8.74
  -3   1 -11  306.24    8.22
   3  -1  12  208.73   10.60
  -3  -1  12  199.16    8.33
  -3   1  12  190.37    8.56
   3   1 -12  175.39    7.32
  -3  -1 -12  178.10    8.30
  -3   1 -12  200.06    9.05
   3  -1  13  162.23   14.79
   3   1  13  114.16   10.98
  -3  -1  13  113.70    9.89
  -3   1  13  127.99   11.32
   3   1 -13  131.34   11.23
  -3  -1 -13  129.27   11.59
  -3   1 -13  107.06    9.69
   3   1  14   22.76    3.87
  -3   1 -14   21.11    2.89
   3  -1  15  118.20   15.86
   3   1  15  110.83   15.00
  -3  -1  15   89.94   11.71
  -3   1  15  132.32   14.69
  -3  -1 -15  121.36   16.12
  -3   1 -15   98.39   13.63
   3  -1  16   17.09    4.01
   3   1  16   73.92   10.00
  -3  -1  16   93.17   10.37
  -3   1  16   27.76    4.11
  -3  -1 -16   32.43    5.36
  -3   1 -16   74.65    9.30
   3  -1  17  146.93    9.98
   3   1  17  191.95   11.11
  -3  -1  17  165.49    8.55
  -3   1  17  130.33    7.58
  -3  -1 -17  101.96   12.83
  -3   1 -17  169.39    9.56
   3  -1  18   74.12   10.06
   3   1  18   71.45    9.63
  -3  -1  18   61.64    7.84
  -3   1  18   67.84    8.71
  -3  -1 -18   62.57    8.80
  -3   1 -18   55.88    9.05
   3  -1  19  178.79   12.29
   3   1  19  145.44   10.04
  -3  -1  19  138.61    8.52
  -3   1  19  158.54    9.96
  -3  -1 -19  155.46   10.55
  -3   1 -19  158.97   10.38
   3  -1  20  605.67  111.58
   3   1  20  569.84   26.37
  -3   1  20  554.65   25.51
  -3  -1 -20  588.38  108.32
  -3   1 -20  581.06  106.87
   3  -1  21   37.11    8.09
   3   1  21   40.73    9.21
  -3   1  21   33.22    7.34
  -3  -1 -21   41.64    8.93
  -3   1 -21   41.18    8.91
   3  -1  22  439.82   27.83
   3   1  22  417.03   26.47
  -3  -1 -22  404.75   25.88
  -3   1 -22  430.56   31.16
   3  -1  23   29.99    9.22
   3   1  23   38.61    8.57
  -3  -1 -23   22.27    6.59
  -3   1 -23   13.45    4.42
   3  -1  24   39.00   10.40
   3   1  24   61.94   10.27
  -3  -1 -24   44.26   10.07
  -3   1 -24   64.02   10.91
   3  -2   0 3397.18   31.07
   3   2   0 3523.43   31.47
  -3  -2   0 3488.12   30.90
   3  -2   0 3512.37   29.79
   3   2   0 3324.01   30.11
   3  -2   1  289.20    7.75
  -3  -2   2 2072.35   22.74
  -3   2   3  231.29    4.35
   3  -2   3  260.40    5.69
   3   2  -3  244.10    4.03
  -3  -2   3  265.65    3.86
  -3  -2  -3  276.03    5.27
  -3  -2   3  263.91    5.94
  -3   2  -3  267.60    3.48
  -3  -2  -3  281.43    5.29
   3   2   3  273.88   11.06
  -3   2   4  493.98    7.90
   3  -2   4  418.97    7.44
  -3  -2   4  412.85    5.15
  -3  -2   4  425.61    8.19
  -3   2  -4  414.76    4.97
   3   2   4  399.09    6.44
  -3  -2   5  909.45   10.06
   3   2   5  902.69   12.81
  -3  -2   5  902.85    9.89
  -3  -2   5  906.25   12.18
  -3  -2  -5  991.81   13.08
  -3   2  -5  897.69   10.20
  -3  -2   6  236.82    3.00
   3   2   6  224.47    5.93
  -3  -2   6  237.07    2.97
  -3  -2   6  212.56    5.00
  -3   2  -6  218.55    3.46
  -3  -2   7 2603.20   62.34
   3   2   7 2636.46   64.75
  -3  -2   7 2592.91   62.09
  -3   2   7 2534.41   61.79
  -3  -2  -7 2498.12   60.95
  -3   2  -7 2585.85   62.37
  -3  -2   8  356.26    8.83
   3  -2   8  361.00   11.04
   3   2   8  331.18   13.64
  -3  -2   8  376.52    9.30
  -3   2   8  347.66    9.97
  -3  -2  -8  334.52   10.02
  -3   2  -8  377.12    9.97
  -3  -2   9  198.18   13.03
   3  -2   9  145.66   11.38
   3   2   9  196.55   13.97
  -3  -2   9  195.30   12.92
  -3   2   9  140.90   10.05
  -3  -2  -9  149.07   10.64
  -3   2  -9  209.32   16.38
   3  -2  10   98.08   13.31
   3   2  10   92.73    4.60
  -3  -2  10  133.07    3.38
  -3   2  10   97.44    4.24
  -3  -2 -10   87.07    4.15
  -3   2 -10  121.83    4.05
   3  -2  11   26.01    3.97
   3   2  11   22.26    3.49
  -3  -2  11   18.20    1.33
  -3   2  11   14.70    2.41
   3   2 -11   12.22    0.98
  -3  -2 -11   12.03    2.24
  -3   2 -11   23.47    2.43
   3  -2  12   80.42   13.02
   3   2  12  129.52    7.37
  -3  -2  12  116.59    5.13
  -3   2  12   92.74    5.30
   3   2 -12   72.66    3.33
  -3  -2 -12   83.57    5.15
  -3   2 -12   95.62    5.58
   3  -2  13   36.43    7.15
  -3  -2  13   73.84    6.51
  -3   2  13   40.76    5.07
   3   2 -13   29.96    3.37
  -3  -2 -13   33.64    4.48
  -3   2 -13   69.50    7.52
   3  -2  14   23.83    3.36
   3   2  14   39.82    4.52
  -3   2  14   24.08    2.86
  -3  -2 -14   17.00    3.67
  -3   2 -14   43.02    4.07
   3  -2  15  150.76   18.23
  -3  -2  15  139.21    5.37
   3   2  15  148.38    7.88
  -3   2  15  150.44    6.95
  -3  -2 -15  150.28    7.26
  -3   2 -15  147.18    8.99
   3  -2  16   63.70    9.55
   3   2  16   65.73    8.97
  -3  -2  16   68.71    7.72
  -3   2  16   55.46    7.05
  -3  -2 -16   55.97    7.57
  -3   2 -16   82.02    9.61
   3  -2  17  279.39   19.71
  -3  -2  17  290.18   13.77
   3   2  17  314.87   17.01
  -3   2  17  318.98   15.84
  -3  -2 -17  271.95   14.30
  -3   2 -17  318.96   16.01
   3  -2  18  207.98   24.02
   3   2  18  223.66   16.02
  -3   2  18  211.83   14.03
  -3  -2 -18  190.96   17.41
  -3   2 -18  218.10   14.44
   3  -2  19  303.98   22.25
   3   2  19  319.49   19.93
  -3   2  19  330.70   19.93
  -3  -2 -19  295.93   22.77
  -3   2 -19  350.76   21.18
   3  -2  20  207.06   23.46
   3   2  20  230.80   12.64
  -3   2  20  207.86   10.94
  -3  -2 -20  202.59   17.41
  -3   2 -20  240.04   12.90
   3  -2  21   47.15   10.66
   3   2  21   54.56   10.37
  -3   2  21   38.40    6.75
  -3  -2 -21   29.26    5.95
  -3   2 -21   36.71    7.34
   3  -2  22   70.86   11.88
   3   2  22   43.34    7.32
  -3   2  22   39.26    8.48
  -3  -2 -22   81.07    7.56
  -3   2 -22   42.61    8.02
   3  -2  23   62.06   14.12
   3   2  23   80.34    7.97
  -3  -2 -23   85.30    8.66
  -3   2 -23   80.12    7.83
   3   3   0   58.52    2.56
  -3  -3   0   54.46    2.44
   3  -3   0   58.70    2.06
  -3  -3   0   47.08    5.94
   3  -3   0   57.68    1.40
   3  -3   1   55.65    7.56
   3   3  -1   42.50    1.89
  -3  -3   1   23.32    3.61
   3   3   2    8.39    1.94
  -3  -3   2    9.40    2.64
  -3   3   3  113.63    4.89
  -3  -3   3   69.39   10.36
   3   3  -4 1245.86   13.42
   3   3   4 1274.13   16.29
  -3  -3   4 1223.48   13.16
  -3   3   4 1370.06   17.32
  -3  -3   4 1261.01   18.18
  -3   3  -5  819.31    9.08
  -3  -3   5  800.12   11.58
  -3   3  -5  786.22    8.67
   3   3   6  379.80   10.99
  -3   3   6  437.43   12.30
  -3   3  -6  387.06    9.64
  -3  -3   6  410.22   14.83
  -3  -3  -6  406.30   11.46
  -3   3  -6  400.54   10.03
   3  -3   7  616.07   16.84
   3   3   7  633.15   17.01
  -3   3   7  630.41   16.88
  -3  -3   7  687.05   18.21
  -3  -3  -7  674.89   17.99
  -3   3  -7  681.08   16.90
   3  -3   8  922.27   24.23
   3   3   8  844.26   22.25
  -3   3   8  940.89   24.29
  -3  -3   8  848.01   22.16
  -3  -3  -8  909.91   23.59
  -3   3  -8  869.21   21.54
   3  -3   9  637.63   15.84
   3   3   9  706.20   17.13
  -3   3   9  662.75   15.82
  -3  -3  -9  667.49   15.73
  -3   3  -9  728.08   15.99
   3  -3  10  827.28   21.13
   3   3  10  825.97   19.52
  -3   3  10  781.83   18.37
  -3  -3 -10  768.50   17.92
   3  -3  11  309.62   13.78
   3   3  11  250.05   11.64
  -3   3  11  304.90   14.02
  -3  -3 -11  279.32   12.20
   3  -3  12  161.66   14.54
  -3  -3  12  126.71   11.29
   3   3  12  115.53   10.74
  -3   3  12  137.24   12.40
  -3  -3 -12  144.50   12.95
   3  -3  13  380.79   14.28
  -3  -3  13  318.56   10.13
   3   3  13  343.24   13.06
  -3   3  13  361.05   14.64
   3   3 -13  353.07   11.14
  -3  -3 -13  351.20   13.07
   3  -3  14   37.14    7.50
  -3  -3  14    6.79    1.13
   3   3  14    7.18    4.78
  -3   3  14   26.20    4.85
   3   3 -14   14.59    2.08
  -3  -3 -14   15.01    3.23
   3  -3  15  328.57   12.72
  -3  -3  15  339.46   12.90
  -3   3  15  328.38   12.27
  -3  -3 -15  318.18   12.22
   3  -3  16   51.72    9.00
  -3  -3  16   22.73    4.00
   3   3  16   20.34    4.63
  -3   3  16   45.82    7.11
  -3  -3 -16   45.09    7.17
   3  -3  17  347.75   22.53
   3   3  17  293.26   19.45
  -3   3  17  273.85   17.58
  -3  -3 -17  295.74   19.15
  -3   3 -17  320.53   20.38
   3  -3  18   46.84    8.30
   3   3  18   41.52    6.13
  -3   3  18   50.42    5.78
  -3  -3 -18   40.42    5.20
  -3   3 -18   32.89    5.66
   3  -3  19   52.08   10.92
   3   3  19   25.63    6.20
  -3   3  19   45.93    8.63
  -3  -3 -19   49.79   10.05
  -3   3 -19   34.66    6.76
   3  -3  20  313.88   26.68
   3   3  20  284.27   24.99
  -3   3  20  304.73   25.68
  -3  -3 -20  295.39   25.46
  -3   3 -20  297.15   25.25
   3  -3  21  118.40   18.38
   3   3  21   98.83    9.21
  -3   3  21  115.83    9.79
  -3  -3 -21  148.33   13.16
   3  -3  22  190.05   34.69
   3   3  22  246.32   22.26
  -3   3  22  223.02   20.03
  -3  -3 -22  199.07   18.17
  -3   3 -22  273.90   24.14
   3  -3  23   10.06    3.81
   3   3  23   12.42    5.30
  -3   3  23   19.21    5.97
  -3  -3 -23   28.01    8.28
  -3   3 -23   14.26    4.52
   3   4   0  252.82    4.71
  -3  -4   0  228.02    4.16
  -3  -4   0  212.26    5.16
   3  -4   0  238.05    3.26
   3   4  -1  171.71    3.64
   3   4   1  150.75    6.96
  -3  -4  -1  159.98    3.63
  -3  -4   1  142.67    3.04
  -3  -4   1  140.57    4.27
  -3  -4  -1  141.85    4.60
   3  -4   1  167.01    2.12
   3  -4  -1  155.32    3.50
   3   4  -2 3154.63   34.06
  -3  -4  -2 2967.86   33.14
  -3  -4   2 3080.30   33.14
  -3  -4   2 3042.64   35.08
  -3  -4  -2 3024.94   34.59
   3  -4  -2 3005.58   32.52
   3   4   3  272.10   11.38
  -3  -4   3  276.05    6.22
   3  -4  -3  282.19    5.25
   3  -4   4   75.31   10.20
   3   4  -4   72.67    4.92
   3   4   4   73.58    5.43
  -3  -4   4  111.06    7.37
  -3   4   4   56.73    5.30
  -3  -4   4  129.85   15.52
   3   4   5  594.01   15.93
  -3   4   5  672.59   18.00
  -3  -4   5  685.76   20.51
  -3   4  -5  623.52   15.03
  -3  -4  -5  654.29   17.49
  -3   4  -5  637.87   15.37
   3  -4   6  599.35   16.45
   3   4   6  680.36   18.41
  -3   4   6  610.27   16.47
  -3  -4   6  601.10   16.58
  -3   4  -6  689.11   16.81
  -3  -4  -6  607.90   16.49
   3  -4   7   86.31   13.06
   3   4   7   66.28    6.28
  -3   4   7   71.28    5.89
  -3  -4   7   85.56    8.26
  -3   4  -7   89.81    7.00
  -3  -4  -7   70.87    5.97
   3  -4   8  346.65    9.85
   3   4   8  371.39   10.17
  -3   4   8  377.07   10.52
  -3  -4   8  359.13    9.87
  -3   4  -8  363.06    8.61
  -3  -4  -8  368.68   10.15
   3  -4   9  399.56   11.16
   3   4   9  388.66   10.92
  -3   4   9  372.85   10.35
  -3  -4   9  374.77   10.23
  -3   4  -9  379.68    8.70
  -3  -4  -9  381.23   10.33
   3  -4  10  329.60   14.26
   3   4  10  266.91   12.41
  -3   4  10  347.47   15.04
  -3   4 -10  231.54    9.43
  -3  -4 -10  323.81   15.08
   3  -4  11  371.29   14.23
   3   4  11  433.24   16.19
  -3   4  11  388.42   14.79
  -3   4 -11  344.21   11.85
  -3  -4 -11  344.93   13.20
   3  -4  12  249.99   31.11
   3   4  12  200.62   17.86
  -3   4  12  272.14   11.24
  -3  -4 -12  289.06   11.73
   3  -4  13  270.45   27.48
   3   4  13  209.07    9.34
  -3   4  13  265.12   10.54
  -3  -4 -13  260.47   10.51
   3  -4  14   44.64    9.40
   3   4  14   80.02   11.31
  -3   4  14   53.37    7.89
  -3  -4 -14   25.43    4.88
   3  -4  15  137.97   23.46
   3   4  15   82.48   10.17
  -3   4  15  137.37   16.66
  -3  -4 -15  127.50   14.55
   3  -4  16   23.68    4.76
  -3   4  16   11.65    2.67
  -3  -4 -16   12.77    4.12
   3  -4  17  268.58   17.62
   3   4  17  206.46   14.38
  -3   4  17  254.06   16.78
  -3  -4 -17  227.64   15.40
   3  -4  18  281.27   17.56
   3   4  18  331.88   20.83
  -3  -4 -18  301.43   19.28
   3  -4  19  182.22   25.73
   3   4  19  220.64   12.53
  -3   4  19  181.89   10.17
  -3  -4 -19  166.22    9.51
   3  -4  20  173.01   25.96
   3   4  20  166.84   15.38
  -3   4  20  151.89   13.62
  -3  -4 -20  156.99   18.16
  -3   4 -20  191.58   17.20
   3  -4  21  105.07   17.30
   3   4  21  152.76   12.12
  -3   4  21  117.28    9.22
  -3  -4 -21  132.85   16.42
  -3   4 -21  173.06   12.26
   3  -4  22   61.56   12.52
   3   4  22   46.51    6.91
  -3   4  22   85.69    8.83
  -3  -4 -22   90.40   15.12
  -3   4 -22   64.80    7.37
   3  -4 -22   70.67    9.61
   3  -4  23    8.75    2.43
   3   4  23   -5.43    3.73
  -3   4  23    4.91    3.40
  -3  -4 -23    4.62    5.25
  -3   4 -23    2.43    3.40
   3  -4 -23   13.49    5.86
   3   5   0  690.94   17.63
  -3  -5   0  665.90   16.98
  -3  -5   0  660.29   17.67
   3  -5   0  703.98   17.33
   3   5   1  354.65    9.96
   3   5  -1  432.34   11.40
  -3  -5  -1  383.14   10.36
  -3  -5   1  378.64    9.99
  -3   5   1  431.11   12.68
  -3  -5   1  376.55   15.00
   3  -5   1  404.53   10.04
  -3  -5  -1  408.61   11.70
   3  -5  -1  382.00    9.81
   3   5  -2  962.70   23.85
   3   5   2  918.69   23.43
  -3  -5   2  884.61   21.87
  -3   5   2  925.04   24.27
   3  -5   2  910.08   21.92
  -3  -5   2  879.61   25.11
  -3  -5  -2  908.75   23.58
   3  -5  -2  918.79   22.69
   3   5   3  425.54   11.87
  -3  -5   3  423.32   10.76
  -3  -5   3  448.48   13.39
  -3  -5  -3  309.56    9.47
   3  -5  -3  437.80   11.47
   3  -5   4  526.57   15.71
   3   5  -4  476.97   11.92
   3   5   4  553.16   15.16
  -3   5   4  506.35   14.48
  -3  -5   4  528.12   13.07
  -3  -5   4  561.77   15.82
  -3  -5  -4  488.10   13.69
   3  -5  -4  549.92   14.29
  -3   5  -4  553.37   13.32
   3   5  -5   66.40    4.91
   3  -5   5   84.92   13.56
   3   5  -5   71.31    4.77
   3   5   5   94.79    7.74
  -3   5   5   76.95    6.43
  -3  -5   5   84.65    9.93
  -3  -5  -5   74.85    6.04
  -3   5  -5   88.63    6.14
   3  -5  -5   81.84    6.23
   3  -5   6  314.29    9.11
   3   5   6  416.87   11.03
  -3   5   6  297.80    9.10
  -3  -5   6  434.15   13.83
  -3  -5  -6  309.99    8.94
   3  -5  -6  404.41    9.99
   3  -5   7  542.55   13.85
   3   5   7  501.92   12.82
  -3   5   7  548.46   14.12
  -3  -5   7  546.74   13.88
  -3   5  -7  469.57   10.18
  -3  -5  -7  536.06   13.63
   3  -5  -7  526.01   12.87
   3  -5   8  207.02    9.63
   3   5   8  161.80    8.45
  -3   5   8  223.11   11.02
  -3  -5   8  163.55   16.22
  -3   5  -8  135.60    6.31
  -3  -5  -8  188.75    8.99
   3  -5  -8  159.93    8.30
   3  -5   9  936.47   37.18
   3   5   9 1008.99   40.13
  -3   5   9 1038.70   41.24
  -3   5  -9  900.88   34.80
  -3  -5  -9 1014.86   40.10
   3  -5  -9 1021.99   40.39
   3  -5  10  298.04   11.90
   3   5  10  241.62   21.75
  -3   5  10  275.55   11.06
  -3   5 -10  241.98   20.65
  -3  -5 -10  240.67   21.08
   3  -5 -10  244.91   21.47
   3  -5  11  720.58   24.31
   3   5  11  703.01   26.09
  -3   5  11  762.53   25.74
  -3   5 -11  609.16   19.43
  -3  -5 -11  761.40   25.59
   3  -5 -11  775.34   26.12
   3  -5  12   57.38    6.34
   3   5  12   63.22    6.29
  -3   5  12   37.62    6.30
  -3  -5 -12   43.08    4.99
   3  -5 -12   74.24    5.28
   3  -5  13    4.40    2.05
   3   5  13   16.88    5.84
  -3   5  13   -2.27    3.45
  -3  -5 -13    0.07    2.96
   3  -5 -13   18.26    4.01
   3  -5  14   49.19    8.11
   3   5  14   60.34    9.00
  -3   5  14   52.84    8.19
  -3  -5 -14   44.19    6.34
   3  -5 -14   55.29    7.43
   3  -5  15   98.49   16.24
   3   5  15   98.23   12.82
  -3   5  15   93.08   11.94
  -3  -5 -15   97.42   12.53
   3  -5 -15   95.07   12.71
   3  -5  16  172.17   21.67
   3   5  16  147.62   11.11
  -3   5  16  176.42   12.68
  -3  -5 -16  177.07   12.51
   3  -5 -16  170.65   12.36
   3  -5  17   27.62    5.88
   3   5  17   37.74    6.89
  -3   5  17   24.71    4.66
  -3  -5 -17   34.17    5.46
   3  -5 -17   51.73    6.85
   3  -5  18  200.54   24.73
   3   5  18  179.91   11.01
  -3   5  18  247.36   13.11
  -3  -5 -18  211.76   11.17
   3  -5 -18  218.16   12.65
   3  -5  19   49.86    9.05
   3   5  19   68.01    8.41
  -3   5  19   60.62    7.06
  -3  -5 -19   66.55    7.72
   3  -5 -19   77.06    9.10
   3  -5  20  168.52   22.37
   3   5  20  202.71   16.13
  -3   5  20  207.52   16.00
  -3  -5 -20  173.45   13.56
   3  -5 -20  216.36   17.05
   3  -5  21  147.26   27.56
   3   5  21  259.41   23.76
  -3   5  21  226.44   20.23
  -3  -5 -21  207.03   19.08
   3  -5 -21  290.47   26.36
   3  -5  22   62.31   12.90
   3   5  22  123.21   11.35
  -3   5  22   75.63    7.61
  -3  -5 -22   76.63    8.15
   3  -5 -22  139.30   12.79
   3   6   0  303.47    8.01
  -3  -6   0  265.19    7.11
  -3   6   0  312.98    9.16
  -3  -6   0  280.75   10.22
   3  -6   0  304.65    7.13
   3   6  -1   89.39    3.55
   3   6   1   64.27    3.20
  -3  -6   1   60.96    2.87
  -3   6   1   93.08    5.13
  -3  -6   1   64.69    9.72
   3  -6   1   92.91    2.78
  -3  -6  -1   84.27    4.83
   3  -6  -1   79.12    2.89
   3   6  -2  218.46    5.89
   3   6   2  172.15    5.61
   3  -6   2  208.76    5.20
  -3  -6   2  154.99   16.46
  -3  -6  -2  214.25    7.15
   3  -6  -2  154.89    4.40
   3   6  -3  243.62    6.19
   3   6   3  183.44    6.16
  -3   6   3  263.08    8.68
  -3  -6   3  165.47   19.07
   3  -6  -3  178.81    5.02
   3   6   4  415.93   10.78
  -3   6   4  491.36   13.10
  -3  -6   4  443.66   14.83
  -3  -6  -4  514.12   13.10
   3  -6  -4  439.14   10.52
  -3   6  -4  425.64    9.12
   3   6  -5  301.35   11.87
   3   6   5  261.22   11.65
  -3  -6   5  282.36   12.52
  -3  -6  -5  292.40   12.72
  -3   6  -5  280.95   10.99
   3  -6  -5  288.29   12.16
   3  -6   6  954.67   37.87
   3   6  -6  894.25   34.20
   3   6  -6  973.76   37.23
   3   6   6  905.95   35.99
  -3   6   6 1047.10   41.65
  -3  -6  -6  970.18   38.42
  -3   6  -6  925.48   35.53
   3  -6  -6  879.25   34.52
   3  -6   7  564.92   23.19
   3   6   7  584.25   23.97
  -3   6   7  521.20   21.82
  -3   6  -7  580.55   22.49
  -3  -6  -7  541.94   22.50
   3  -6  -7  567.25   22.92
   3  -6   8  325.40   12.38
   3   6   8  333.27   12.94
  -3   6   8  347.71   13.88
  -3  -6   8  337.22   13.00
  -3   6  -8  318.24   10.83
  -3  -6  -8  335.15   12.89
   3  -6  -8  333.64   12.37
   3  -6   9  342.71   13.34
   3   6   9  321.67   13.02
  -3   6   9  324.40   13.39
  -3  -6   9  299.12   11.73
  -3   6  -9  280.11    9.71
  -3  -6  -9  324.02   13.12
   3  -6  -9  311.92   11.96
   3  -6  10  270.03   12.80
   3   6  10  300.08   12.48
  -3   6  10  300.43   12.23
  -3  -6  10  296.79   16.63
  -3   6 -10  240.28   13.38
  -3  -6 -10  257.15   10.77
   3  -6 -10  302.38   11.29
   3  -6  11  124.62   23.85
   3   6  11  108.21   15.53
  -3   6  11  118.02   15.86
  -3  -6 -11  113.79   18.60
   3  -6 -11  117.49   15.59
   3  -6  12  197.58    8.47
   3   6  12  214.91    9.70
  -3   6  12  226.38   10.35
  -3  -6 -12  204.15    9.65
   3  -6 -12  220.74    9.97
   3  -6  13   84.81   15.81
   3   6  13   58.42    7.95
  -3   6  13   90.65   10.87
  -3  -6 -13   82.98   10.32
   3  -6 -13   70.30    8.76
   3  -6  14   29.94    5.49
   3   6  14   55.63    8.75
  -3   6  14   24.39    4.85
  -3  -6 -14   21.46    4.65
   3  -6 -14   44.41    6.86
   3  -6  15  164.23   18.12
   3   6  15  107.63    8.99
  -3   6  15  177.53   13.04
  -3  -6 -15  138.34   10.85
   3  -6 -15  115.51    9.67
   3  -6  16  227.50   26.72
   3   6  16  174.22   11.72
  -3   6  16  245.98   15.12
  -3  -6 -16  234.75   14.66
   3  -6 -16  251.19   15.47
   3  -6  17   83.49   13.05
   3   6  17   79.91    9.11
  -3   6  17   75.71    6.73
  -3  -6 -17   80.72    7.67
   3  -6 -17   71.81   11.20
   3  -6  18  410.52   35.42
   3   6  18  413.50   34.62
  -3   6  18  482.44   69.29
  -3  -6 -18  416.08   34.74
   3  -6 -18  500.16   72.10
   3  -6  19   73.35   14.60
  -3   6  19   72.81    7.16
  -3  -6 -19   91.10    9.49
   3  -6 -19   88.76    9.35
   3  -6  20  102.00   19.67
   3   6  20  123.44   10.16
  -3   6  20  129.98   10.18
  -3  -6 -20  147.26   11.41
   3  -6 -20  138.13   10.99
   3  -6  21   33.87    8.82
   3   6  21   84.33    8.73
  -3   6  21   36.81    8.09
  -3  -6 -21   34.68    7.89
   3  -6 -21   75.43    8.88
   3   7   0   59.06    4.12
  -3   7   0   61.93    5.81
  -3  -7   0   61.37    4.27
   3  -7   0   66.41    3.30
   3   7   1  163.86    7.94
   3   7  -1  188.01    8.26
  -3   7   1  204.91   10.39
  -3   7  -1  208.26   10.45
  -3  -7   1  169.01    8.90
   3  -7   1  186.63    7.74
  -3  -7  -1  195.29    9.65
   3  -7  -1  177.46    7.54
   3   7   2  140.43    7.41
   3   7  -2   98.18    4.95
  -3   7   2   91.76    6.07
  -3  -7   2  127.93    5.85
   3  -7   2  100.23    4.67
  -3  -7  -2  106.87    6.07
   3  -7  -2  146.69    6.57
  -3   7  -2  132.80    5.56
   3   7   3  514.55   21.23
   3   7  -3  452.25   17.97
  -3   7   3  392.23   17.05
  -3  -7   3  479.12   18.90
   3  -7   3  453.85   17.79
  -3  -7  -3  462.44   19.49
   3  -7  -3  511.83   20.33
  -3   7  -3  498.46   19.36
   3   7   4  436.13   18.21
   3   7  -4  444.82   17.62
  -3   7   4  469.11   19.87
   3  -7   4  413.79   16.08
  -3  -7   4  424.18   17.88
  -3  -7  -4  413.09   17.61
   3  -7  -4  418.62   16.94
  -3   7  -4  412.65   16.11
   3   7   5  104.71    9.88
   3   7  -5   61.84    5.64
  -3   7   5   71.63    7.57
  -3  -7   5  100.48   16.62
  -3  -7  -5   70.95    7.17
  -3   7  -5   97.43    8.32
   3  -7  -5  109.18    9.74
   3   7  -6  271.82   10.63
   3   7  -6  321.10   10.85
   3   7   6  349.01   13.42
  -3  -7   6  347.66   15.02
  -3  -7  -6  339.19   13.28
  -3   7  -6  344.87   11.62
   3  -7  -6  333.64   12.21
   3   7  -7  622.15   20.28
   3   7  -7  687.76   22.38
   3   7   7  675.24   24.02
  -3   7   7  698.29   25.02
  -3  -7   7  676.15   24.30
  -3  -7  -7  674.92   23.75
  -3   7  -7  611.34   20.22
   3  -7  -7  692.24   23.85
   3  -7   8  437.08   15.71
   3   7   8  365.93   14.09
  -3   7   8  437.20   16.25
  -3  -7   8  373.51   13.78
  -3   7  -8  330.92   10.82
  -3  -7  -8  453.72   31.59
   3  -7  -8  367.68   13.13
   3  -7   9 1481.27  156.53
   3   7   9 1538.36  162.50
  -3   7   9 1445.42   47.06
  -3  -7   9 1449.65   46.90
  -3  -7  -9 1417.71   46.14
   3  -7  -9 1425.14   45.73
   3  -7  10   40.69    9.52
   3   7  10   26.47    4.77
  -3   7  10   37.58    6.67
  -3  -7  10   31.23    6.22
  -3  -7 -10   57.96    9.08
   3  -7 -10   23.92    4.32
   3  -7  11  494.45   17.17
   3   7  11  527.09   18.43
  -3   7  11  516.35   18.28
  -3  -7  11  524.41   17.99
  -3  -7 -11  524.90   18.39
   3  -7 -11  516.44   17.46
   3  -7  12  176.24   10.09
   3   7  12  187.83   11.27
  -3   7  12  172.89   10.57
  -3  -7 -12  146.16    9.14
   3  -7 -12  183.02   10.30
   3  -7  13   19.06    4.11
   3   7  13   34.90    6.34
  -3   7  13   19.08    4.94
  -3  -7 -13   21.99    5.05
   3  -7 -13   59.52    8.20
   3  -7  14   18.56    3.94
   3   7  14   34.59    6.57
  -3   7  14   38.41    8.10
  -3  -7 -14   11.74    3.46
   3  -7 -14   29.24    5.23
   3  -7  15   89.53   16.24
   3   7  15  106.77   10.93
  -3   7  15  105.11   10.71
  -3  -7 -15   83.46    8.85
   3  -7 -15  104.76   10.51
   3  -7  16   38.55    8.42
   3   7  16   50.06    8.45
  -3   7  16   49.50    8.83
  -3  -7 -16   48.11    7.90
   3  -7 -16   57.57    9.29
   3  -7  17   16.46    5.41
   3   7  17   19.25    6.69
  -3   7  17   22.66    6.28
  -3  -7 -17   15.88    4.86
   3  -7 -17   10.49    4.03
   3  -7  18   74.79   13.46
   3   7  18   78.62    8.03
  -3   7  18   74.83    7.65
  -3  -7 -18   87.26    8.93
   3  -7 -18   77.38    7.91
   3  -7  19   54.63    9.60
   3   7  19   68.05    8.93
  -3   7  19   79.91    8.66
  -3  -7 -19   72.23    8.44
   3  -7 -19   86.39    9.06
   3  -7  20   29.94    9.36
   3   7  20   23.54    7.68
  -3   7  20   44.26    7.82
  -3  -7 -20   28.55    8.73
   3  -7 -20   32.93   10.15
   3  -7  21   96.95   24.20
   3   7  21  148.86   20.66
  -3  -7 -21  157.12   21.53
   3  -7 -21  203.69   28.50
   3   8   0  249.71   21.33
  -3   8   0  256.91   10.79
   3  -8   0  253.95   21.37
   3   8   1  321.36   12.36
   3   8  -1  297.05   11.01
  -3   8   1  331.59   13.64
  -3   8  -1  301.57   13.32
  -3  -8   1  283.89   13.41
   3  -8   1  333.47   11.53
   3  -8  -1  297.52   10.60
  -3   8  -1  279.69    9.85
   3   8   2  144.27   12.92
   3   8  -2  103.93    9.34
  -3   8   2  130.59   12.51
  -3   8  -2  173.57   15.97
  -3  -8   2  156.55   20.16
   3  -8   2  136.53   13.63
  -3  -8  -2  120.66   11.14
   3  -8  -2  142.87   12.43
  -3   8  -2  137.65   11.75
   3   8   3  660.55   22.23
   3   8  -3  677.52   21.74
  -3   8   3  797.32   27.11
  -3   8  -3  676.12   23.56
   3  -8   3  758.49   24.13
  -3  -8   3  652.05   22.14
  -3  -8  -3  720.28   24.12
   3  -8  -3  654.32   21.29
  -3   8  -3  623.17   19.69
   3   8   4  465.28   16.63
   3   8  -4  361.88   12.05
  -3   8   4  409.09   15.55
   3  -8   4  385.36   12.36
  -3  -8   4  424.15   17.35
  -3  -8  -4  390.18   14.29
   3  -8  -4  447.10   14.99
  -3   8  -4  447.31   14.34
   3   8  -5   32.96    4.60
   3   8   5   31.28    3.22
   3   8  -5   47.73    2.62
  -3   8   5   64.08    5.82
   3  -8   5   60.94    3.84
  -3  -8   5   24.18    4.44
  -3  -8  -5   44.44    3.65
   3  -8  -5   39.02    3.69
  -3   8  -5   22.35    3.70
   3   8   6 1122.69   36.60
   3   8  -6 1120.68   34.89
  -3   8   6 1107.42   36.36
  -3  -8   6 1110.75   36.16
  -3  -8  -6 1077.83   35.21
   3  -8  -6 1109.35   35.40
   3   8   7  119.06   16.14
   3   8  -7   83.46   10.71
  -3   8   7   81.72   12.43
  -3  -8   7  127.07   22.05
  -3  -8  -7   93.77   12.87
   3  -8  -7  113.76   14.91
   3   8  -8  300.36    9.71
   3   8   8  384.23   14.83
  -3  -8   8  382.01   14.51
  -3  -8  -8  254.56   10.89
   3  -8  -8  361.80   13.15
   3   8   9  386.06   14.50
  -3   8   9  264.10   11.03
  -3  -8   9  342.74   13.04
  -3  -8  -9  249.75   10.81
   3  -8  -9  324.53   11.73
   3   8  10   20.02    4.45
  -3   8  10   55.66    7.95
  -3  -8  10   26.66    5.99
  -3  -8 -10   49.08    7.62
   3  -8 -10   23.09    4.21
   3  -8  11  150.76    8.83
   3   8  11  162.00   10.14
  -3   8  11  157.53   10.23
  -3  -8  11  160.90   20.25
  -3  -8 -11  150.89    9.45
   3  -8 -11  168.63    9.84
   3  -8  12   92.42   16.73
   3   8  12   29.13    5.26
  -3   8  12  104.50    9.24
  -3  -8  12   35.30    5.72
  -3  -8 -12   93.18   12.29
   3  -8 -12   53.17    7.63
   3  -8  13  138.73   17.60
   3   8  13   97.72   10.21
  -3   8  13  128.38   10.35
  -3  -8 -13  118.05    8.65
   3  -8 -13  104.94   13.13
   3  -8  14   96.39   13.60
   3   8  14   68.03   10.76
  -3   8  14  119.22    9.39
  -3  -8 -14  112.57    8.71
   3  -8 -14   70.47   10.68
   3  -8  15   52.92   12.96
   3   8  15   71.17    6.57
  -3   8  15   46.89    8.24
  -3  -8 -15   67.79    6.79
   3  -8 -15   58.09    9.18
   3  -8  16   85.22   14.53
   3   8  16  108.29   11.75
  -3   8  16   91.02   10.20
  -3  -8 -16  117.11   12.26
   3  -8 -16   93.47   14.88
   3  -8  17    8.25    2.83
   3   8  17   17.54    6.97
  -3   8  17   12.42    6.43
  -3  -8 -17   10.37    4.07
   3  -8 -17   15.88    4.47
   3  -8  18  304.22   26.47
   3   8  18  334.14   80.88
  -3   8  18  288.26   19.20
  -3  -8 -18  308.53   27.20
   3  -8 -18  336.73   35.87
   3  -8  19   83.30   19.10
   3   8  19   96.63    9.76
  -3   8  19  114.46   11.91
  -3  -8 -19  126.53   11.57
   3  -8 -19  108.23   19.74
   3  -8  20   47.42   11.96
   3   8  20   89.47   13.33
  -3   8  20   81.67   13.12
  -3  -8 -20   58.36    9.71
   3  -8 -20   70.00   11.25
   3   9   0  289.65   10.81
  -3   9   0  276.94   11.96
  -3  -9   0  288.00   22.18
   3  -9   0  264.33    9.31
   3   9  -1   36.47    5.62
   3   9   1   28.08    5.12
  -3   9   1   45.08    8.88
  -3   9  -1   25.99    5.29
   3  -9   1   36.99    6.73
  -3  -9   1   26.15    6.24
  -3  -9  -1   33.35    5.22
   3  -9  -1   32.63    4.77
   3   9   2  113.28   15.00
   3   9  -2  135.09   14.89
  -3   9   2  133.60   15.83
  -3   9  -2  126.41   14.93
   3  -9   2  122.02   15.66
  -3  -9   2  120.75   22.06
  -3  -9  -2  129.22   14.72
   3  -9  -2  109.82   15.60
   3   9   3   87.48   12.21
   3   9  -3  105.94   13.76
  -3   9   3  131.46   15.33
  -3   9  -3   88.67   12.52
   3  -9   3  126.23   14.39
  -3  -9   3   82.43   16.22
  -3  -9  -3  108.79   14.49
   3  -9  -3   91.52   11.98
   3   9   4  108.98   15.14
   3   9  -4  126.84   13.82
  -3   9   4  138.11   17.08
  -3   9  -4  101.84   14.36
   3  -9   4  123.03   16.25
  -3  -9   4   92.04   15.40
   3  -9  -4   87.55   11.53
   3   9   5   22.39    4.61
   3   9  -5   51.20    5.93
  -3   9   5   57.73    8.69
  -3   9  -5   28.02    5.46
   3  -9   5   52.64    6.79
  -3  -9   5   31.64    4.94
   3  -9  -5   32.61    4.56
   3   9   6  162.67    8.00
   3   9  -6  158.75    5.86
  -3   9   6  130.12   16.50
  -3  -9   6  226.86   20.34
  -3  -9  -6  169.67    8.03
   3  -9  -6  179.87    7.40
   3   9   7  173.68    8.37
   3   9  -7  212.80    7.16
  -3   9   7  214.53   10.11
  -3  -9   7  195.95   22.61
  -3  -9  -7  211.59   14.47
   3  -9  -7  163.12    7.26
   3   9   8  169.83   10.31
  -3   9   8  153.59    9.89
  -3  -9   8  191.22   19.27
  -3  -9  -8  156.81    9.62
   3  -9  -8  178.35    9.70
   3   9   9  602.13   37.57
  -3  -9   9  560.92   34.65
  -3  -9  -9  544.99   34.02
   3  -9  -9  542.16   33.36
   3   9  10   70.74   10.55
  -3   9  10   58.39    9.82
  -3  -9  10   67.82   12.46
  -3  -9 -10   45.89    7.30
   3  -9 -10   61.23    8.25
   3   9  11  156.80   11.10
  -3   9  11  159.81   11.27
  -3  -9  11  168.46   19.57
  -3  -9 -11  164.32   10.97
   3  -9 -11  162.41   11.07
   3   9  12   77.05    8.05
  -3   9  12   50.57   10.18
  -3  -9  12   47.04    9.74
  -3  -9 -12   55.23   10.37
   3  -9 -12   65.67   10.83
   3   9  13   67.69    6.47
  -3   9  13   62.19   10.00
  -3  -9 -13   44.34    8.05
   3  -9 -13   76.59    6.61
   3   9  14   94.12   10.43
  -3   9  14   62.87    7.40
  -3  -9 -14   57.76    7.49
   3  -9 -14   75.12    8.71
   3   9  15  128.99   11.59
  -3   9  15   88.53    8.86
  -3  -9 -15   63.55   10.95
   3  -9 -15  104.77    9.03
   3  -9  16  202.91   13.64
   3   9  16  225.94   15.65
  -3   9  16  222.54   15.45
  -3  -9 -16  204.76   14.51
   3  -9 -16  222.89   15.37
   3  -9  17    7.41    2.80
   3   9  17    1.90    4.40
  -3   9  17    7.83    4.33
  -3  -9 -17    6.26    4.07
   3  -9 -17    1.03    3.32
   3  -9  18   96.41   18.01
   3   9  18  127.14   11.60
  -3   9  18  145.09   12.42
  -3  -9 -18  124.37   10.77
   3  -9 -18  122.69   10.90
   3  10   0    4.66    2.89
  -3  10   0    8.59    4.46
  -3 -10   0    5.86    2.30
   3 -10   0    1.79    1.64
   3  10   1  725.95   33.89
   3  10  -1  701.68   32.61
  -3  10   1  718.87   34.78
  -3  10  -1  799.41   37.81
   3 -10   1  706.04   32.36
  -3 -10   1  701.55   33.16
  -3 -10  -1  717.85   34.16
   3 -10  -1  736.25   33.76
   3  10   2  103.06   12.67
   3  10  -2  124.86    7.04
  -3  10   2  150.84   11.25
  -3  10  -2  124.10    8.74
   3 -10   2  119.61    9.43
  -3 -10   2   91.56   15.03
  -3 -10  -2  141.50    9.37
   3 -10  -2   98.50   11.89
   3  10   3  132.00    8.00
   3  10  -3  167.74    8.76
  -3  10   3  195.11   12.16
  -3  10  -3  147.62    9.59
   3 -10   3  191.71    9.36
  -3 -10   3  156.97   21.48
  -3 -10  -3  151.73    9.18
   3 -10  -3  145.18    7.92
   3  10   4  135.29    8.41
   3  10  -4  117.99   14.10
  -3  10   4  109.21   14.29
  -3  10  -4  151.13    9.80
   3 -10   4  111.87   13.68
  -3 -10   4  137.33   18.87
  -3 -10  -4  136.27    8.44
   3 -10  -4  133.68    7.41
   3  10   5   30.23    5.30
   3  10  -5   17.26    2.99
  -3  10   5   21.40    5.63
  -3  10  -5   37.71    7.17
   3 -10   5   15.66    3.63
  -3 -10   5   23.83    4.49
  -3 -10  -5    8.44    3.36
   3 -10  -5   24.60    4.09
   3  10   6  433.19   27.19
  -3  10   6  405.91   26.09
  -3  10  -6  440.51   28.17
  -3 -10   6  419.04   26.36
  -3 -10  -6  386.99   24.52
   3 -10  -6  400.20   24.77
   3  10   7  188.17   13.27
  -3  10   7  135.61   10.77
  -3  10  -7  183.99   13.46
  -3 -10   7  182.00   21.76
  -3 -10  -7  133.94   10.44
   3 -10  -7  158.87   11.02
   3  10   8  258.08   15.96
  -3  10   8  211.24   13.99
  -3 -10   8  233.46   14.78
   3 -10  -8  264.77   15.44
   3  10   9  262.43   16.79
  -3  10   9  250.30   16.41
  -3 -10   9  276.48   17.40
   3 -10  -9  224.83   14.03
   3  10  10   45.15    9.06
  -3  10  10   31.90    7.44
  -3 -10  10   45.70    9.65
  -3 -10 -10   29.09    5.97
   3 -10 -10   58.45   10.73
   3  10  11   87.94    7.01
  -3  10  11   70.57    7.44
  -3 -10  11   82.32    9.68
  -3 -10 -11   86.20    7.05
   3 -10 -11   87.54    6.99
   3  10  12   21.19    7.36
  -3  10  12   13.63    7.24
  -3 -10  12   11.05    3.00
  -3 -10 -12   18.30    5.48
   3 -10 -12   14.96    4.16
   3  10  13  104.59    9.97
  -3  10  13  120.08   10.77
  -3 -10 -13  127.58   12.54
   3 -10 -13   97.60    8.51
   3  10  14   34.38    6.01
  -3  10  14   50.06    8.22
  -3 -10 -14   38.14    6.90
   3 -10 -14   25.67    5.64
   3  10  15   16.02    6.69
  -3  10  15   10.73    5.16
  -3 -10 -15   -0.03    4.02
   3 -10 -15   14.73    5.37
   3  10  16   40.60    7.16
  -3  10  16   31.54    9.13
  -3 -10 -16   38.95    6.38
   3  10  17   29.49    6.70
  -3  10  17   19.04    5.50
  -3 -10 -17   17.44    4.91
   3  11   0   16.80    4.21
  -3  11   0   22.78    5.51
  -3 -11   0   18.62    3.57
   3 -11   0   13.19    2.04
   3  11   1  139.65    8.98
   3  11  -1  164.60   10.29
  -3  11   1  180.47   14.17
  -3  11  -1  171.83   12.23
   3 -11   1  143.29   13.91
  -3 -11   1  148.89   16.89
  -3 -11  -1  178.41   25.36
   3 -11  -1  171.19   10.18
   3  11   2   99.82    9.81
   3  11  -2  116.15    8.22
  -3  11   2  123.29    9.90
  -3  11  -2  117.87    9.37
   3 -11   2  100.83   11.57
  -3 -11   2  123.24   15.56
  -3 -11  -2  104.16   10.40
   3 -11  -2  109.71    9.81
   3  11   3  118.21    9.04
   3  11  -3  103.24    9.26
  -3  11   3  121.49   10.31
  -3  11  -3  149.82   10.95
  -3 -11   3  115.59   14.51
  -3 -11  -3  119.03    9.30
   3 -11  -3  110.27    9.74
   3  11   4  176.22   11.37
   3  11  -4  126.64    7.77
  -3  11   4  154.69   11.49
  -3  11  -4  185.50   12.52
  -3 -11   4  144.54   20.35
  -3 -11  -4  136.95    9.76
   3 -11  -4  149.47    9.24
   3  11   5  107.57    8.49
  -3  11   5   97.83    8.80
  -3  11  -5  131.22   10.96
  -3 -11   5   95.13   12.62
  -3 -11  -5   99.35    8.14
   3 -11  -5  100.81    7.26
   3  11   6   23.75    6.07
  -3  11   6   14.42    5.18
  -3  11  -6   20.68    5.31
  -3 -11   6   24.81    5.88
  -3 -11  -6   11.75    4.35
   3 -11  -6   16.22    3.78
   3  11   7   11.75    3.76
  -3  11   7   16.24    4.93
  -3  11  -7   23.13    5.45
  -3 -11   7   18.53    5.14
  -3 -11  -7   19.44    5.28
   3 -11  -7   14.06    3.20
   3  11   8    7.59    3.64
  -3  11   8   58.32    9.57
  -3  11  -8   22.45    6.08
  -3 -11   8   21.40    4.34
  -3 -11  -8   35.85    7.14
   3 -11  -8   17.63    3.84
   3  11   9   12.73    3.74
  -3  11   9   24.36    7.03
  -3  11  -9   26.20    7.16
  -3 -11   9   26.34    6.54
  -3 -11  -9   29.51    7.48
   3 -11  -9   19.28    4.71
   3  11  10   96.24   10.29
  -3  11  10  128.84   12.86
  -3  11 -10  101.77   11.58
  -3 -11  10   84.45   13.49
  -3 -11 -10  132.73   12.91
   3 -11 -10   86.50    8.47
   3  11  11   51.00    9.00
  -3  11  11   65.27   10.87
  -3 -11  11   60.40   14.39
  -3 -11 -11   56.24    9.67
   3 -11 -11   48.41    8.06
   3  11  12   35.14    7.78
  -3 -11  12   31.26    6.24
   3 -11 -12   30.24    5.24
   3  11  13  125.56   13.18
  -3  11  13  107.97   12.08
  -3 -11  13  109.12   11.62
   3 -11 -13  116.95   11.69
   3  11  14  150.08   13.35
  -3 -11 -14  144.03   12.37
   3 -11 -14  124.09   10.25
   3  11  15    3.44    3.97
  -3  11  15    2.64    4.35
  -3 -11 -15    8.89    4.58
   3 -11 -15    9.89    4.54
   3  12   0   23.06    5.06
  -3  12   0   26.20    6.95
  -3 -12   0   33.99    8.31
   3  12   1  106.76    7.41
   3  12  -1   83.94    5.68
  -3  12   1   99.93    8.53
  -3  12  -1   95.04    7.59
  -3 -12   1   97.24   12.58
  -3 -12  -1   91.73   11.69
   3  12   2   69.01    5.28
   3  12  -2   96.77    6.45
  -3  12   2  106.99    8.52
  -3  12  -2   74.23    6.74
  -3 -12   2   67.43   16.89
  -3 -12  -2   89.96    6.89
   3 -12  -2   92.74    5.73
   3  12   3   12.96    5.22
  -3  12   3   27.50    8.43
  -3  12  -3    9.54    4.59
  -3 -12   3    8.14    2.94
  -3 -12  -3   11.79    3.87
   3 -12  -3    4.52    2.88
   3  12   4   55.02    7.64
  -3  12   4   35.27    8.41
  -3  12  -4   60.31    7.74
  -3 -12   4   63.22   11.37
  -3 -12  -4   42.82    9.04
   3 -12  -4   49.26    7.77
   3  12   5  137.58   12.84
  -3  12   5  121.60   13.11
  -3  12  -5  166.21   16.28
  -3 -12   5  130.36   19.93
  -3 -12  -5  117.53   11.40
   3 -12  -5  143.05   12.53
   3  12   6  116.23   11.38
  -3  12   6  117.94   11.84
  -3  12  -6  123.12   12.07
  -3 -12   6  112.74   19.66
  -3 -12  -6  105.26   10.34
   3 -12  -6  116.16   10.42
   3  12   7   80.74    7.83
  -3  12   7   64.27   11.58
  -3  12  -7   74.86    7.69
  -3 -12   7   69.21   12.43
  -3 -12  -7   63.72   10.75
   3 -12  -7   68.47   10.57
   3  12   8   88.24    8.40
  -3  12   8   79.49    9.16
  -3  12  -8  114.69   10.38
  -3 -12   8   75.63   15.14
  -3 -12  -8   73.69    7.66
   3 -12  -8   78.62    7.77
   3  12   9   21.60    6.34
  -3  12   9   17.91    4.62
  -3  12  -9   15.06    4.54
  -3 -12   9   26.56    6.07
  -3 -12  -9   16.76    5.07
   3 -12  -9   14.12    3.96
   3  12  10    8.90    4.51
  -3  12  10   24.27    6.93
  -3  12 -10   19.23    5.79
  -3 -12  10    7.24    2.94
   3 -12 -10   16.98    4.92
   3  12  11  110.28   11.54
  -3  12  11  133.01   13.69
  -3  12 -11  106.46   11.93
  -3 -12  11  109.77   16.16
  -3 -12 -11  133.31   12.92
   3 -12 -11  101.07   10.11
   3  12  12    3.47    3.83
  -3  12  12   35.31    9.51
  -3  12 -12   15.59    5.22
  -3 -12  12   21.79    6.75
  -3 -12 -12   38.02    6.42
   3 -12 -12   14.90    5.05
   3  12  13   89.65   13.64
  -3  12 -13   97.81   14.42
  -3 -12  13  112.58   15.69
  -3 -12 -13   90.71   14.04
   3 -12 -13   88.74   12.58
   3  13   0    9.84    2.86
  -3  13   0   27.22    6.28
  -3 -13   0   19.57    4.75
   3  13   1   25.74    5.22
  -3  13   1   21.46    5.90
  -3  13  -1   26.58    6.28
  -3 -13   1   18.33    5.00
  -3 -13  -1   18.40    3.96
   3  13   2   45.10    7.00
  -3  13   2   47.51    8.58
  -3  13  -2   62.80    9.48
  -3 -13   2   56.47   11.54
  -3 -13  -2   52.12   14.74
   3  13   3    8.00    4.20
  -3  13   3   13.63    6.45
  -3  13  -3    6.16    4.02
  -3 -13   3    3.08    3.00
  -3 -13  -3    2.55    3.04
   3  13   4   90.01    7.92
  -3  13   4  105.37    9.67
  -3  13  -4  103.68    9.23
  -3 -13   4   79.24   15.84
  -3 -13  -4   94.03    8.48
   3  13   5   23.22    6.36
  -3  13   5   37.52    9.86
  -3  13  -5   32.78    8.37
  -3 -13   5   31.77    7.50
  -3 -13  -5   27.27    7.06
   3  13   6   44.31    6.31
  -3  13   6   59.97    8.45
  -3  13  -6   30.93    7.83
  -3 -13   6   33.51    7.81
  -3 -13  -6   19.52    5.62
   3  13   7  101.75   11.66
  -3  13   7   90.37   10.59
  -3  13  -7   99.05   12.03
  -3 -13   7   75.57   16.30
  -3 -13  -7  104.36   10.96
   3  13   8  145.59   13.22
  -3  13   8  129.87   12.94
  -3  13  -8  112.54   10.57
  -3 -13   8  102.51   19.48
  -3 -13  -8  130.33   11.69
   3 -13  -8  108.05    9.11
   3  13   9   31.54    7.75
  -3  13   9   17.29    7.10
  -3  13  -9   27.81    7.13
  -3 -13   9   17.25    5.48
  -3 -13  -9   23.30    6.18
   3 -13  -9   17.79    4.01
   3  13  10   31.42    6.68
  -3  13  10   30.84    7.94
  -3  13 -10   27.03    6.60
  -3 -13  10   34.74    8.74
  -3 -13 -10   37.24    7.33
   3 -13 -10   20.79    4.92
  -3  14   0   90.93   10.09
  -3 -14   0   74.99   14.27
  -3  14   1   86.20    8.86
  -3  14  -1  123.39   12.67
  -3 -14   1   61.97   15.43
  -3 -14  -1   81.43   13.29
   3  14   2   82.53   11.81
  -3  14   2  128.31   18.07
  -3  14  -2   97.37   14.14
  -3 -14   2   77.09   19.30
  -3 -14  -2   79.32   16.53
   3  14   3    0.43    2.88
  -3  14   3    6.81    4.74
  -3  14  -3    1.06    3.72
  -3 -14   3    6.06    3.21
  -3 -14  -3    9.13    4.20
   3  14   4   16.28    5.66
  -3  14   4   41.73    7.98
  -3  14  -4   23.47    6.67
  -3 -14   4   30.90    6.64
  -3 -14  -4   37.14    7.07
   3  14   5   56.12    8.96
  -3  14   5   53.20    9.17
  -3  14  -5   39.58    7.45
  -3 -14   5   44.83   10.63
  -3 -14  -5   51.95    8.66
   4   0   0 2590.98   29.77
  -4   0   0 2512.51   28.76
  -4   0   0 2694.64   30.30
   4   0   0 2563.63   28.36
   4   0   1  186.89    8.98
  -4   0   1  211.08   10.66
  -4   0   1  219.90    5.35
  -4   0  -1  188.00    4.87
   4   0  -1  205.88    3.87
   4   0   1  199.81    3.86
   4   0  -2 1326.83   16.24
   4   0   2 1263.78   16.47
  -4   0   2 1288.40   15.79
  -4   0   2 1295.73   15.64
   4   0  -2 1304.56   15.59
  -4   0  -2 1214.63   14.91
   4   0   2 1290.48   15.25
   4   0  -3  419.23    7.27
  -4   0   3  365.73   12.10
   4   0  -3  370.35    6.65
  -4   0  -3  380.06    5.88
   4   0   3  383.37    5.83
  -4   0   4   10.20    2.09
   4   0   4    8.13    2.01
  -4   0  -4    7.04    1.38
   4   0   4    6.56    1.84
  -4   0   5    4.42    0.83
  -4   0   5    0.69    1.69
  -4   0  -5   -0.89    1.51
   4   0   5   -0.11    1.26
  -4   0   6  383.76   10.95
   4   0   6  426.17   16.31
  -4   0   6  424.62   12.28
  -4   0  -6  433.21   11.48
   4   0   6  409.54   10.96
  -4   0   7  350.17    9.67
   4   0   7  389.59   11.94
  -4   0   7  363.35    9.86
  -4   0  -7  382.76   10.46
   4   0   7  348.26    9.50
  -4   0   8    3.70    1.00
   4   0   8    4.91    2.89
  -4   0   8    2.12    1.46
  -4   0  -8    3.20    1.61
  -4   0   9  261.48    6.93
   4   0   9  285.09    8.97
  -4   0   9  274.32    7.09
  -4   0  -9  257.58    8.85
   4   0  10 1494.80   58.66
  -4   0  10 1468.64   56.61
  -4   0 -10 1499.54   58.08
   4   0  11    4.11    3.60
  -4   0  11    0.06    1.76
  -4   0 -11    3.01    2.17
   4   0  12 2126.88   70.51
  -4   0  12 2222.70   72.36
  -4   0 -12 2275.75   74.48
  -4   0  13    6.74    2.37
  -4   0 -13    1.29    2.25
   4   0  14  560.50   20.18
  -4   0  14  586.41   19.40
  -4   0 -14  560.83   18.99
   4   0  15  814.81   27.14
  -4   0  15  839.06   26.17
  -4   0 -15  803.29   25.57
   4   0  16   16.19    5.69
  -4   0  16   28.14    4.97
  -4   0 -16   24.36    4.30
   4   0  17   76.62   10.73
  -4   0  17   63.65    8.06
  -4   0 -17   65.04    9.14
   4   0  18  328.87   19.62
  -4   0  18  317.54   17.77
  -4   0 -18  361.88   20.68
   4   0  19   37.24    7.69
  -4   0 -19   24.15    5.27
   4   0  20   67.47    8.50
  -4   0 -20   51.18    6.53
   4   0  21    8.76    4.34
  -4   0 -21    4.58    3.39
   4   0  22   61.38    7.70
  -4   0 -22   76.24    8.28
   4   0  23    2.25    5.21
  -4   0 -23    4.06    4.50
   4  -1   0  606.51    9.51
  -4  -1   0  622.22    8.97
  -4   1   0  641.37    8.20
   4  -1   0  630.50    8.07
   4   1   0  627.09    8.86
   4  -1  -1  694.92   13.15
   4  -1   1  593.80    9.28
   4   1   1  695.68   10.61
  -4  -1   1  639.26    8.99
  -4   1   1  575.50    9.56
   4  -1  -1  685.92    9.12
   4   1  -1  578.91    8.38
   4  -1   1  620.00    7.92
   4   1   1  680.89    9.38
   4  -1  -2  400.45    6.85
   4   1  -2  356.08    6.66
   4   1   2  423.63    7.53
  -4  -1   2  414.13    6.71
  -4  -1   2  425.68    8.09
  -4   1  -2  400.77    5.61
   4  -1  -2  389.07    6.97
  -4  -1  -2  399.86    6.94
   4   1  -2  350.50    5.85
   4   1   2  432.77    6.80
   4  -1   2  387.68    5.46
   4   1  -3 2733.33   30.31
  -4  -1   3 3066.89   33.73
  -4   1  -3 3005.04   32.55
  -4  -1  -3 2858.86   31.93
   4   1   3 3065.84   34.34
   4  -1   3 2768.08   29.91
  -4   1   4  106.11    9.77
  -4  -1   4  139.18   10.03
   4   1   4  147.90   10.53
  -4  -1   4  133.81    9.41
   4  -1  -4  148.10   13.25
  -4   1  -4  134.63    9.10
  -4  -1  -4  125.51    8.76
   4   1   4  151.93   10.38
   4  -1   4  110.93    7.53
  -4   1   5  706.03   17.85
   4  -1   5  796.94   21.31
  -4  -1   5  792.84   19.76
   4   1   5  796.45   21.19
  -4   1   5  778.55   19.93
  -4  -1   5  703.94   21.60
  -4   1  -5  802.53   19.95
  -4  -1  -5  795.91   20.27
   4   1   5  677.72   17.30
   4  -1   5  751.74   18.65
  -4   1   6   42.70    5.56
  -4  -1   6   80.15    5.76
   4  -1   6   62.38   10.44
   4   1   6   85.42    7.61
  -4   1   6   52.99    4.49
  -4  -1   6   78.48    5.64
  -4   1  -6   83.40    5.86
  -4  -1  -6   55.61    4.45
   4   1   6   66.48    4.98
  -4   1   7  265.03   17.75
  -4  -1   7  278.62   18.39
   4  -1   7  278.12   19.18
   4   1   7  293.66    9.65
  -4  -1   7  274.10   18.12
  -4   1   7  302.66    8.79
  -4  -1  -7  292.60    8.64
  -4   1  -7  266.96   17.74
  -4   1   8   71.06    6.26
  -4  -1   8   52.08    5.30
   4  -1   8   89.53   13.03
   4   1   8   72.75    3.93
  -4  -1   8   65.37    2.55
  -4   1   8   96.11    4.21
  -4  -1  -8   95.65    4.26
  -4   1  -8   59.33    2.85
  -4  -1   9  797.19   17.07
   4  -1   9  959.28   22.55
   4   1   9  807.02   19.35
  -4  -1   9  841.10   18.07
  -4   1   9  971.40   21.45
  -4  -1  -9  908.87   20.40
  -4   1  -9  827.50   18.33
  -4  -1  10   51.48    5.98
   4  -1  10   91.60   12.06
   4   1  10   61.51    5.05
  -4  -1  10   69.60    3.67
  -4   1  10   91.24    4.93
  -4  -1 -10   79.95    4.71
  -4   1 -10   66.07    3.83
  -4  -1  11   32.78    5.12
   4   1  11   35.58    5.14
  -4  -1  11   51.69    4.83
  -4   1  11   32.68    3.92
  -4  -1 -11   31.13    3.96
  -4   1 -11   49.61    5.00
   4  -1  12  248.96   21.94
   4   1  12  245.43   21.39
  -4  -1  12  260.36    9.25
  -4   1  12  259.62    9.83
  -4  -1 -12  254.20   21.82
  -4   1 -12  279.40   10.40
   4  -1  13  276.22   11.63
   4   1  13  293.74   11.93
  -4  -1  13  291.23    9.88
  -4   1  13  271.13    9.97
  -4  -1 -13  298.52   11.20
  -4   1 -13  310.74   11.45
   4  -1  14   40.56    7.95
  -4  -1  14   20.03    3.09
  -4   1  14   26.56    4.51
  -4  -1 -14   29.49    5.15
  -4   1 -14   19.57    3.67
   4  -1  15  833.11   27.72
   4   1  15  623.90   21.37
  -4  -1  15  644.33   20.06
  -4   1  15  805.35   25.41
  -4  -1 -15  804.96   25.84
  -4   1 -15  660.92   21.31
   4  -1  16   74.21   17.00
   4   1  16   82.62   10.87
  -4  -1  16   60.46   11.43
  -4   1  16   49.15    6.69
  -4  -1 -16   66.40    8.85
  -4   1 -16   79.83   10.59
   4  -1  17  150.23   20.31
   4   1  17  119.77    9.53
  -4   1  17  136.76    9.59
  -4  -1 -17  155.01   10.80
  -4   1 -17  135.53    9.92
   4  -1  18   17.98    4.36
   4   1  18   17.83    6.61
  -4  -1 -18   33.39    7.10
  -4   1 -18   16.86    4.10
   4  -1  19  181.47   10.88
   4   1  19  162.09   10.20
  -4   1  19  155.22    8.25
  -4  -1 -19  156.93    8.90
  -4   1 -19  175.15    9.37
   4  -1  20    0.82    3.96
   4   1  20    3.77    3.97
  -4  -1 -20   14.86    4.34
  -4   1 -20   18.17    5.50
   4  -1  21  156.63   23.94
   4   1  21  207.00   14.75
  -4  -1 -21  178.79   12.48
  -4   1 -21  205.38   13.74
   4  -1  22    5.32    2.54
   4   1  22    8.05    4.67
  -4  -1 -22   12.60    3.49
  -4   1 -22   10.53    4.78
   4  -1  23   10.33    4.43
   4   1  23   10.15    5.81
  -4  -1 -23    2.24    3.41
  -4   1 -23    8.15    3.82
   4   2   0 8231.30  534.21
  -4  -2   0 8385.94  544.19
  -4  -2   0 8709.87  565.30
   4  -2   0 8809.33  571.41
   4  -2  -1  602.16   10.09
   4  -2   1  607.39   12.74
   4   2  -1  641.98   11.12
  -4  -2   1  617.34    8.76
  -4  -2  -1  614.70    9.07
  -4  -2   1  648.36   11.46
   4  -2  -1  600.45    8.45
  -4  -2  -1  618.66    9.65
   4  -2   1  640.90    7.70
   4   2  -2 1243.73   14.89
   4   2   2 1171.24   15.48
  -4  -2   2 1165.39   14.13
  -4   2  -2 1232.31   13.55
  -4  -2   2 1211.79   15.71
   4  -2  -2 1185.22   13.81
  -4  -2  -2 1249.90   15.85
   4  -2   2 1321.35   14.68
   4   2  -3   22.23    2.88
   4  -2   3   29.40    4.36
   4   2   3   16.31    3.00
  -4  -2   3   17.30    1.93
   4  -2  -3   13.78    2.44
  -4  -2   3   17.54    2.62
  -4   2  -3   16.77    2.30
  -4  -2  -3   12.39    1.76
   4  -2   3   22.15    2.23
   4  -2   4  433.38   12.48
   4   2   4  321.23    9.66
  -4  -2   4  366.41    9.57
  -4  -2   4  359.62   12.07
   4  -2  -4  319.90    8.95
  -4   2  -4  325.03    8.51
   4  -2   5  235.19   17.65
   4   2   5  233.37   16.20
  -4  -2   5  272.68   17.94
  -4   2   5  240.77   16.39
   4  -2  -5  241.03   16.22
  -4  -2   5  275.11   18.66
  -4   2  -5  277.98   18.24
  -4  -2  -5  245.78   16.68
   4  -2   6   81.32   10.56
  -4  -2   6  129.45    8.65
   4   2   6  156.19   11.35
  -4  -2   6  136.59    9.12
  -4   2   6   81.87    6.66
  -4  -2   6  165.38   18.09
  -4   2  -6  140.01    9.37
  -4  -2  -6   77.46    6.03
   4  -2   7  181.31    6.97
  -4  -2   7  201.70    4.73
   4   2   7  207.58    7.10
  -4  -2   7  202.74    4.70
  -4   2   7  181.51    5.80
  -4  -2   7  209.94    6.62
  -4  -2  -7  192.82    6.76
  -4   2  -7  201.49    5.00
   4  -2   8   53.58    8.85
  -4  -2   8   14.30    1.65
   4   2   8   25.68    3.31
  -4  -2   8   15.36    1.06
  -4   2   8   36.29    3.42
  -4  -2  -8   34.16    3.01
  -4   2  -8   20.79    1.60
  -4  -2   9   48.09    3.87
   4  -2   9   82.35   12.99
   4   2   9   40.75    3.78
  -4  -2   9   48.18    2.29
  -4   2   9   62.19    4.05
  -4  -2  -9   70.40    4.58
  -4   2  -9   59.06    4.06
  -4  -2  10  865.91   33.24
   4   2  10  888.93   35.60
  -4  -2  10  877.89   33.68
  -4   2  10  896.05   35.31
  -4  -2 -10  834.78   34.23
  -4   2 -10  899.60   35.99
  -4  -2  11  307.40   10.40
   4  -2  11  369.12   26.46
   4   2  11  317.65   12.68
  -4  -2  11  327.39   10.95
  -4   2  11  332.91   12.40
  -4  -2 -11  355.61   15.56
  -4   2 -11  336.30   12.08
  -4  -2  12 1480.55   45.63
   4  -2  12 1646.67   52.77
   4   2  12 1569.38   50.41
  -4  -2  12 1526.08   47.00
  -4   2  12 1586.13   49.98
  -4  -2 -12 1577.36   49.96
  -4   2 -12 1691.42   52.82
   4  -2  13  163.25   19.81
   4   2  13  114.10   15.23
  -4  -2  13  138.57   14.79
  -4   2  13  203.32    8.44
  -4  -2 -13  160.98    7.46
  -4   2 -13  144.69    6.14
   4  -2  14  791.36   27.32
   4   2  14  774.20   26.74
  -4  -2  14  729.98   23.14
  -4   2  14  788.73   26.19
  -4  -2 -14  799.92   26.96
  -4   2 -14  782.63   26.50
   4  -2  15  149.49   16.21
   4   2  15  163.39    8.09
  -4   2  15  151.78    6.61
  -4  -2 -15  151.13    7.27
  -4   2 -15  154.30    6.64
   4  -2  16  151.49   18.54
  -4   2  16  134.27    7.86
  -4  -2 -16  151.49    9.05
  -4   2 -16  171.80    9.29
   4  -2  17  173.82   22.90
   4   2  17  209.73   13.31
  -4   2  17  168.42   10.53
  -4  -2 -17  174.11   11.26
  -4   2 -17  184.17   11.18
   4  -2  18   74.22   13.07
   4   2  18   70.87   11.55
  -4   2  18   74.34   11.09
  -4  -2 -18   79.98    6.72
  -4   2 -18   92.24    6.82
   4  -2  19   55.17   10.73
   4   2  19   56.52    9.46
  -4   2  19   67.24   12.94
  -4  -2 -19   50.72    8.19
   4  -2  20   -4.69    3.26
   4   2  20    1.83    3.63
  -4   2  20    0.70    2.42
  -4  -2 -20    2.17    3.36
  -4   2 -20    8.35    4.92
   4  -2  21    5.89    3.08
   4   2  21   18.32    6.04
  -4  -2 -21    8.04    3.64
  -4   2 -21   13.14    4.68
   4  -2  22   39.82   11.02
   4   2  22   48.84    6.80
  -4  -2 -22   63.47    7.53
  -4   2 -22   47.04    5.45
   4  -2  23   41.23   12.61
   4   2  23   29.58    7.89
  -4  -2 -23   46.69    7.69
  -4   2 -23   16.12    4.21
   4  -3   0  275.82   18.78
   4   3   0  271.57   18.19
  -4  -3   0  242.10   16.22
   4  -3   0  262.81   17.23
  -4  -3   0  246.97   16.79
   4  -3   1  571.10   15.60
   4   3  -1  522.57   14.42
   4   3   1  621.99   16.31
  -4  -3  -1  517.10   13.64
  -4  -3   1  606.88   15.51
   4  -3  -1  617.30   15.38
  -4  -3   1  601.99   16.55
  -4  -3  -1  512.00   14.18
   4  -3   1  565.77   13.73
   4  -3   2 1005.91   26.64
   4   3  -2  964.42   24.31
   4   3   2 1056.52   26.74
  -4  -3   2 1032.68   25.50
   4  -3  -2 1029.88   25.35
  -4  -3   2 1086.87   28.78
  -4  -3  -2  970.00   24.86
   4  -3   3 1167.32   29.97
   4   3  -3 1051.50   25.91
   4   3   3 1212.20   30.58
  -4  -3   3 1230.19   30.06
   4  -3  -3 1257.77   30.89
  -4  -3   3 1241.86   31.45
  -4  -3  -3 1063.53   27.02
   4   3  -4  148.95   10.14
   4  -3   4  174.25   19.77
   4   3   4  120.08    8.86
  -4  -3   4  122.04    8.20
  -4   3   4  177.82   12.76
   4  -3  -4  117.20    7.99
  -4  -3   4  132.73    9.68
  -4  -3  -4  174.48   12.19
   4  -3   5  274.70   18.88
   4   3   5  337.69   10.25
  -4  -3   5  332.61    8.36
  -4   3   5  334.10   10.31
  -4  -3   5  354.56   10.69
  -4  -3  -5  332.17    9.95
   4  -3   6   95.69   10.45
   4   3   6   66.45    4.63
  -4  -3   6   66.41    1.59
  -4   3   6   85.86    4.77
  -4  -3   6   68.63    7.20
  -4   3  -6   65.43    1.83
  -4  -3  -6   76.98    3.77
   4  -3   7  161.29   16.37
   4   3   7  161.59    6.43
  -4   3   7  166.47    6.13
  -4  -3   7  146.65    6.95
  -4  -3  -7  151.83    5.49
  -4   3  -7  141.83    3.55
   4   3   8  880.21   35.01
  -4   3   8  988.55   39.00
  -4  -3   8  901.98   35.69
  -4  -3  -8 1009.81   39.69
  -4   3  -8  890.03   34.29
   4  -3   9  591.77   24.45
   4   3   9  475.92   20.35
  -4   3   9  574.47   23.32
  -4  -3  -9  563.73   22.92
  -4   3  -9  549.29   21.49
   4  -3  10  845.87   29.50
   4   3  10  796.35   27.88
  -4   3  10  869.30   29.67
  -4  -3 -10  841.38   28.71
  -4   3 -10  765.31   25.36
   4  -3  11   10.58    3.83
   4   3  11    2.27    3.78
  -4   3  11    5.10    2.75
  -4  -3 -11   15.18    3.72
  -4   3 -11    8.31    2.37
   4  -3  12   28.73    4.48
   4   3  12   52.68    5.36
  -4   3  12   28.96    3.29
  -4  -3 -12   26.93    4.05
  -4   3 -12   48.19    3.14
   4  -3  13  470.41   17.80
   4   3  13  424.65   16.38
  -4   3  13  485.30   17.42
  -4  -3 -13  467.43   16.81
  -4   3 -13  388.92   13.36
   4  -3  14  448.85   19.16
   4   3  14  476.63   17.48
  -4   3  14  451.58   15.78
  -4  -3 -14  440.24   15.57
  -4   3 -14  550.20   17.77
   4  -3  15  521.98   29.09
   4   3  15  524.91   25.92
  -4   3  15  509.50   24.32
  -4  -3 -15  548.29   26.35
  -4   3 -15  521.03   24.39
   4  -3  16  152.48   18.99
   4   3  16  129.30   10.62
  -4   3  16  140.51    9.82
  -4  -3 -16  156.87   11.23
  -4   3 -16  121.02    8.63
   4  -3  17   56.03   11.05
  -4   3  17   48.66    5.44
  -4  -3 -17   37.81    5.16
  -4   3 -17   35.42    4.58
   4  -3  18   68.93   13.34
   4   3  18   58.74   11.33
  -4   3  18   58.59   10.47
  -4  -3 -18   87.28    8.01
  -4   3 -18   48.52    9.56
   4  -3  19   36.71    8.28
   4   3  19   36.94    8.39
  -4   3  19   33.86    7.30
  -4  -3 -19   28.77    6.89
  -4   3 -19   59.89    6.21
   4  -3  20  218.62   24.85
   4   3  20  188.10   14.94
  -4   3  20  213.81   15.68
  -4  -3 -20  230.62   17.37
  -4   3 -20  218.55   16.05
   4  -3  21   77.36   15.25
   4   3  21   84.28   11.07
  -4   3  21   68.75    7.29
  -4  -3 -21   70.10    8.03
  -4   3 -21  100.25   10.14
   4  -3  22  110.94   20.95
   4   3  22   91.39    8.77
  -4  -3 -22  109.23    9.73
   4   4   0  134.87    9.52
  -4  -4   0  136.45    9.55
   4  -4   0  171.28   11.27
  -4  -4   0  148.52   15.51
   4  -4   0  157.15   10.40
   4   4  -1 2248.43   54.67
   4   4   1 2201.71   53.95
  -4  -4  -1 2088.01   51.00
  -4  -4   1 2114.25   51.41
   4  -4  -1 2158.28   51.93
  -4  -4   1 2183.74   54.16
  -4  -4  -1 2332.73   57.55
   4  -4  -1 2208.67   53.25
   4  -4   2  731.95   20.80
   4   4  -2  682.31   17.28
   4   4   2  792.41   20.52
  -4  -4   2  806.45   20.11
   4  -4  -2  762.47   18.78
  -4  -4   2  804.92   22.39
  -4  -4  -2  710.77   18.96
   4  -4   3   47.50    7.18
   4   4  -3   43.76    5.37
   4   4   3   51.79    4.97
  -4  -4   3   50.14    3.70
  -4   4   3   54.63    5.93
  -4  -4   3   53.88    8.12
  -4  -4  -3   34.34    3.79
   4  -4   4   46.42    5.54
   4   4  -4   40.57    4.47
   4   4   4   50.43    3.52
  -4  -4   4   49.76    1.94
  -4   4   4   47.50    4.11
  -4  -4   4   49.53    5.68
  -4  -4  -4   42.44    4.12
   4   4  -5  760.76   15.73
   4  -4   5  788.27   20.56
   4   4   5  787.49   18.65
  -4  -4   5  763.83   15.79
  -4   4   5  783.91   18.50
  -4  -4   5  829.21   19.47
  -4  -4  -5  793.26   18.50
   4  -4   6  202.67   17.38
   4   4   6  117.96    5.38
  -4   4   6  175.17    6.55
  -4  -4   6  132.62    9.69
  -4  -4  -6  190.47    6.38
   4   4   7  538.85   22.21
  -4   4   7  499.21   20.56
  -4  -4   7  552.53   22.72
  -4   4  -7  468.08   17.91
  -4   4  -7  529.98   20.27
  -4  -4  -7  487.58   20.05
   4  -4   8   30.82    3.96
   4   4   8   45.58    3.85
  -4   4   8   29.81    3.46
  -4  -4   8   62.66    8.09
  -4   4  -8   38.44    3.28
  -4  -4  -8   28.18    3.33
  -4   4  -8   48.16    2.33
   4  -4   9   75.80    9.76
   4   4   9   64.47    7.00
  -4   4   9   69.76    7.23
  -4  -4   9   56.95    8.58
  -4   4  -9   40.52    5.09
  -4  -4  -9   63.11    6.44
  -4   4  -9   52.61    4.73
   4  -4  10  340.80   16.04
   4   4  10  412.27   15.68
  -4   4  10  358.99   14.07
  -4   4 -10  371.11   12.56
  -4  -4 -10  314.11   12.10
  -4   4 -10  385.53   13.12
   4  -4  11  845.88   28.55
   4   4  11  925.54   30.87
  -4   4  11  863.36   28.64
  -4   4 -11  811.80   25.46
  -4  -4 -11  883.89   29.20
  -4   4 -11  918.55   28.92
   4  -4  12  593.94   21.17
   4   4  12  656.11   23.23
  -4   4  12  620.92   21.60
  -4  -4 -12  618.86   21.49
  -4   4 -12  704.57   22.75
   4  -4  13  469.39   21.61
   4   4  13  476.25   17.25
  -4   4  13  525.25   17.95
  -4  -4 -13  533.64   32.05
  -4   4 -13  514.05   19.67
   4  -4  14  161.45   25.92
   4   4  14  131.60    8.85
  -4   4  14  157.75    9.67
  -4  -4 -14  145.02    8.92
  -4   4 -14  122.48    6.60
   4  -4  15   50.68   10.99
   4   4  15   48.43    8.04
  -4   4  15   57.85    8.50
  -4  -4 -15   35.19    5.93
  -4   4 -15   54.32    7.23
   4  -4  16   91.59   13.08
   4   4  16   62.99    7.94
  -4   4  16   84.36    8.69
  -4  -4 -16   78.97    7.98
  -4   4 -16   43.70    5.03
   4  -4  17  257.15   16.99
   4   4  17  196.52   13.37
  -4   4  17  237.25   15.24
  -4  -4 -17  223.06   14.38
  -4   4 -17  207.09   12.94
   4  -4  18   26.11    5.74
   4   4  18   23.44    5.84
  -4   4  18   30.83    5.76
  -4  -4 -18   18.80    5.05
  -4   4 -18   30.07    5.24
   4  -4  19   26.87    6.65
   4   4  19   34.75    8.26
  -4   4  19   22.04    5.52
  -4  -4 -19   20.26    5.32
  -4   4 -19   34.69    7.53
   4  -4  20    6.58    2.79
   4   4  20    5.16    4.03
  -4   4  20   14.93    4.80
  -4  -4 -20    3.87    3.69
   4  -4  21   57.55   14.15
   4   4  21   28.61    7.57
  -4   4  21   58.65    6.65
  -4  -4 -21   42.35    5.83
   4  -4  22   34.87    8.75
   4   4  22   69.82   11.66
  -4   4  22   51.89    8.14
  -4  -4 -22   48.54    7.95
   4   5   0    6.71    2.94
  -4  -5   0    3.57    1.68
   4  -5   0    3.95    0.67
  -4  -5   0    7.07    1.94
   4  -5   0    3.02    0.43
   4   5  -1   88.75    3.37
   4   5   1   81.21    3.83
  -4  -5   1   78.64    3.00
  -4  -5   1   95.06   11.35
  -4  -5  -1   91.96    9.25
   4  -5  -1   78.42    2.50
   4   5  -2 1595.95   33.55
   4   5   2 1676.54   36.06
  -4  -5   2 1593.31   33.41
  -4   5   2 1664.19   36.77
  -4  -5   2 1628.74   35.64
  -4  -5  -2 1669.80   36.29
   4  -5  -2 1592.77   33.26
   4  -5   3  132.05    5.89
   4   5  -3  120.44    3.72
   4   5   3  155.08    5.90
  -4  -5   3  148.84    4.31
  -4   5   3  120.80    5.71
  -4  -5   3  172.39    9.29
  -4  -5  -3  120.07    4.98
   4  -5  -3  141.10    5.60
   4  -5   4  814.93   32.75
   4   5  -4  757.14   29.20
   4   5   4  820.47   32.54
  -4  -5   4  797.29   30.66
  -4   5   4  792.39   31.97
  -4  -5   4  878.93   35.17
  -4  -5  -4  787.82   31.52
   4  -5  -4  783.91   30.59
   4   5  -5  138.71    5.48
   4   5   5  116.87    6.45
  -4   5   5  146.68    7.96
  -4  -5   5  125.53    4.98
  -4  -5   5  136.85   12.32
  -4  -5  -5  142.81    7.39
   4  -5  -5  129.02    5.94
   4  -5   6  213.92   20.71
   4   5   6  203.02    9.44
  -4   5   6  173.57    9.04
  -4  -5   6  247.02   11.36
  -4  -5  -6  208.60    9.83
   4  -5  -6  201.40    9.05
   4  -5   7  128.26   17.78
   4   5   7   85.05    8.26
  -4   5   7  109.98   11.06
  -4  -5   7  114.92   15.35
  -4  -5  -7  108.88   10.21
   4  -5   8  561.32   21.45
   4   5   8  548.02   19.79
  -4   5   8  597.17   21.37
  -4  -5   8  538.29   19.77
  -4   5  -8  491.74   15.96
  -4  -5  -8  577.93   20.50
  -4   5  -8  546.34   17.72
   4  -5   9   25.34    4.44
   4   5   9   36.34    4.15
  -4   5   9   21.41    3.33
  -4  -5   9   49.77    9.32
  -4   5  -9   29.28    2.33
  -4  -5  -9   24.42    3.59
  -4   5  -9   37.00    3.57
   4  -5  10  187.34   21.20
   4   5  10  153.83    7.68
  -4   5  10  165.14    7.95
  -4  -5  10  159.07   21.03
  -4   5 -10  124.87    4.50
  -4  -5 -10  158.55    8.77
  -4   5 -10  148.73    7.11
   4  -5  11   65.20   13.48
   4   5  11   52.63    8.34
  -4   5  11   67.33    9.81
  -4  -5 -11   65.72    9.73
  -4   5 -11   70.32    9.12
   4  -5  12  100.14   17.35
   4   5  12   89.13   11.35
  -4   5  12  112.00   13.92
  -4  -5 -12   98.23   11.42
  -4   5 -12   98.75   11.00
   4  -5  13  334.70   12.99
   4   5  13  321.77   13.11
  -4   5  13  376.12   14.03
  -4  -5 -13  366.54   13.68
  -4   5 -13  310.92   10.31
   4  -5  14  568.66   27.50
   4   5  14  558.99   27.27
  -4   5  14  546.58   26.38
  -4  -5 -14  545.50   26.34
  -4   5 -14  567.28   26.19
   4  -5  15   26.73    5.27
   4   5  15   11.53    4.30
  -4   5  15   12.33    3.62
  -4  -5 -15   27.82    5.94
  -4   5 -15    8.22    2.40
   4  -5  16  307.15   25.31
   4   5  16  345.78   21.57
  -4   5  16  328.70   20.36
  -4  -5 -16  297.53   18.52
  -4   5 -16  325.35   19.06
   4  -5  17   50.45   12.60
   4   5  17   28.99    6.16
  -4   5  17   48.18    7.63
  -4  -5 -17   36.90    6.51
   4   5  18   15.41    6.49
  -4   5  18   22.31    5.86
  -4  -5 -18    8.85    4.00
   4  -5  19    2.81    3.71
   4   5  19   -3.81    3.69
  -4   5  19   10.11    3.80
  -4  -5 -19    4.62    3.63
   4  -5 -19    3.72    4.31
   4  -5  20   82.22   17.69
  -4   5  20  120.43   11.81
  -4  -5 -20  115.24   11.68
   4  -5 -20  108.88   11.48
   4  -5  21   11.45    3.79
   4   5  21    1.85    4.33
  -4   5  21    7.69    3.86
  -4  -5 -21   -1.16    3.79
   4  -5 -21    3.12    5.11
   4   6   0  294.98   12.39
  -4  -6   0  292.38   27.26
   4  -6   0  287.21   11.26
   4   6  -1  884.63   34.52
   4   6   1  929.85   36.42
  -4  -6   1  829.59   32.27
  -4   6   1  871.21   35.09
   4  -6   1  812.69   31.01
  -4  -6   1  922.41   37.30
  -4  -6  -1  821.54   35.32
   4  -6  -1  890.06   34.29
   4   6  -2  669.15   26.24
   4   6   2  561.50   22.60
  -4  -6   2  548.98   21.56
  -4  -6   2  587.01   23.98
  -4  -6  -2  650.38   26.49
   4  -6  -2  581.21   22.69
   4   6  -3  125.29    5.59
   4   6   3  122.09    6.29
  -4  -6   3  121.05    5.45
  -4   6   3  149.74    8.24
  -4  -6   3  135.22   15.93
  -4  -6  -3  119.91    7.05
   4  -6  -3  121.33    5.42
   4   6   4  769.61   30.65
  -4   6   4  815.47   32.97
  -4  -6   4  728.99   28.15
  -4  -6   4  829.10   33.30
  -4  -6  -4  799.64   32.08
   4  -6  -4  716.19   28.07
   4  -6   5  256.81   13.43
   4   6  -5  231.87   19.33
   4   6   5  133.91   12.03
  -4   6   5  243.60   21.41
  -4  -6   5  147.53   17.77
  -4  -6  -5  247.49   21.51
   4  -6  -5  131.89   11.43
   4  -6   6  553.16   20.14
   4   6   6  537.18   19.18
  -4   6   6  555.06   20.44
  -4  -6   6  489.33   22.90
  -4  -6  -6  583.66   21.23
   4  -6  -6  486.62   16.92
   4  -6   7  296.15   25.32
   4   6   7  142.85    6.85
  -4   6   7  226.10    9.99
  -4  -6   7  159.00   15.80
  -4  -6  -7  222.57    9.61
   4  -6  -7  137.17    6.28
   4  -6   8  260.34   10.71
   4   6   8  261.04   10.78
  -4   6   8  224.29    9.77
  -4  -6   8  257.50   10.30
  -4  -6  -8  234.30    9.97
   4  -6  -8  285.81   10.82
   4  -6   9  289.12   15.32
   4   6   9  272.48   11.24
  -4   6   9  299.67   12.64
  -4  -6   9  291.89   11.53
  -4  -6  -9  275.97   11.07
  -4   6  -9  259.98    8.85
   4  -6  -9  287.17   10.90
   4  -6  10   20.17    5.38
   4   6  10    6.10    3.68
  -4   6  10   14.03    5.93
  -4  -6  10   38.11    6.59
  -4  -6 -10   13.25    3.00
  -4   6 -10   19.69    2.83
   4  -6 -10   24.64    4.64
   4  -6  11  981.68   32.84
   4   6  11  936.34   30.76
  -4   6  11  980.04   31.67
  -4  -6  11  931.12   30.04
  -4  -6 -11  924.81   29.78
   4  -6 -11  959.63   30.58
   4  -6  12   69.99   11.86
   4   6  12   77.31   10.57
  -4   6  12   75.61    9.94
  -4  -6 -12   75.83   10.19
  -4   6 -12   76.45    9.56
   4  -6 -12   99.09   12.57
   4  -6  13  376.19   26.57
   4   6  13  416.62   26.53
  -4   6  13  435.87   27.73
  -4  -6 -13  414.20   26.29
   4  -6 -13  459.91   30.61
   4  -6  14   28.36    5.79
   4   6  14   21.10    5.12
  -4   6  14   39.46    5.77
  -4  -6 -14   29.92    5.13
   4  -6 -14   18.97    4.22
   4  -6  15   48.50   11.92
   4   6  15   21.55    5.60
  -4   6  15   32.06    6.71
  -4  -6 -15   15.69    3.97
   4  -6 -15   50.81   10.41
   4  -6  16   37.97    8.00
   4   6  16   37.66    7.12
  -4   6  16   58.74    9.44
  -4  -6 -16   45.24    9.80
   4  -6 -16   24.18    4.84
   4  -6  17  198.27   29.41
   4   6  17  250.86   22.40
  -4   6  17  247.60   21.44
  -4  -6 -17  239.04   21.53
   4  -6 -17  276.16   23.66
   4  -6  18   11.83    3.78
   4   6  18   20.49    4.95
  -4   6  18   12.33    3.93
  -4  -6 -18   24.29    5.58
   4  -6 -18   27.41    6.90
   4  -6  19  143.85   17.67
   4   6  19  134.26   11.14
  -4   6  19  165.16   12.58
  -4  -6 -19  111.75   13.87
   4  -6 -19  153.26   11.89
   4  -6  20    1.82    2.39
   4   6  20   18.38    6.80
  -4   6  20   13.52    4.92
  -4  -6 -20   12.09    4.74
   4  -6 -20   11.21    5.09
   4  -6  21   11.72    3.90
  -4   6  21   11.21    4.05
  -4  -6 -21   10.59    3.95
   4  -6 -21   10.06    5.22
   4   7   0  189.94   18.44
  -4   7   0  185.48   16.79
  -4  -7   0  169.59   22.47
   4  -7   0  180.89   15.19
   4   7   1  178.00   15.54
   4   7  -1  174.04   14.99
  -4   7   1  163.45   14.90
   4  -7   1  150.30   12.59
  -4  -7   1  169.33   19.85
  -4  -7  -1  182.75   24.22
   4  -7  -1  164.50   13.97
   4   7  -2  507.37   17.33
   4   7   2  636.12   22.04
  -4  -7   2  530.32   17.85
  -4   7   2  521.58   19.26
  -4  -7   2  491.22   18.78
  -4  -7  -2  484.39   18.10
   4  -7  -2  621.49   20.77
   4   7  -3  242.90   20.49
   4   7   3  217.51   18.88
  -4  -7   3  206.37   17.42
  -4   7   3  243.30   21.64
  -4  -7   3  217.49   29.89
  -4  -7  -3  228.56   20.03
   4  -7  -3  218.77   18.79
   4   7  -4  623.48   19.78
   4   7   4  812.63   26.77
  -4  -7   4  724.04   22.71
  -4  -7   4  760.29   25.53
  -4  -7  -4  558.03   19.29
   4  -7  -4  790.34   25.23
   4   7  -5   94.73    3.52
   4   7   5  117.64    5.95
  -4   7   5  107.12    8.73
  -4  -7   5  127.23   12.62
  -4  -7  -5   96.36    5.86
   4  -7  -5  127.01    5.39
   4   7  -6    9.50    1.14
   4   7  -6    9.97    1.44
   4   7   6   19.83    3.45
  -4   7   6   18.58    3.95
  -4  -7   6   23.88    2.69
  -4  -7  -6   15.24    3.30
   4  -7  -6   19.10    2.76
   4  -7   7   18.56    4.64
   4   7   7   23.75    5.01
  -4   7   7   23.72    5.15
  -4  -7   7   31.44    5.59
  -4  -7  -7   25.32    5.29
   4  -7  -7   25.85    4.16
   4  -7   8  282.16   28.93
   4   7   8  268.84   20.37
  -4   7   8  244.63   10.63
  -4  -7   8  257.21   22.85
  -4  -7  -8  231.51    9.91
   4  -7  -8  239.10    9.21
   4  -7   9   55.50   11.76
   4   7   9   62.62    9.36
  -4   7   9   54.13    7.67
  -4  -7  -9   54.01    7.33
   4  -7  -9   55.28    6.76
   4  -7  10  397.64   18.99
   4   7  10  450.35   16.58
  -4   7  10  404.82   15.46
  -4  -7 -10  385.79   14.21
   4  -7 -10  404.46   14.30
   4  -7  11  133.30   16.23
   4   7  11  133.14   12.38
  -4   7  11  147.50    9.59
  -4  -7  11  132.28   15.42
  -4  -7 -11  138.89    9.09
   4  -7 -11  119.12   14.76
   4  -7  12   42.37    9.30
   4   7  12   56.70    8.51
  -4   7  12   37.80    6.73
  -4  -7 -12   36.52    6.65
   4  -7 -12   49.45    7.03
   4  -7  13  176.39   21.77
   4   7  13  191.53   12.81
  -4   7  13  177.19   12.11
  -4  -7 -13  170.50   11.58
   4  -7 -13  163.36   15.22
   4  -7  14  137.96   20.60
   4   7  14  146.90   11.95
  -4   7  14  162.49   12.01
  -4  -7 -14  147.34   10.81
   4  -7 -14  134.26    9.62
   4  -7  15   57.15   13.86
   4   7  15   47.78    8.46
  -4   7  15   54.57    9.13
  -4  -7 -15   61.63    9.90
   4  -7 -15   64.44   13.04
   4  -7  16   62.38   12.43
   4   7  16  103.19   11.40
  -4   7  16   62.08    8.17
  -4  -7 -16   73.73    7.97
   4  -7 -16   92.65   10.46
   4  -7  17   31.61    6.44
   4   7  17   16.39    4.98
  -4   7  17   10.13    3.20
  -4  -7 -17   25.16    5.79
   4  -7 -17   15.80    4.56
   4  -7  18    4.76    2.83
   4   7  18    0.38    4.52
  -4   7  18    6.49    3.73
  -4  -7 -18    0.42    3.90
   4  -7 -18   11.57    4.00
   4  -7  19   50.54   11.29
   4   7  19   37.37    5.33
  -4   7  19   51.82    6.38
  -4  -7 -19   55.04    9.12
   4  -7 -19   53.80    7.09
   4  -7  20   60.38   14.77
   4   7  20   37.59    8.52
  -4   7  20   99.79   14.83
  -4  -7 -20   65.76   18.08
   4  -7 -20   52.52   10.62
   4   8   0    7.75    3.11
  -4   8   0   12.60    7.10
  -4  -8   0   12.16    4.96
   4  -8   0    7.13    2.00
   4   8  -1 1197.62   38.29
   4   8   1 1185.51   38.17
  -4   8   1 1233.07   40.84
  -4   8  -1 1179.24   39.26
   4  -8   1 1184.76   37.20
  -4  -8   1 1162.64   38.23
  -4  -8  -1 1098.05   36.22
   4  -8  -1 1161.60   36.61
   4   8  -2   72.80    9.80
   4   8   2   30.83    5.27
  -4   8   2   60.77    9.64
  -4   8  -2   46.19    7.61
   4  -8   2   64.03    8.41
  -4  -8   2   43.95    9.10
  -4  -8  -2   74.97   11.27
   4  -8  -2   44.73    7.18
   4   8  -3  340.77   11.68
   4   8   3  329.84   12.24
  -4   8   3  311.05   12.95
  -4  -8   3  320.63   12.64
  -4  -8  -3  297.82   11.85
   4  -8  -3  324.37   11.21
   4   8   4  169.82    7.64
  -4   8   4  174.35    8.95
  -4  -8   4  223.35   22.75
  -4  -8  -4  177.55    8.46
   4  -8  -4  189.10    7.20
   4   8  -5  188.64    6.59
   4   8   5  108.80   14.82
  -4  -8  -5  203.96    9.55
   4  -8  -5  103.05   13.40
   4   8   6  168.86    9.37
  -4   8   6  142.71    7.60
  -4  -8  -6  144.27    8.35
   4  -8  -6  149.61    6.07
   4   8   7    5.28    3.82
  -4   8   7   12.06    4.20
  -4  -8   7   11.07    2.96
  -4  -8  -7   10.94    3.93
   4  -8  -7    1.85    2.18
   4   8   8   32.29    5.59
  -4   8   8   38.01    7.33
  -4  -8   8   42.46    7.89
  -4  -8  -8   24.08    4.90
   4  -8  -8   33.65    4.77
   4   8   9    9.83    4.19
  -4   8   9    3.16    4.40
  -4  -8   9    6.55    1.87
  -4  -8  -9   10.75    5.41
   4  -8  -9   10.44    3.96
   4  -8  10   16.19    4.49
   4   8  10   18.04    4.71
  -4   8  10   19.51    5.50
  -4  -8  10   10.32    4.01
  -4  -8 -10   15.09    4.47
   4  -8 -10   13.97    4.19
   4  -8  11  345.99   37.27
   4   8  11  327.76   29.82
  -4   8  11  349.26   20.78
  -4  -8  11  304.29   18.05
  -4  -8 -11  312.47   18.58
   4  -8 -11  303.06   17.56
   4  -8  12   60.62   14.45
   4   8  12   44.28    9.16
  -4   8  12   57.42   11.19
  -4  -8  12   57.10   12.30
  -4  -8 -12   59.29   11.08
   4  -8 -12   51.51    9.87
   4  -8  13  240.81   30.57
   4   8  13  191.47   20.57
  -4   8  13  255.62   16.62
  -4  -8 -13  225.86   11.89
   4  -8 -13  213.29   13.60
   4  -8  14   72.83   13.78
   4   8  14   65.49   13.42
  -4   8  14   85.04    7.37
  -4  -8 -14   72.86    7.34
   4  -8 -14   85.85    7.48
   4  -8  15   17.17    4.61
   4   8  15   21.75    6.09
  -4   8  15   21.01    7.01
  -4  -8 -15    8.37    5.88
   4  -8 -15   17.12    4.42
   4  -8  16  100.60   14.90
   4   8  16  128.40   10.69
  -4   8  16  137.95   11.29
  -4  -8 -16  108.33    9.13
   4  -8 -16  128.50    9.98
   4  -8  17   41.18    7.85
   4   8  17   43.32    6.78
  -4   8  17   38.10    8.72
  -4  -8 -17   43.34    7.07
   4  -8 -17   70.18    9.21
   4  -8  18   81.43   14.22
   4   8  18   90.97    8.94
  -4   8  18  104.13    9.57
  -4  -8 -18   75.97    7.89
   4  -8 -18  115.85   11.09
   4  -8  19   39.67   11.95
   4   8  19   94.65   14.97
  -4   8  19   59.30   10.00
  -4  -8 -19   62.38    9.89
   4  -8 -19   76.66   11.51
   4   9   0  133.94   16.10
  -4   9   0  134.31   17.73
  -4  -9   0  121.80   21.25
   4  -9   0  122.77   14.40
   4   9   1  227.88    8.82
   4   9  -1  235.54    8.67
  -4   9   1  234.76   12.32
  -4   9  -1  227.64   10.40
   4  -9   1  216.72    7.16
  -4  -9   1  245.91   20.65
  -4  -9  -1  212.69   16.63
   4  -9  -1  240.05    8.07
   4   9   2  289.36   10.63
   4   9  -2  237.25    8.74
  -4   9   2  221.90   10.46
  -4   9  -2  307.81   12.68
  -4  -9  -2  190.91    8.71
   4  -9  -2  285.31    9.60
   4   9  -3  132.83   15.72
   4   9   3  154.98    6.84
  -4   9   3  147.76    8.59
  -4   9  -3  123.16   15.16
  -4  -9   3  155.82   19.40
  -4  -9  -3  122.23   14.32
   4  -9  -3  154.49   10.47
   4   9  -4  154.13    7.96
   4   9   4  192.53   10.55
  -4   9   4  144.90   10.06
  -4  -9   4  219.44   25.00
  -4  -9  -4  152.26    9.55
   4  -9  -4  213.41   10.58
   4   9   5   53.17    7.47
  -4   9   5   93.04   13.92
  -4  -9   5   56.23   10.46
  -4  -9  -5   65.17    9.60
   4  -9  -5   56.90    7.35
   4   9   6  107.57   13.56
  -4   9   6   83.69   11.49
  -4  -9   6  104.53   15.96
  -4  -9  -6  110.67   14.29
   4  -9  -6   90.15   15.11
   4   9   7   50.08    7.55
  -4  -9   7   49.10    9.62
  -4  -9  -7   60.38    8.60
   4  -9  -7   55.57    7.26
   4   9   8  140.46   11.26
  -4   9   8  182.53   13.54
  -4  -9   8  143.08   15.08
  -4  -9  -8  168.56   12.36
   4  -9  -8  116.08    8.50
   4   9   9  212.12   13.88
  -4   9   9  208.98   13.76
  -4  -9   9  197.01   21.14
  -4  -9  -9  200.95   13.11
   4  -9  -9  208.87   12.55
   4   9  10   44.07    9.00
  -4   9  10   78.60    7.92
  -4  -9  10   56.02   11.69
  -4  -9 -10   62.33   11.70
   4  -9 -10   50.15    9.30
   4   9  11  134.60    8.73
  -4   9  11  178.78   11.96
  -4  -9  11  147.47   19.05
  -4  -9 -11  119.56    8.40
   4  -9 -11  138.30   16.69
   4   9  12   33.43    6.47
  -4   9  12   25.96    6.20
  -4  -9  12   43.52    9.25
  -4  -9 -12   30.40    6.33
   4  -9 -12   26.07    4.48
   4   9  13   91.01    9.97
  -4   9  13   66.46    8.26
  -4  -9 -13   61.57    7.79
   4  -9 -13   87.85    9.15
   4  -9  14  294.95   21.44
   4   9  14  336.28   42.48
  -4   9  14  287.87   21.53
  -4  -9 -14  297.60   21.86
   4  -9 -14  315.75   39.52
   4  -9  15   11.09    3.97
   4   9  15   14.87    4.60
  -4   9  15   12.47    5.61
  -4  -9 -15   23.35    5.71
   4  -9 -15   32.10    6.41
   4  -9  16  163.66   24.50
   4   9  16  162.52   15.85
  -4   9  16  173.18   17.72
  -4  -9 -16  183.14   17.19
   4  -9 -16  160.88   15.65
   4  -9  17   11.07    4.03
   4   9  17    8.88    5.09
  -4   9  17   11.23    5.12
  -4  -9 -17   12.95    6.43
   4  -9 -17    5.19    3.41
   4  10   0   28.47    5.29
  -4  10   0   30.96    6.73
  -4 -10   0   32.23    6.20
   4  10   1  166.75   11.54
   4  10  -1  193.22   12.67
  -4  10   1  178.66   13.31
  -4  10  -1  193.43   14.02
  -4 -10   1  186.80   16.22
   4  10   2   16.03    3.44
   4  10  -2   55.50    7.42
  -4  10   2   54.09    8.63
  -4  10  -2   19.76    5.35
  -4 -10   2   23.59    4.72
   4 -10  -2   19.37    3.20
   4  10  -3  115.78    7.92
   4  10   3   96.51   12.38
  -4  10   3   87.13   12.10
  -4  10  -3   90.58   13.05
  -4 -10   3   88.24   16.62
  -4 -10  -3  105.97    8.79
   4 -10  -3   93.86   11.33
   4  10   4  133.30    9.05
  -4  10   4  169.27   11.71
  -4  10  -4  165.27   11.67
  -4 -10   4  143.55   20.84
  -4 -10  -4  172.68   11.56
   4 -10  -4  153.42    9.16
   4  10   5   10.53    3.22
  -4  10   5   15.01    6.47
  -4  10  -5   21.29    5.01
  -4 -10   5   24.98    4.83
  -4 -10  -5   12.24    4.71
   4 -10  -5   11.93    2.19
   4  10   6  537.28   30.30
  -4  10   6  492.66   28.34
  -4  10  -6  537.19   30.70
  -4 -10   6  545.00   30.84
  -4 -10  -6  510.17   28.74
   4 -10  -6  511.23   28.10
   4  10   7   37.74    8.31
  -4  10   7   26.72    7.37
  -4 -10   7   40.68    9.79
  -4 -10  -7   38.15    8.17
   4 -10  -7   26.53    5.52
   4  10   8  227.08   14.95
  -4 -10   8  204.01   24.90
  -4 -10  -8  179.40   12.31
   4 -10  -8  192.62   12.08
   4  10   9   69.90    7.17
  -4  10   9   57.01   10.45
  -4 -10   9   50.58    9.76
  -4 -10  -9   58.60    9.57
   4 -10  -9   58.40   10.81
   4  10  10   20.29    7.24
  -4  10  10   10.76    5.44
  -4 -10  10   -1.14    3.02
  -4 -10 -10    6.64    3.93
   4 -10 -10    5.06    2.43
   4  10  11  110.17   11.19
  -4  10  11  107.58   11.70
  -4 -10  11  110.56   19.53
  -4 -10 -11  119.82   12.20
   4 -10 -11  103.99    9.65
   4  10  12   24.40    5.92
  -4  10  12   17.38    5.59
  -4 -10  12    9.49    2.89
  -4 -10 -12    9.78    4.32
   4 -10 -12    6.98    2.76
   4  10  13   97.69    9.30
  -4  10  13  102.22   10.64
  -4 -10  13   78.53    7.37
  -4 -10 -13   80.65    8.06
   4 -10 -13   87.01    7.61
   4  10  14   17.84    5.53
  -4  10  14   12.38    5.10
  -4 -10 -14   31.81    8.50
   4 -10 -14   11.85    3.94
   4  10  15   23.19    7.72
  -4  10  15   54.74    7.91
  -4 -10 -15   55.20    7.74
   4 -10 -15   26.68    7.45
   4  10  16   69.74   10.93
  -4  10  16   94.08   14.09
  -4 -10 -16   68.14   10.90
   4 -10 -16   51.32    8.50
   4  11   0   15.37    3.81
  -4  11   0   22.59    5.34
  -4 -11   0   20.20    6.74
   4  11   1  123.36    9.20
   4  11  -1   88.97    6.71
  -4  11   1   74.79   11.73
  -4  11  -1  130.06   10.07
  -4 -11   1  112.99   16.61
  -4 -11  -1   77.37   15.05
   4  11   2   48.50    9.24
   4  11  -2   34.48    6.58
  -4  11   2   21.32    6.24
  -4  11  -2   37.46    8.34
  -4 -11   2   44.99   10.87
  -4 -11  -2   41.60    8.96
   4  11   3  186.48   10.44
  -4  11   3  181.23   12.14
  -4  11  -3  166.72   10.97
  -4 -11   3  202.23   17.77
  -4 -11  -3  169.21   16.02
   4  11   4   51.07    8.67
  -4  11   4   27.80    6.88
  -4  11  -4   36.68    7.77
  -4 -11   4   41.36    8.67
  -4 -11  -4   22.12    5.27
   4  11   5   65.98   13.81
  -4  11   5   50.46   10.31
  -4  11  -5   56.92    9.51
  -4 -11   5   78.05   12.28
   4  11   6   92.83    7.00
  -4  11   6   81.81    7.61
  -4  11  -6   94.37    8.04
  -4 -11   6   86.53   11.08
   4 -11  -6   82.95    5.60
   4  11   7   28.75    7.20
  -4  11   7   41.22    9.71
  -4  11  -7   33.06    8.53
  -4 -11   7   24.29    6.03
  -4 -11  -7   32.10    7.44
   4 -11  -7   24.93    5.38
   4  11   8   44.36    8.51
  -4  11   8   42.06    8.87
  -4  11  -8   24.81    6.77
  -4 -11   8   22.73    5.15
  -4 -11  -8   34.38    7.27
   4 -11  -8   27.20    4.83
   4  11   9  108.64    9.72
  -4 -11   9  100.57   18.87
  -4 -11  -9  116.39   10.49
   4 -11  -9  107.98    8.62
   4  11  10   12.43    4.48
  -4  11  10   17.72    5.23
  -4 -11  10   13.20    3.18
  -4 -11 -10   20.96    5.14
   4 -11 -10   13.55    3.41
   4  11  11   30.61    7.14
  -4  11  11   58.54    7.51
  -4 -11  11   33.71    9.31
  -4 -11 -11   33.22    6.52
   4 -11 -11   28.91    5.63
   4  11  12    3.64    3.93
  -4  11  12   11.46    5.20
  -4 -11  12    9.57    2.97
  -4 -11 -12   10.72    4.60
   4 -11 -12    3.41    2.51
   4  11  13   73.06    8.10
  -4  11  13   84.91   11.70
  -4 -11  13   64.84   12.78
  -4 -11 -13   66.02    8.19
   4 -11 -13   80.29    7.94
   4  11  14   15.42    5.10
  -4  11  14    9.42    4.61
  -4 -11 -14   11.78    4.78
   4 -11 -14   14.93    4.75
   4  12   0   47.71    7.58
  -4  12   0   49.40    9.47
  -4 -12   0   47.00   11.76
   4  12   1   56.64    8.96
  -4  12   1   85.79    9.09
  -4  12  -1   82.77   10.48
  -4 -12   1   77.65   12.14
  -4 -12  -1   66.81   14.76
   4  12   2    6.86    2.83
  -4  12   2    1.53    4.92
  -4  12  -2    7.55    4.91
  -4 -12   2    3.40    2.08
  -4 -12  -2   -6.99    3.73
   4  12   3   56.17    9.12
  -4  12   3   87.14    9.20
  -4  12  -3   70.25    8.62
  -4 -12  -3   63.52   10.60
  -4  12   4   78.93    9.01
  -4  12  -4   85.99    8.31
  -4 -12  -4   80.23    8.19
   4  12   5   30.50    6.21
  -4  12   5   26.90    6.94
  -4  12  -5   31.40    6.84
  -4 -12   5   38.80    9.36
  -4 -12  -5   42.27    7.96
   4  12   6  131.21    9.96
  -4  12   6  140.89   11.91
  -4  12  -6  135.39   12.33
  -4 -12   6  125.53   17.61
  -4 -12  -6  146.15   10.77
   4  12   7   60.41    6.44
  -4  12   7   54.69    9.97
  -4  12  -7   78.31   10.34
  -4 -12   7   49.14   13.67
  -4 -12  -7   70.03    7.72
   4  12   8    7.50    4.21
  -4  12   8    8.72    7.20
  -4  12  -8    7.89    4.11
  -4 -12   8   13.96    4.77
  -4 -12  -8    6.11    3.79
   4  12   9   56.33    7.48
  -4  12   9   55.29    7.55
  -4  12  -9   20.54    6.26
  -4 -12   9   43.65   12.22
   4  12  10   11.66    5.26
  -4  12  10    9.83    5.90
  -4  12 -10   22.08    6.58
  -4 -12  10   15.62    5.46
   4  12  11   23.79    6.45
  -4  12  11    9.41    5.40
  -4  12 -11   17.39    5.54
  -4 -12  11   13.76    4.72
  -4 -12 -11   19.22    5.49
  -4  13   0   11.12    6.47
  -4 -13   0    9.39    4.48
  -4  13   1   33.91    9.13
  -4  13  -1   54.59    8.31
  -4 -13   1   32.38    7.30
  -4 -13  -1   37.47    9.12
   4  13   2   12.72    4.34
  -4  13   2   17.95    5.83
  -4  13  -2   13.09    4.94
  -4 -13   2   25.36    6.88
  -4 -13  -2   23.15    6.05
   4  13   3   69.36    7.48
  -4  13   3   67.62    9.09
  -4  13  -3   93.95   11.86
  -4 -13   3   82.53   12.74
  -4 -13  -3   51.77   11.63
   4  13   4   -3.83    2.85
  -4  13   4    9.96    5.35
  -4  13  -4    8.47    6.36
  -4 -13   4    7.00    3.93
  -4 -13  -4    2.37    3.41
   4  13   5    6.60    4.49
  -4  13   5   12.66    5.64
  -4  13  -5    8.68    4.84
  -4 -13   5   11.29    5.38
  -4 -13  -5   15.98    5.18
   4  13   6   23.06    7.06
  -4  13   6   28.90    8.71
  -4  13  -6   13.13    4.63
  -4 -13   6   14.18    5.36
  -4 -13  -6   16.75    5.80
  -4  13   7   37.53    8.08
  -4  13  -7   25.71    6.90
  -4 -13  -7   46.75    8.27
   5   0   0    5.22    2.03
  -5   0   0    1.08    1.32
   5   0   0   -0.20    1.27
   5   0  -1  121.33   10.74
   5   0   1  109.72   12.26
  -5   0   1  121.19   10.97
  -5   0  -1  111.55    8.13
   5   0  -1   99.59    6.98
   5   0   1  108.17    7.54
   5   0  -2  549.61   14.65
   5   0   2  552.64   16.49
  -5   0   2  580.81   15.22
  -5   0  -2  538.30   16.03
   5   0   2  582.92   15.11
   5   0  -3   20.79    2.80
   5   0   3   18.09    2.52
  -5   0   3   20.36    3.01
  -5   0  -3   14.74    2.19
   5   0   3   14.71    2.60
   5   0   4   59.61    8.90
  -5   0  -4   35.57    2.15
   5   0   4   40.75    2.38
  -5   0   5  341.53    8.72
   5   0   5  372.67   10.71
  -5   0  -5  352.14    8.63
   5   0   5  319.16    7.82
  -5   0   6    5.35    1.04
   5   0   6   10.97    2.42
  -5   0   6    9.09    1.83
  -5   0  -6    5.81    1.72
   5   0   6    7.25    1.96
  -5   0   7    1.35    0.98
   5   0   7    5.80    1.83
  -5   0   7    1.36    1.78
  -5   0  -7    3.41    2.29
  -5   0   8 1588.25   61.07
   5   0   8 1847.12   71.94
  -5   0   8 1938.22   74.57
  -5   0  -8 1949.44   75.01
  -5   0   9    2.48    1.22
   5   0   9   -0.16    3.50
  -5   0   9    6.78    2.69
  -5   0  -9    6.45    2.64
   5   0  10 1119.40   37.02
  -5   0  10 1091.06   34.43
  -5   0 -10 1119.01   35.54
  -5   0  11   34.14    5.29
   5   0  11  102.35    8.80
  -5   0  11   71.12    3.60
  -5   0 -11   82.24    4.53
   5   0  12   75.49   11.01
  -5   0  12   93.18   12.13
  -5   0 -12  112.37   14.64
   5   0  13  133.83   23.52
  -5   0  13   89.45    9.93
  -5   0 -13   99.43   11.38
   5   0  14   83.31   14.36
  -5   0  14   73.71    8.98
  -5   0 -14   99.20   12.45
  -5   0  15   33.90    4.89
  -5   0 -15   29.24    4.74
   5   0  16  149.99   22.76
  -5   0 -16  149.87    9.60
   5   0  17  147.89   21.21
  -5   0 -17  170.15   11.60
   5   0  18    9.43    3.22
  -5   0 -18   12.05    3.18
   5   0  19   41.95    8.10
  -5   0 -19   25.74    5.16
   5   0  20  503.44   94.83
  -5   0 -20  486.88   29.72
   5   0  21    9.51    5.19
  -5   0 -21    2.44    2.96
   5   0  22  342.32   57.25
  -5   0 -22  340.36   45.42
   5  -1   0  189.16   13.20
   5   1   0  226.68   19.23
  -5   1   0  199.27   13.42
  -5  -1   0  212.06   15.04
   5  -1   0  193.57   12.97
   5  -1  -1  225.27   16.97
   5  -1   1  373.53   11.12
   5   1  -1  363.36   10.25
   5   1   1  235.82   22.57
  -5   1   1  374.82   10.46
  -5   1  -1  226.13   15.07
  -5  -1   1  239.52   16.57
  -5  -1  -1  383.71   11.04
   5  -1   1  369.08    9.73
   5  -1  -2  272.13   18.49
   5   1  -2  280.88    7.48
   5  -1   2  304.63    8.93
   5   1   2  283.15    8.31
  -5  -1   2  258.54   17.38
  -5  -1   2  295.22    8.67
  -5   1  -2  275.67    8.29
  -5  -1  -2  284.15    8.61
   5  -1  -2  285.31    7.08
   5  -1   2  305.90    7.35
   5   1  -3   36.77    5.52
   5  -1   3   26.75    3.07
   5   1   3   32.41    3.92
  -5  -1   3   24.72    1.99
  -5  -1   3   30.76    4.50
  -5   1  -3   34.74    4.54
   5  -1  -3   20.07    2.98
  -5  -1  -3   37.70    4.28
   5  -1   3   29.98    1.63
   5  -1   4   74.43    7.06
   5   1   4   87.33   11.29
  -5  -1   4   80.35    3.34
  -5  -1   4   95.56    7.79
  -5   1  -4   81.09    4.67
  -5  -1  -4   67.99    3.18
   5  -1   4   61.50    2.29
   5  -1   5 2806.38   59.76
   5   1   5 2943.10  113.39
  -5  -1   5 2795.09   58.33
  -5  -1   5 2847.58   60.62
  -5   1  -5 2864.38  109.50
  -5  -1  -5 2925.47  112.16
   5  -1   5 2811.28   58.10
   5  -1   6   26.72    3.76
  -5  -1   6   31.70    4.05
   5   1   6   48.02    5.57
  -5   1   6   22.56    2.61
  -5  -1   6   28.46    2.30
  -5   1  -6   35.90    2.44
  -5  -1  -6   32.97    3.00
   5  -1   6   26.13    2.92
   5  -1   7 2080.77  172.91
  -5  -1   7 2049.84   78.96
   5   1   7 2200.65  182.79
  -5  -1   7 2071.21   79.40
  -5   1  -7 2152.05  178.30
  -5  -1  -7 1934.95   74.60
   5  -1   8   94.72   13.12
  -5  -1   8   46.08    6.94
   5   1   8   70.91    5.64
  -5  -1   8   69.62    3.73
  -5   1   8   62.78    4.11
  -5  -1  -8   77.67    4.70
  -5   1  -8   74.04    4.04
  -5  -1   9  205.32   17.73
   5  -1   9  243.98   28.06
   5   1   9  248.48   22.11
  -5  -1   9  228.76   19.27
  -5   1   9  214.21   18.36
  -5   1  -9  253.12   21.45
  -5  -1  -9  231.91   23.28
  -5  -1  10  106.08    5.05
   5  -1  10  132.68   15.59
   5   1  10  121.99    6.95
  -5  -1  10  141.58    5.37
  -5   1  10  112.73    5.30
  -5  -1 -10  130.07    5.82
  -5   1 -10  132.88    5.40
  -5  -1  11   42.19    6.39
   5  -1  11   66.92   11.40
   5   1  11   69.36    5.55
  -5  -1  11   84.09    3.61
  -5   1  11   74.93    4.42
  -5  -1 -11   61.72    4.12
  -5   1 -11   74.74    5.30
   5  -1  12   11.99    2.79
   5   1  12   13.21    6.06
  -5  -1  12    8.68    1.73
  -5   1  12   15.94    2.97
  -5  -1 -12    8.97    2.42
  -5   1 -12    7.92    1.98
   5  -1  13    5.35    2.38
   5   1  13   10.12    4.40
  -5  -1  13   10.03    1.86
  -5   1  13    5.94    2.70
  -5  -1 -13    8.80    3.32
  -5   1 -13   10.46    3.16
   5   1  14  225.66   13.86
  -5  -1  14  183.26    8.90
  -5   1  14  244.48   12.32
  -5  -1 -14  237.58   12.12
  -5   1 -14  190.03    9.90
   5  -1  15  125.14   18.11
   5   1  15   89.94   12.28
  -5   1  15  108.82    7.63
  -5  -1 -15  101.33   10.35
  -5   1 -15   94.54   11.82
   5  -1  16   39.32    7.86
   5   1  16   36.73    5.61
  -5   1  16   24.87    3.40
  -5  -1 -16   36.05    5.38
  -5   1 -16   32.88    4.48
   5  -1  17  275.91   31.66
   5   1  17  256.68   16.98
  -5   1  17  233.90   14.20
  -5  -1 -17  272.76   17.12
  -5   1 -17  252.71   15.55
   5  -1  18   14.34    3.46
   5   1  18   13.09    4.75
  -5  -1 -18   12.32    3.89
  -5   1 -18   13.36    3.69
   5   1  19  239.44   18.18
  -5  -1 -19  196.50   14.67
  -5   1 -19  226.84   16.76
   5  -1  20   58.42    9.54
   5   1  20   54.21    7.19
  -5  -1 -20   42.11    6.78
  -5   1 -20   46.09    7.25
   5  -1  21    2.59    3.54
   5   1  21    4.91    4.19
  -5  -1 -21    3.45    3.10
  -5   1 -21    0.81    2.74
   5  -1  22    6.81    2.47
   5   1  22   15.30    5.92
  -5  -1 -22   10.52    4.75
   5  -2   0   16.77    2.81
   5   2   0   14.92    2.41
  -5  -2   0   21.67    3.10
   5  -2   0   10.08    1.11
   5  -2  -1  237.04    7.28
   5  -2   1  253.00    9.38
   5   2  -1  252.26   14.89
   5   2   1  274.83   17.56
  -5  -2   1  234.89    6.56
  -5  -2   1  258.47    8.54
  -5  -2  -1  255.49    7.68
   5  -2  -1  235.41    6.31
   5  -2   1  248.56    5.93
   5  -2   2  181.41   18.26
   5   2  -2  165.75    5.23
   5   2   2  200.14   13.42
  -5  -2   2  148.37    4.55
  -5   2  -2  161.44    4.53
  -5  -2   2  170.36   10.92
   5  -2  -2  168.76    9.21
  -5  -2  -2  176.93   10.93
   5  -2   2  195.80    7.75
   5   2  -3  229.20    5.95
   5  -2   3  241.50    9.04
   5   2   3  228.24   16.47
  -5  -2   3  193.89    5.37
  -5   2  -3  210.74    5.29
  -5  -2   3  232.75    7.24
   5  -2  -3  192.35    7.05
  -5  -2  -3  257.15    7.42
   5  -2   3  244.17    5.64
   5   2  -4  180.58    6.42
   5  -2   4  203.06   20.12
   5   2   4  168.91    6.42
  -5  -2   4  164.72    4.85
  -5  -2   4  155.56    6.82
  -5   2  -4  164.75    4.50
  -5  -2  -4  193.95    6.04
   5  -2   4  199.43    4.73
   5  -2   5  235.40   22.90
   5   2   5  167.28    8.79
  -5  -2   5  158.82    6.73
  -5   2   5  231.13   10.28
  -5  -2   5  206.98   20.72
  -5   2  -5  173.20    7.11
  -5  -2  -5  245.60   10.79
   5  -2   6  297.12   13.41
   5   2   6  223.30   11.01
  -5  -2   6  220.14    8.98
  -5   2   6  291.53   12.53
  -5  -2   6  235.84    9.61
  -5  -2   6  237.43   10.63
  -5   2  -6  227.30    9.17
  -5  -2  -6  271.65   11.66
   5  -2   7  113.31   13.85
   5   2   7  114.96    6.71
  -5  -2   7  106.53    4.66
  -5  -2   7  115.53    5.06
  -5   2   7  122.94    6.35
  -5  -2   7  125.97    6.71
  -5   2  -7  105.07    4.68
  -5  -2  -7  109.64    5.96
   5  -2   8  507.71   18.77
   5   2   8  539.40   19.95
  -5  -2   8  439.49   14.64
  -5  -2   8  471.92   15.69
  -5   2   8  519.19   18.31
  -5   2  -8  504.71   16.91
  -5  -2  -8  502.58   17.70
   5  -2   9   54.41    8.55
  -5  -2   9   64.89    5.68
   5   2   9   64.62    7.73
  -5  -2   9   75.03    6.49
  -5   2   9   74.03    7.18
  -5   2  -9   61.62    6.15
  -5  -2  -9   74.93    7.21
   5  -2  10 1020.24   33.77
  -5  -2  10  932.37   28.91
   5   2  10  960.25   31.78
  -5  -2  10  980.15   30.32
  -5   2  10 1017.98   32.78
  -5  -2 -10  981.15   31.54
  -5   2 -10 1027.69   32.28
   5  -2  11   25.84    4.88
   5   2  11   27.63    5.66
  -5  -2  11   24.76    3.32
  -5   2  11   14.00    3.10
  -5  -2 -11   21.37    3.88
  -5   2 -11   29.98    4.58
   5   2  12  163.82    8.13
  -5  -2  12  152.34    5.47
  -5   2  12  122.34   15.96
  -5  -2 -12  151.45    7.10
  -5   2 -12  173.05    6.62
   5  -2  13  421.49   36.71
   5   2  13  443.13   16.35
  -5   2  13  406.26   13.97
  -5  -2 -13  396.35   14.30
  -5   2 -13  452.53   14.76
   5  -2  14  369.51   34.80
   5   2  14  373.97   19.29
  -5   2  14  388.72   18.79
  -5  -2 -14  384.21   18.84
  -5   2 -14  388.51   18.58
   5  -2  15   53.66    9.20
   5   2  15   45.24    6.64
  -5   2  15   59.08    7.78
  -5  -2 -15   75.84   10.53
  -5   2 -15   51.18    8.23
   5  -2  16  165.02   25.95
   5   2  16   82.35    8.78
  -5   2  16  144.09    9.12
  -5  -2 -16  153.92   10.25
  -5   2 -16  105.28    9.90
   5  -2  17   96.82   14.71
   5   2  17   80.11    7.13
  -5   2  17   95.50    6.17
  -5  -2 -17   92.27    6.31
  -5   2 -17   66.70   13.01
   5  -2  18   12.56    4.30
  -5   2  18    3.60    2.32
  -5  -2 -18    4.47    3.40
  -5   2 -18    6.90    3.33
   5   2  19   14.93    4.53
  -5  -2 -19   35.59    6.47
  -5   2 -19   18.44    3.88
   5  -2  20   78.14   12.96
   5   2  20  104.38    9.46
  -5  -2 -20   84.15    7.22
   5  -2  21   27.93    9.65
   5   2  21   35.35    7.64
  -5  -2 -21   36.40    7.85
   5  -3   0  134.53    9.46
   5   3   0  144.29    9.00
  -5  -3   0  127.75    8.69
   5  -3   0  117.07    3.08
   5  -3   1  261.07    9.99
   5   3  -1  287.74   13.58
   5   3   1  332.43    8.87
  -5  -3   1  338.00    8.52
  -5  -3   1  361.83   10.63
  -5  -3  -1  260.93   10.12
   5  -3  -1  332.62    8.10
   5  -3   1  262.30    5.85
   5  -3   2  118.48   13.12
   5   3  -2   83.05    6.18
   5   3   2   76.45    3.78
  -5  -3   2   72.02    2.91
  -5  -3   2   78.87   10.99
   5  -3  -2   61.73    3.27
  -5  -3  -2   98.01    8.72
   5  -3   2   92.16    2.21
   5  -3   3   74.88   10.49
   5   3  -3   68.04    4.25
   5   3   3   59.68    4.72
  -5  -3   3   44.09    2.55
  -5  -3   3   45.83    5.71
   5  -3  -3   44.33    3.38
  -5  -3  -3   68.76    4.52
   5   3  -4  111.02    7.74
   5  -3   4  109.36   12.53
   5   3   4  144.87    7.86
  -5  -3   4  130.68    5.83
   5  -3  -4  114.69    5.11
  -5  -3   4  128.00    8.36
  -5  -3  -4   95.33    5.21
   5  -3   5  636.58   26.00
   5   3   5  514.83   21.08
  -5  -3   5  550.31   21.46
  -5   3   5  652.84   26.48
  -5  -3   5  545.00   22.71
  -5  -3  -5  668.65   26.81
   5  -3   6  574.73   24.41
   5   3   6  669.38   27.17
  -5  -3   6  633.30   24.47
  -5   3   6  598.09   24.39
  -5  -3   6  639.37   24.68
  -5  -3   6  696.21   28.01
  -5   3  -6  669.30   25.55
  -5  -3  -6  622.67   25.14
   5  -3   7  741.43   26.99
   5   3   7  650.52   23.07
  -5  -3   7  628.62   20.48
  -5  -3   7  656.52   21.36
  -5   3   7  758.17   26.20
  -5  -3   7  691.38   25.16
  -5   3  -7  679.25   22.20
  -5  -3  -7  760.55   26.12
   5  -3   8  387.70   16.94
   5   3   8  396.77   15.25
  -5   3   8  436.32   15.83
  -5  -3   8  404.26   15.18
  -5   3  -8  401.89   13.48
  -5  -3  -8  466.22   16.82
   5  -3   9  256.90   25.13
   5   3   9  283.61   11.41
  -5   3   9  234.09    9.39
  -5   3  -9  296.53    9.72
  -5  -3  -9  240.32    9.59
   5  -3  10   48.17    5.30
   5   3  10   31.50    5.00
  -5   3  10   54.73    4.09
  -5  -3 -10   49.26    4.30
  -5   3 -10   27.00    1.79
   5   3  11  134.96   15.56
  -5   3  11   76.10   10.34
  -5  -3 -11   89.10   12.38
  -5   3 -11  134.28   14.46
   5  -3  12   88.78   13.67
   5   3  12   50.10    6.89
  -5   3  12   74.16    8.82
  -5  -3 -12   80.87    9.77
  -5   3 -12   56.81    6.51
   5  -3  13   92.87   17.46
   5   3  13   46.76    7.54
  -5   3  13  100.40   12.65
  -5  -3 -13  106.34   13.74
  -5   3 -13   58.36    7.41
   5  -3  14   85.47   14.38
   5   3  14   84.39   11.17
  -5   3  14   64.71    8.58
  -5  -3 -14   65.94    8.84
  -5   3 -14   67.43    9.82
   5  -3  15   42.38    6.60
   5   3  15   21.13    3.72
  -5   3  15   47.76    5.41
  -5  -3 -15   48.12    7.95
  -5   3 -15   26.43    4.67
   5  -3  16   88.76   10.62
   5   3  16   64.11   11.92
  -5   3  16   88.38    6.69
  -5  -3 -16   88.53    7.32
  -5   3 -16   71.81   10.29
   5  -3  17  342.79   34.49
   5   3  17  315.06   16.07
  -5   3  17  294.79   14.11
  -5  -3 -17  298.82   31.99
   5  -3  18   67.23   14.15
   5   3  18   73.39    8.60
  -5   3  18   75.99    7.55
  -5  -3 -18   80.13    8.70
   5  -3  19  431.71   27.33
  -5   3  19  413.08   25.44
  -5  -3 -19  404.10   25.37
   5  -3  20   79.85   19.36
   5   3  20   63.48    8.01
  -5  -3 -20   84.95   10.07
   5  -3  21   26.18    7.90
   5   3  21   31.44    9.58
  -5  -3 -21   10.57    4.38
   5   4   0  103.33    5.32
  -5  -4   0  114.78   13.27
   5  -4   0  109.83    4.47
   5  -4   0  103.35    4.28
   5  -4   1   18.66    3.81
   5   4  -1   15.68    2.22
   5   4   1    6.46    2.44
  -5  -4   1    1.43    1.52
  -5  -4   1    5.59    1.88
   5  -4  -1    2.17    0.60
  -5  -4  -1   15.58    3.12
   5  -4   2  138.91   14.71
   5   4  -2  131.79    9.61
   5   4   2  146.77    7.15
  -5  -4   2  130.64    5.86
   5  -4  -2  147.68    6.43
  -5  -4   2  152.24   11.49
  -5  -4  -2  136.85   11.48
   5  -4   3  741.45   30.02
   5   4  -3  669.09   26.51
   5   4   3  825.40   32.72
  -5  -4   3  771.53   29.94
   5  -4  -3  794.88   30.80
  -5  -4   3  831.60   34.01
  -5  -4  -3  748.90   29.95
   5  -4   4  241.18   15.06
   5   4  -4  227.38    9.44
   5   4   4  259.09   11.55
  -5  -4   4  243.94    9.87
  -5   4   4  247.05   11.72
   5  -4  -4  234.18    9.58
  -5  -4   4  294.19   23.70
  -5  -4  -4  253.13   11.25
   5   4  -5  110.13   10.10
   5  -4   5  156.58   21.95
   5   4   5  164.96   14.59
  -5  -4   5  159.66   13.41
  -5   4   5  109.69   10.47
  -5  -4   5  162.16   16.56
  -5  -4  -5  115.35   10.47
   5  -4   6   40.48    6.92
   5   4   6   40.63    4.94
  -5  -4   6   50.54    4.29
  -5   4   6   49.09    6.24
  -5  -4   6   51.89    4.42
  -5  -4   6   60.12   11.06
  -5  -4  -6   40.83    5.00
   5  -4   7  233.67   29.27
   5   4   7  279.23   11.32
  -5   4   7  240.92   20.99
  -5  -4   7  261.28   10.76
  -5  -4  -7  256.92    9.93
   5  -4   8  596.83   20.63
   5   4   8  587.31   20.45
  -5   4   8  659.84   22.41
  -5  -4   8  633.32   21.76
  -5  -4  -8  590.48   20.09
   5   4   9  351.90   13.40
  -5   4   9  429.11   15.54
  -5  -4   9  381.38   17.52
  -5   4  -9  317.51   10.43
  -5   4  -9  353.14   11.04
  -5  -4  -9  410.83   15.14
   5  -4  10  349.07   32.28
   5   4  10  467.29   17.59
  -5   4  10  375.14   14.19
  -5  -4 -10  370.87   13.83
  -5   4 -10  491.94   15.67
   5  -4  11   58.46   11.23
   5   4  11   77.38    9.85
  -5   4  11   60.43    7.79
  -5  -4 -11   55.36    7.36
  -5   4 -11   79.11    9.14
   5  -4  12   56.35   10.05
   5   4  12   77.70   10.18
  -5   4  12   30.34    4.76
  -5  -4 -12   44.85    7.01
  -5   4 -12   74.89    8.26
   5  -4  13   85.53   17.37
   5   4  13   72.41   10.09
  -5   4  13   70.47    9.18
  -5  -4 -13   71.24    9.56
  -5   4 -13   65.23    8.03
   5  -4  14   23.95    5.01
   5   4  14    4.55    4.00
  -5   4  14   15.15    3.19
  -5  -4 -14   28.35    5.31
   5  -4  15  137.94   20.09
   5   4  15  131.00    9.84
  -5   4  15  140.16    9.44
  -5  -4 -15  116.46    8.27
   5  -4  16   11.06    3.01
   5   4  16    5.68    3.88
  -5   4  16   11.47    4.33
  -5  -4 -16    8.79    3.61
   5  -4  17  133.36   20.33
   5   4  17  110.41   11.17
  -5   4  17  128.50   11.72
  -5  -4 -17  132.54   12.33
   5  -4  18   75.61   12.27
   5   4  18   60.66   10.69
  -5   4  18   79.31    7.14
  -5  -4 -18   88.26    8.30
   5  -4  19   13.96    4.55
   5   4  19   20.80    5.75
  -5   4  19    8.78    2.61
  -5  -4 -19   13.55    3.85
   5  -4  20   99.63   22.77
   5   4  20   88.26    9.14
  -5   4  20   83.45    7.56
  -5  -4 -20  102.10    9.17
   5  -4  21   36.61    7.83
   5   4  21   37.71    8.05
  -5  -4 -21   42.36    9.07
   5   5   0  283.50   10.73
  -5  -5   0  249.49   21.60
   5  -5   0  278.38    9.06
   5  -5   0  252.44   20.93
   5   5  -1   63.24    6.01
   5   5   1   27.86    3.41
  -5  -5   1   33.64    3.40
   5  -5  -1   28.88    3.80
  -5  -5   1   41.16    6.78
  -5  -5  -1   58.32    7.72
   5  -5  -1   37.69    3.44
   5   5  -2  137.86   11.91
   5   5   2  213.18   18.34
  -5  -5   2  175.12   17.05
   5  -5  -2  190.13   16.44
  -5  -5   2  216.15   24.23
  -5  -5  -2  159.15   14.13
   5  -5  -2  198.50   16.69
   5  -5   3  135.70   16.96
   5   5  -3  105.89   11.30
   5   5   3  113.15   10.36
  -5  -5   3  112.98    9.72
  -5   5   3  117.22   11.45
   5  -5  -3   97.92    8.91
  -5  -5   3  130.29   17.21
  -5  -5  -3  116.20   11.28
   5  -5  -3  119.37   10.27
   5  -5   4  115.00   19.32
   5   5  -4   85.54    9.42
   5   5   4   70.24    6.91
  -5  -5   4   67.90    5.96
  -5   5   4   98.40    9.64
   5  -5  -4   64.78    5.75
  -5  -5   4   89.24   12.92
  -5  -5  -4  101.91   10.09
   5  -5  -4   73.69    6.69
   5  -5   5  310.87   12.52
   5   5  -5  266.67    9.13
   5   5   5  268.38   11.32
  -5  -5   5  245.99   20.51
  -5   5   5  276.99   11.44
  -5  -5   5  250.93   23.17
  -5  -5  -5  277.65   11.05
   5  -5   6  556.24   19.55
   5   5   6  568.54   19.67
  -5   5   6  560.63   19.48
  -5  -5   6  579.67   20.14
  -5  -5  -6  574.55   20.35
   5  -5   7  372.35   14.21
   5   5   7  361.69   13.84
  -5   5   7  336.28   13.00
  -5  -5   7  359.53   17.31
  -5  -5  -7  308.45   11.84
   5   5   8  256.65   11.53
  -5   5   8  243.39   10.42
  -5  -5   8  289.48   24.04
  -5  -5  -8  262.56   16.60
   5  -5   9   44.07    9.61
   5   5   9   24.16    4.80
  -5   5   9   46.27    8.17
  -5  -5   9   25.78    5.23
  -5  -5  -9   45.48    7.03
   5  -5  10   78.07   11.88
   5   5  10   54.85    7.77
  -5   5  10   60.55    7.82
  -5  -5  10   56.95   10.48
  -5  -5 -10   88.52   10.74
   5  -5  11   17.74    3.81
   5   5  11   21.34    4.77
  -5   5  11   13.75    4.32
  -5  -5 -11   10.81    2.66
   5  -5  12  584.82   28.38
   5   5  12  554.06   26.98
  -5   5  12  602.52   28.85
  -5  -5 -12  599.79   29.29
   5  -5  13   76.57   13.39
   5   5  13   53.68    8.10
  -5   5  13   67.86    9.05
  -5  -5 -13   65.49    9.14
   5  -5  14    3.95    2.34
   5   5  14    5.01    3.69
  -5   5  14    5.25    3.27
  -5  -5 -14    3.12    3.29
   5  -5  15  148.53   16.25
   5   5  15  145.21   10.83
  -5   5  15  157.59   10.81
  -5  -5 -15  150.78   10.80
   5  -5  16   54.52   11.70
   5   5  16   67.20   13.58
  -5   5  16   49.44    8.11
  -5  -5 -16   52.86    8.77
   5  -5  17  118.45   15.73
   5   5  17  120.77   11.07
  -5   5  17  125.82   10.47
  -5  -5 -17  135.36   11.65
   5  -5  18  235.45   35.26
   5   5  18  323.20   21.50
  -5   5  18  264.04   17.20
  -5  -5 -18  278.35   18.32
   5  -5  19   85.88   12.66
   5   5  19  125.25   13.25
  -5   5  19   84.29    9.22
  -5  -5 -19   92.61   10.62
   5  -5  20   80.50   16.43
   5   5  20  104.67   15.39
  -5   5  20   95.68   13.56
  -5  -5 -20   58.54   15.14
   5   6   0  363.37   12.58
  -5  -6   0  361.89   16.10
   5   6  -1   66.72    3.74
   5   6   1   32.74    2.82
   5  -6  -1   38.04    3.15
  -5  -6   1   40.31    6.02
  -5  -6  -1   75.11    8.81
   5  -6  -1   54.55    3.78
   5   6  -2  322.32   11.05
   5   6   2  306.50   11.13
  -5  -6   2  261.20    9.03
  -5   6   2  327.02   12.75
   5  -6  -2  289.66    9.45
  -5  -6   2  310.72   15.83
  -5  -6  -2  345.08   13.33
   5  -6  -2  308.71   10.75
   5   6  -3 1144.69   35.78
   5   6   3 1254.92   40.13
  -5  -6   3  960.06   29.99
  -5   6   3 1242.47   40.49
  -5  -6   3 1170.82   38.05
  -5  -6  -3 1202.64   38.89
   5  -6  -3 1160.19   36.17
   5   6  -4   53.26    4.45
   5   6   4   58.51    4.30
  -5   6   4   47.61    4.85
  -5  -6   4   53.66    9.63
  -5  -6  -4   68.27    5.96
   5  -6  -4   44.90    2.67
   5  -6   5  206.22   19.14
   5   6  -5  147.31    4.97
   5   6   5  191.85    8.71
  -5  -6   5  139.36    4.71
  -5   6   5  191.46    9.43
  -5  -6   5  196.21   23.60
  -5  -6  -5  151.26    7.48
   5  -6  -5  170.57    6.57
   5   6   6   75.10   10.75
  -5   6   6   88.53   12.74
  -5  -6   6   93.62   15.83
  -5  -6  -6   78.01   11.14
   5  -6  -6   68.85   10.24
   5  -6   7  126.93   18.33
   5   6   7  111.89   15.22
  -5   6   7  142.50    8.89
  -5  -6   7  126.91   20.19
  -5  -6  -7  112.93   15.14
   5  -6  -7  110.97   14.45
   5  -6   8   14.59    3.19
   5   6   8   19.66    4.27
  -5   6   8   11.71    2.73
  -5  -6   8   21.95    4.32
  -5  -6  -8   11.62    3.48
   5  -6  -8   26.66    4.59
   5  -6   9  600.11   25.83
   5   6   9  700.35   23.67
  -5   6   9  632.53   21.46
  -5  -6   9  734.52   24.47
  -5  -6  -9  618.79   21.42
   5  -6  -9  743.52   23.91
   5  -6  10   19.75    4.23
   5   6  10   31.86    5.84
  -5   6  10   18.88    3.81
  -5  -6  10   32.80    7.74
  -5  -6 -10   21.50    5.61
   5  -6 -10   20.70    3.87
   5  -6  11  105.02   20.09
   5   6  11   97.84    9.93
  -5   6  11   92.88   12.07
  -5  -6  11  101.50   10.04
  -5  -6 -11   91.54   11.86
   5  -6 -11   98.20    9.20
   5  -6  12   82.27   11.35
   5   6  12   72.64    8.48
  -5   6  12   63.46    7.95
  -5  -6 -12   70.29    8.03
   5  -6 -12   65.58    7.61
   5  -6  13   49.31    6.56
   5   6  13   28.90    6.50
  -5   6  13   42.02    5.79
  -5  -6 -13   46.08    6.53
   5  -6 -13   51.77    6.24
   5  -6  14    6.13    1.97
   5   6  14   16.76    5.02
  -5   6  14    0.10    3.59
  -5  -6 -14   10.77    4.82
   5  -6 -14   19.68    5.87
   5  -6  15   41.92    9.20
   5   6  15   43.60    8.39
  -5   6  15   47.72    8.06
  -5  -6 -15   23.56    5.16
   5  -6 -15   48.77    8.41
   5  -6  16  127.01   20.60
   5   6  16   96.23    9.18
  -5   6  16  129.84   10.75
  -5  -6 -16  120.04   10.30
   5  -6 -16  110.41    9.58
   5  -6  17   22.99    7.78
   5   6  17   46.01    8.63
  -5   6  17   11.47    4.03
  -5  -6 -17   20.96    6.09
   5  -6 -17   39.58    6.85
   5  -6  18  104.33   16.49
   5   6  18   80.89    9.59
  -5   6  18  126.98   12.39
  -5  -6 -18  118.78   12.99
   5  -6 -18  107.03   11.58
   5  -6  19   47.54   13.62
   5   6  19   68.61    8.96
  -5   6  19   63.04    6.78
  -5  -6 -19   49.03    6.49
   5  -6 -19   43.21    5.94
   5   7   0   39.04    5.76
  -5  -7   0   27.23    5.74
   5   7  -1  158.11    6.39
   5   7   1  163.60    7.20
  -5  -7   1  153.11   13.56
  -5  -7  -1  170.06   14.89
   5  -7  -1  143.63    4.93
   5   7  -2  155.89    6.14
   5   7   2  126.55   14.08
  -5   7   2  183.69    9.28
  -5  -7   2  155.03   18.79
  -5  -7  -2  159.39    8.04
   5  -7  -2  132.17   14.15
   5   7  -3  120.27   15.38
   5   7   3   96.32   12.79
  -5   7   3  131.31   15.17
  -5  -7   3  111.63   20.67
  -5  -7  -3  133.89   15.30
   5  -7  -3  110.38   14.10
   5   7  -4  612.54   19.61
   5   7   4  664.96   22.59
  -5   7   4  654.54   23.35
  -5  -7   4  638.61   28.68
  -5  -7  -4  651.03   22.59
   5  -7  -4  660.59   22.44
   5   7  -5    5.66    1.10
   5   7   5   15.23    3.09
  -5   7   5   14.77    6.09
  -5  -7   5   14.17    3.32
  -5  -7  -5    8.64    3.64
   5  -7  -5    7.57    1.48
   5   7   6 1389.37  160.21
  -5   7   6 1376.86  158.91
  -5  -7   6 1356.90   42.73
  -5  -7  -6 1319.73   41.33
   5  -7  -6 1343.36   40.96
   5  -7   7  239.94   21.34
   5   7   7  231.97   10.22
  -5   7   7  213.75    9.92
  -5  -7   7  276.48   24.93
  -5  -7  -7  202.77    9.19
   5  -7  -7  235.06    8.91
   5  -7   8  316.50   16.87
   5   7   8  353.46   18.03
  -5   7   8  286.78   15.36
  -5  -7   8  361.39   18.54
  -5  -7  -8  307.91   16.62
   5  -7  -8  326.16   15.84
   5  -7   9  263.69   30.74
   5   7   9  247.62   16.62
  -5   7   9  236.15   16.66
  -5  -7   9  226.27   27.63
  -5  -7  -9  243.42   16.28
   5  -7  -9  262.19   16.66
   5  -7  10   49.07   10.51
   5   7  10   42.93    6.83
  -5   7  10   44.94    6.97
  -5  -7  10   34.59    6.32
  -5  -7 -10   43.35    6.85
   5  -7 -10   32.35    6.62
   5  -7  11   69.74   13.43
   5   7  11   76.80    8.36
  -5   7  11   74.30    8.43
  -5  -7  11   72.08   10.07
  -5  -7 -11   74.69    8.40
   5  -7 -11   75.21    7.39
   5  -7  12  105.01   13.11
   5   7  12   91.59    8.55
  -5   7  12  107.96    9.15
  -5  -7 -12  108.80    8.75
   5  -7 -12   85.18    6.83
   5  -7  13   54.58   12.57
   5   7  13   45.96    8.10
  -5   7  13   43.13    8.79
  -5  -7 -13   48.35    7.98
   5  -7 -13   35.05    7.21
   5  -7  14   88.31   14.89
   5   7  14   81.83    8.92
  -5   7  14   84.78   10.01
  -5  -7 -14   96.29    9.83
   5  -7 -14   82.28    8.58
   5  -7  15   43.63    9.48
   5   7  15   39.01    7.69
  -5   7  15   63.73   11.33
  -5  -7 -15   49.76    9.55
   5  -7 -15   42.63    7.47
   5  -7  16  101.59   18.36
   5   7  16  105.38    9.34
  -5   7  16  117.00   10.67
  -5  -7 -16  104.40    9.03
   5  -7 -16  132.48   10.12
   5  -7  17   21.65    5.88
   5   7  17   15.38    6.79
  -5   7  17   23.82    7.28
  -5  -7 -17    2.71    3.66
   5  -7 -17   16.74    6.06
   5  -7  18   95.84   18.93
   5   7  18  117.44   10.87
  -5   7  18  118.15   10.71
  -5  -7 -18  106.90    9.83
   5  -7 -18  110.64   14.12
   5   8   0  162.05    6.79
  -5   8   0  158.71    8.95
  -5  -8   0  165.45   16.63
   5   8  -1  100.19   11.20
   5   8   1   89.88   10.52
  -5   8   1   97.10   12.33
  -5   8  -1   89.60   11.90
  -5  -8   1   94.90   13.77
  -5  -8  -1   97.12   14.10
   5   8  -2  265.66    9.35
   5   8   2  258.59    9.76
  -5   8   2  258.17   11.40
  -5  -8   2  266.51   27.76
  -5  -8  -2  266.53   22.97
   5  -8  -2  233.70    7.72
   5   8  -3  112.38   13.35
   5   8   3  136.66    7.98
  -5  -8   3  131.58   16.24
  -5  -8  -3   95.54   12.35
   5  -8  -3  139.28    7.08
   5   8   4   77.86   10.50
  -5   8   4   78.17   10.95
  -5  -8   4   77.58   13.11
  -5  -8  -4   80.52   11.12
   5  -8  -4   66.81   10.39
   5   8   5  256.84   13.42
  -5   8   5  275.77   15.16
  -5  -8   5  233.60   25.34
  -5  -8  -5  236.48   13.13
   5  -8  -5  229.14   11.20
   5   8   6  261.12   17.17
  -5   8   6  314.99   20.95
  -5  -8   6  204.17   16.50
  -5  -8  -6  290.41   19.02
   5  -8  -6  238.83   14.96
   5   8   7  145.62   10.72
  -5   8   7  139.77   11.09
  -5  -8   7  144.98   15.75
  -5  -8  -7  135.71   10.33
   5  -8  -7  126.97    8.79
   5   8   8   17.58    3.21
  -5   8   8   34.57    6.27
  -5  -8   8   21.01    3.87
  -5  -8  -8   28.66    4.87
   5  -8  -8   14.53    2.38
   5   8   9  517.16   29.27
  -5   8   9  538.02   30.86
  -5  -8   9  521.20   29.36
  -5  -8  -9  477.74   27.15
   5  -8  -9  485.38   26.77
   5  -8  10   15.26    3.71
   5   8  10   29.07    6.72
  -5   8  10   13.96    4.57
  -5  -8  10   38.05    7.76
  -5  -8 -10   10.61    5.63
   5  -8 -10   36.09    7.44
   5  -8  11   68.88   10.22
   5   8  11   68.59    5.71
  -5   8  11   64.35   13.17
  -5  -8  11   68.67    8.55
  -5  -8 -11   75.27    5.89
   5  -8 -11   60.05   10.30
   5  -8  12   49.40    9.58
   5   8  12   68.31    6.59
  -5   8  12   45.79    8.59
  -5  -8 -12   34.22    5.88
   5  -8 -12   65.29   12.71
   5  -8  13   43.93   10.87
   5   8  13   23.20    6.47
  -5   8  13   34.82    8.06
  -5  -8 -13   46.03   10.30
   5  -8 -13   50.51    6.84
   5  -8  14  159.35   27.86
   5   8  14  205.77   16.33
  -5   8  14  175.31   14.03
  -5  -8 -14  178.27   14.01
   5  -8 -14  179.91   13.60
   5  -8  15   41.49   11.52
   5   8  15   53.94    6.62
  -5   8  15   43.43    7.82
  -5  -8 -15   38.91    6.32
   5  -8 -15   59.28    7.17
   5  -8  16  222.99   23.31
   5   8  16  265.82   24.25
  -5   8  16  273.24   24.51
  -5  -8 -16  275.75   25.42
   5  -8 -16  243.99   21.70
   5  -8  17   19.32    6.26
   5   8  17   -0.67    4.68
  -5   8  17   13.55    6.13
  -5  -8 -17   13.89    4.69
   5  -8 -17    7.34    3.54
   5   9   0  161.42   10.94
  -5   9   0  180.79   13.62
  -5  -9   0  183.86   22.03
   5   9  -1  232.58   14.85
   5   9   1  248.15   15.99
  -5   9   1  243.80   16.99
  -5   9  -1  247.08   18.02
  -5  -9   1  228.50   15.64
  -5  -9  -1  240.42   27.85
   5   9  -2   35.41    4.95
   5   9   2   54.24    7.73
  -5   9   2   48.65    8.15
  -5   9  -2   47.76    7.96
  -5  -9   2   43.57    9.12
  -5  -9  -2   35.78    8.78
   5   9   3   35.61    5.94
  -5   9   3   65.32   10.07
  -5   9  -3   36.27    7.66
  -5  -9   3   46.99    7.92
  -5  -9  -3   48.04    7.12
   5   9   4  214.20   13.11
  -5  -9   4  237.89   27.47
  -5  -9  -4  241.18   14.96
   5   9   5   27.58    4.32
  -5   9   5   21.63    5.08
  -5  -9   5   48.26   10.09
  -5  -9  -5   40.79    5.95
   5  -9  -5   43.96    4.53
   5   9   6  218.37   13.44
  -5   9   6  222.98   14.61
  -5  -9  -6  229.55   14.46
   5  -9  -6  214.71   12.40
   5   9   7   53.56   10.00
  -5   9   7   23.88    5.57
  -5  -9   7   48.55   10.17
  -5  -9  -7   41.57    8.21
   5  -9  -7   55.45    9.94
   5   9   8  226.65   14.58
  -5   9   8  247.84   16.42
  -5  -9  -8  264.75   17.21
   5  -9  -8  236.56   14.43
   5   9   9   14.64    5.10
  -5   9   9    9.10    4.15
  -5  -9  -9    8.04    2.82
   5  -9  -9   10.44    2.83
   5   9  10   20.59    5.96
  -5   9  10   17.35    5.72
  -5  -9  10   16.72    4.41
  -5  -9 -10   19.54    6.29
   5  -9 -10   27.27    7.09
   5   9  11  110.92   11.24
  -5   9  11  104.94   11.00
  -5  -9  11   92.54   17.52
  -5  -9 -11  101.31   10.44
   5  -9 -11   94.02    9.07
   5   9  12   43.37    8.41
  -5   9  12   30.01    6.94
  -5  -9  12   43.31    7.65
  -5  -9 -12   29.81    5.58
   5  -9 -12   29.61    5.60
   5   9  13  100.03    8.83
  -5   9  13   74.40    8.16
  -5  -9 -13  101.17    8.92
   5  -9 -13   78.07    6.65
   5  -9  14   32.48    7.68
   5   9  14   15.90    4.84
  -5   9  14   30.31    7.54
  -5  -9 -14   23.23    5.64
   5  -9 -14   19.54    4.75
   5  -9  15   17.16    6.13
   5   9  15   21.64    7.53
  -5   9  15   14.89    7.05
  -5  -9 -15   13.54    4.98
   5  -9 -15   29.32    9.81
   5  -9  16   64.89   17.16
   5   9  16  100.08   15.04
  -5   9  16   76.85   11.66
  -5  -9 -16   89.54   13.15
   5  -9 -16   91.34   13.01
   5  10   0   26.20    5.13
  -5  10   0   20.70    5.22
  -5 -10   0   21.55    5.22
   5  10  -1   27.28    5.39
   5  10   1   31.63    6.48
  -5  10   1   13.67    4.85
  -5  10  -1   36.58    9.34
  -5 -10   1   33.39    9.32
  -5 -10  -1   29.95    6.73
   5  10   2   58.16   10.51
  -5  10   2   53.46   10.16
  -5  10  -2   65.35   10.99
  -5 -10   2   74.51   13.02
  -5 -10  -2   49.82   10.04
   5  10   3   22.82    4.96
  -5  10   3   37.97    8.24
  -5  10  -3   26.92    6.92
  -5 -10   3   22.14    5.35
  -5 -10  -3   30.14    6.73
   5  10   4  109.84    7.47
  -5  10   4   97.59    7.93
  -5  10  -4  125.86    9.05
  -5 -10   4  127.26   16.77
  -5 -10  -4   99.30    7.52
   5  10   5   99.56    8.06
  -5  10   5   70.50    7.27
  -5  10  -5   88.60    7.44
  -5 -10  -5   91.67    6.78
   5  10   6    6.82    4.40
  -5 -10   6    8.11    2.67
  -5 -10  -6   13.44    5.04
   5  10   7  107.80   10.53
  -5  10   7  102.88   12.11
  -5 -10   7  102.11   19.31
  -5 -10  -7   93.09   10.79
   5  10   8   60.14    6.96
  -5  10   8   73.29    9.03
  -5 -10   8   54.50    9.18
  -5 -10  -8   63.58    8.37
   5  10   9  148.25   12.55
  -5  10   9  127.64   11.85
  -5 -10   9  148.68   17.71
  -5 -10  -9  130.40   11.07
   5  10  10   16.55    4.27
  -5  10  10    6.43    4.65
  -5 -10  10   13.07    3.30
  -5 -10 -10   11.42    3.98
   5 -10 -10   10.12    2.38
   5  10  11   49.07    7.65
  -5  10  11   47.17    9.34
  -5 -10  11   40.88   12.98
  -5 -10 -11   43.04    7.70
   5 -10 -11   48.70    7.03
   5  10  12   21.23    5.91
  -5  10  12   18.28    7.23
  -5 -10  12   18.16    6.60
  -5 -10 -12   22.74    6.86
   5 -10 -12   23.14    5.53
   5  10  13    9.43    5.93
  -5  10  13    8.00    4.99
  -5 -10  13   14.65    5.88
  -5 -10 -13    8.19    5.63
   5 -10 -13    9.95    3.18
   5  10  14  140.82   19.49
  -5  10  14  138.00   19.34
  -5 -10 -14  147.61   20.32
   5 -10 -14  128.29   17.52
  -5  11   0    3.13    4.55
  -5 -11   0    5.40    3.15
   5  11   1  293.73   24.94
  -5  11   1  266.59   23.63
  -5  11  -1  272.34   23.71
  -5 -11  -1  229.82   30.35
   5  11   2   44.18    8.84
  -5  11   2   62.22    8.61
  -5  11  -2   31.76    8.60
  -5 -11   2   30.99    9.25
  -5 -11  -2   66.93   10.32
   5  11   3   57.42    6.62
  -5  11   3   90.30   11.77
  -5  11  -3   52.38    7.71
  -5 -11   3   68.04    9.88
  -5 -11  -3   66.30   11.35
   5  11   4   98.37    8.37
  -5  11   4   93.53    9.40
  -5  11  -4   99.62    9.78
  -5 -11   4   93.90   13.85
  -5 -11  -4  119.93   11.06
  -5  11   5   16.63    5.81
  -5  11  -5   10.14    6.18
  -5 -11   5   10.26    3.18
  -5 -11  -5   18.48    6.01
   5  11   6  135.21   11.43
  -5  11   6  139.37   12.05
  -5  11  -6  119.83   11.11
  -5 -11   6  130.23   16.46
  -5 -11  -6  136.47   11.97
   5  11   7   43.38    7.04
  -5  11  -7   55.16    6.62
  -5 -11   7   40.10    8.21
  -5 -11  -7   50.96   11.22
   5  11   8   58.15    6.23
  -5  11   8   62.85    7.34
  -5 -11   8   55.79   12.90
  -5 -11  -8   41.56    7.99
   5  11   9   14.68    4.64
  -5  11   9   14.06    4.75
  -5 -11   9   14.54    5.14
  -5 -11  -9    7.75    4.57
   5  11  10   12.70    4.64
  -5  11  10   18.31    6.23
  -5 -11  10   15.98    4.92
  -5 -11 -10   19.43    6.42
   5  11  11   72.62    8.07
  -5  11  11   78.50    8.65
  -5 -11  11   74.11   12.90
  -5 -11 -11   83.98    8.53
   5  11  12    5.49    3.70
  -5  11  12   10.13    4.77
  -5 -11  12    5.88    3.05
  -5 -11 -12    5.54    3.85
  -5  12   0    2.17    4.77
  -5 -12   0    4.92    3.71
  -5  12   1    6.03    4.74
  -5  12  -1    9.93    5.13
  -5 -12   1   13.92    4.39
  -5 -12  -1    8.30    4.89
  -5  12   2   69.18    8.84
  -5  12  -2   66.25    8.71
  -5 -12   2   74.77   11.61
   5  12   3   13.57    4.30
  -5  12   3   20.84    8.30
  -5  12  -3   17.80    5.45
  -5 -12   3   10.67    3.18
  -5 -12  -3   10.07    3.03
   5  12   4   63.47    6.92
  -5  12   4   64.87    9.17
  -5  12  -4   64.50    9.43
  -5 -12   4   55.69    8.85
  -5 -12  -4   61.44   12.63
   5  12   5   42.92    5.54
  -5  12   5   71.92   10.79
  -5  12  -5   70.02    9.12
  -5 -12   5   39.45   12.72
  -5 -12  -5   45.38    6.87
   5  12   6    0.85    3.02
  -5  12   6    5.64    4.99
  -5  12  -6    2.50    4.09
  -5 -12   6    3.76    1.87
  -5 -12  -6   -3.72    3.85
   5  12   7    5.88    3.63
  -5  12   7   22.58    9.28
  -5  12  -7    9.78    5.97
  -5 -12  -7   22.29    8.17
   5  12   8   67.28   10.21
  -5  12   8   63.63   11.31
  -5  12  -8   81.33   12.53
  -5 -12   8   68.79   14.07
  -5 -12  -8   52.69    9.31
   5  12   9   15.70    4.70
  -5  12   9   24.80    7.49
  -5  12  -9   10.23    4.46
  -5 -12   9   22.47    6.08
  -5 -12  -9   13.39    5.65
  -5  13   0    6.81    4.99
  -5 -13   0    4.17    2.64
  -5  13   1   82.16   12.97
  -5  13  -1   90.89   13.96
  -5 -13   1   64.60   13.90
  -5 -13  -1   67.55   15.38
  -5  13   2   48.00    9.05
  -5  13  -2   67.48   11.19
  -5 -13   2   40.93   13.36
  -5 -13  -2   65.10   16.43
  -5  13   3   10.38    5.16
  -5  13  -3   19.97    7.28
  -5 -13  -3   18.70    5.29
   6   0   0 2018.11   78.00
  -6   0   0 2256.79  187.16
   6   0  -1  334.20   14.25
   6   0   1  343.86   14.77
  -6   0   1  302.23   13.28
  -6   0  -1  357.47   14.73
   6   0  -2  689.56   30.23
   6   0   2  751.97   30.21
  -6   0   2  765.44   30.25
  -6   0  -2  764.89   30.41
   6   0  -3 1091.20   36.50
   6   0   3 1065.09   36.10
  -6   0   3 1087.96   36.17
  -6   0  -3 1052.57   35.06
   6   0   4  131.97   17.51
  -6   0  -4  123.52   12.64
   6   0   5  126.39   14.69
  -6   0  -5  134.95   13.44
   6   0   6    7.02    2.96
  -6   0   6    5.71    2.17
  -6   0  -6    0.26    1.59
   6   0   7   10.05    3.62
  -6   0   7    7.44    3.58
  -6   0  -7    4.90    1.60
   6   0   8    4.53    2.77
  -6   0   8    5.13    1.93
  -6   0  -8    9.34    2.38
   6   0   9  359.42   28.25
  -6   0   9  339.01   11.86
   6   0  10    3.36    2.63
  -6   0  10   11.11    2.80
  -6   0 -10    4.94    1.81
   6   0  11   59.16   10.29
  -6   0  11   54.79    6.38
  -6   0 -11   54.87    6.69
   6   0  12  107.12   17.15
  -6   0  12   93.52   11.26
  -6   0 -12  111.05   13.43
   6   0  13   49.89   11.28
  -6   0  13   51.16    6.43
  -6   0 -13   56.23    7.32
   6   0  14  213.79   24.04
  -6   0 -14  230.08   13.72
   6   0  15  707.02   95.36
  -6   0 -15  659.24   38.02
   6   0  16   83.69   12.38
  -6   0 -16  101.54    6.56
   6   0  17   35.12    8.48
  -6   0 -17   28.56    6.04
   6   0  18   12.95    3.71
  -6   0 -18    4.82    1.60
   6   0  19   60.94    8.90
   6  -1   0 1743.53   67.73
   6   1   0 1747.57   67.73
  -6   1   0 1817.92   69.94
  -6  -1   0 1836.48   70.97
   6  -1   0 1592.30   61.27
   6  -1  -1   72.47    8.65
   6   1  -1   87.21   11.52
   6  -1   1   81.32    9.40
   6   1   1   47.74    7.40
  -6   1  -1   57.84    4.72
  -6  -1   1   61.18    6.33
  -6  -1  -1   90.47    8.75
   6  -1   1   61.43    4.80
   6  -1  -2  559.18   20.89
   6   1  -2  548.74   19.08
   6  -1   2  515.10   19.83
   6   1   2  523.42   18.98
  -6  -1   2  555.75   19.94
  -6   1  -2  542.13   18.54
  -6  -1  -2  554.00   19.14
   6  -1   2  531.55   17.95
   6   1  -3  149.43   15.60
   6  -1   3  135.67   15.47
   6   1   3  107.70   15.51
  -6  -1   3  107.86   12.08
  -6   1  -3   94.62    9.66
  -6  -1  -3  143.27   16.79
   6  -1   3  120.93   10.40
   6  -1   4   31.51    6.76
   6   1   4   89.30   15.30
  -6  -1   4   84.00   11.02
  -6   1  -4   74.77    7.89
  -6  -1  -4   46.60    5.85
   6  -1   4   28.12    2.83
   6  -1   5   19.74    3.45
   6   1   5   23.02    4.22
  -6  -1   5   15.68    2.92
  -6   1  -5   12.56    2.28
  -6  -1  -5   27.32    3.46
   6  -1   5   13.87    1.87
   6  -1   6  368.52   28.52
   6   1   6  442.46   16.00
  -6   1   6  356.40   12.68
  -6   1  -6  427.18   14.13
  -6  -1  -6  363.81   12.73
   6  -1   6  336.95   11.19
   6  -1   7   54.54    9.02
   6   1   7   46.73    7.27
  -6  -1   7   25.17    2.80
  -6   1   7   40.37    3.15
  -6  -1   7   43.69    3.17
  -6   1  -7   32.70    2.55
  -6  -1  -7   46.99    3.51
   6  -1   8   -0.54    3.67
   6   1   8   30.45    6.36
  -6  -1   8   14.68    2.98
  -6   1   8    9.02    3.46
  -6  -1   8   22.90    3.53
  -6   1  -8   25.89    3.80
  -6  -1  -8    8.51    3.34
   6  -1   9   87.97   14.56
   6   1   9   83.87   17.37
  -6  -1   9   66.38    8.73
  -6   1   9   79.34   10.77
  -6   1  -9   82.62   10.74
  -6  -1  -9   85.92   11.50
   6  -1  10  732.66   27.22
   6   1  10  660.55   22.79
  -6  -1  10  650.25   20.10
  -6   1  10  683.78   21.67
  -6   1 -10  720.48   22.40
  -6  -1 -10  714.77   23.23
   6  -1  11  134.63   21.44
   6   1  11   99.87   13.95
  -6  -1  11   82.36    9.17
  -6   1  11  113.21   12.64
  -6  -1 -11  117.39   13.10
  -6   1 -11   88.93    9.94
   6  -1  12  914.79  105.88
   6   1  12  882.77  102.12
  -6   1  12  856.41   39.34
  -6   1 -12  923.29  106.72
  -6  -1 -12  817.66   38.84
   6  -1  13   71.49   13.25
   6   1  13   72.07   10.11
  -6   1  13   81.13   10.07
  -6   1 -13   79.66   10.02
  -6  -1 -13   79.96   10.42
   6  -1  14  155.46   22.74
   6   1  14  152.43   18.15
  -6   1  14  130.46    8.13
  -6   1 -14  165.33    9.97
  -6  -1 -14  123.94    8.30
   6  -1  15  156.73   25.12
   6   1  15  195.09   29.14
  -6  -1 -15  174.64   11.29
  -6   1 -15  206.28   12.77
   6   1  16    8.42    2.58
  -6  -1 -16   29.13    4.99
  -6   1 -16   10.14    2.55
   6  -1  17  196.88   24.09
   6   1  17  183.02   24.70
  -6  -1 -17  207.01   17.85
   6  -1  18  116.88   17.22
   6   1  18   86.47   18.13
  -6  -1 -18  137.75   10.47
   6  -1  19   15.77    6.47
  -6  -1 -19   12.42    3.73
   6  -1  20   11.05    4.82
   6   1  20   -8.69    4.13
  -6  -1 -20    5.63    3.23
   6  -2   0 1000.61   34.06
   6   2   0  943.48   31.80
  -6  -2   0 1003.39   35.77
   6  -2   0  980.23   32.20
   6  -2  -1  258.92   11.50
   6  -2   1  315.29   12.29
   6   2  -1  314.63   12.40
   6   2   1  265.67   14.89
  -6  -2   1  270.00   15.50
  -6  -2  -1  357.38   17.99
   6  -2  -1  249.26   20.97
   6  -2   1  310.09   10.79
   6  -2   2  434.29   18.14
   6   2  -2  402.29   15.54
   6   2   2  514.11   18.33
  -6  -2   2  500.99   18.66
  -6  -2  -2  477.03   17.10
   6  -2  -2  401.18   13.73
   6  -2   2  463.46   15.58
   6   2  -3  412.24   16.44
   6  -2   3  443.32   20.28
   6   2   3  453.18   30.21
  -6   2  -3  400.14   13.55
  -6  -2   3  367.29   15.64
  -6  -2  -3  437.16   16.03
   6  -2   3  465.36   15.62
   6   2  -4  535.69   19.65
   6  -2   4  546.17   21.29
   6   2   4  656.47   23.42
  -6  -2   4  551.95   18.73
  -6  -2   4  664.72   23.36
  -6   2  -4  647.76   21.73
  -6  -2  -4  575.60   24.08
   6  -2   4  526.11   17.52
   6  -2   5  301.17   13.17
   6   2   5  315.47   25.46
  -6  -2   5  285.39    9.84
  -6   2   5  292.06   10.88
  -6  -2   5  311.63   11.67
  -6   2  -5  330.96   10.97
  -6  -2  -5  308.20   11.22
   6  -2   5  284.22    9.33
   6  -2   6   96.29   11.63
   6   2   6  127.87   10.91
  -6  -2   6   91.89    4.20
  -6   2   6   85.70    4.77
  -6  -2   6  116.09   15.08
  -6   2  -6  104.58    4.75
  -6  -2  -6   91.36    4.96
   6  -2   7  201.88   11.55
   6   2   7  246.84   10.52
  -6  -2   7  193.33    6.78
  -6  -2   7  224.52    7.83
  -6   2   7  214.61    8.61
  -6   2  -7  210.66    7.88
  -6  -2  -7  202.36    8.02
   6  -2   8  105.73   16.95
   6   2   8   87.54   19.10
  -6  -2   8   61.67    8.05
  -6   2   8  114.76   15.20
  -6   2  -8   53.98    7.77
  -6  -2  -8  113.89   14.91
   6  -2   9  587.21   21.13
   6   2   9  599.37   21.59
  -6  -2   9  552.65   17.76
  -6   2   9  603.49   20.64
  -6   2  -9  576.64   18.59
  -6  -2  -9  600.42   20.30
   6  -2  10  169.85   23.62
   6   2  10  128.68   16.80
  -6  -2  10  114.76   12.30
  -6   2  10  159.96    7.48
  -6   2 -10  121.01   13.08
  -6  -2 -10  150.04    6.62
   6  -2  11   57.94   12.31
   6   2  11   31.08    6.19
  -6   2  11   38.91    5.42
  -6   2 -11   23.74    3.36
  -6  -2 -11   48.50    7.05
   6  -2  12  303.56   20.35
   6   2  12  277.58   18.63
  -6   2  12  322.85   20.35
  -6   2 -12  291.51   17.94
  -6  -2 -12  318.34   19.97
   6  -2  13  216.59   21.90
   6   2  13  216.24   15.65
  -6   2  13  193.02   12.68
  -6  -2 -13  176.39   11.90
  -6   2 -13  213.76   13.49
   6  -2  14  219.18   21.82
   6   2  14  253.84   16.08
  -6   2  14  191.58   11.66
  -6  -2 -14  244.80   14.62
   6  -2  15  418.03   44.44
   6   2  15  355.08   22.39
  -6   2  15  362.67   21.45
  -6  -2 -15  378.67   22.66
   6  -2  16   23.54    6.68
   6   2  16   28.25    7.85
  -6   2  16   15.62    3.90
   6  -2  17   94.38   16.37
   6   2  17   72.51    7.70
   6  -2  18   39.26    8.71
   6   2  18   23.73    5.91
  -6  -2 -18   54.81    6.67
   6  -2  19    8.75    4.12
   6   2  19   23.43    7.40
  -6  -2 -19   10.62    4.35
   6  -2  20   43.33    9.42
  -6  -2 -20   51.44    8.78
   6  -3   0 1546.06   51.69
   6   3   0 1505.72   51.70
  -6  -3   0 1505.90   50.07
   6  -3   0 1490.85   48.42
   6  -3   1  231.64   20.27
   6   3  -1  229.90   21.82
   6   3   1  350.51   23.77
  -6  -3   1  350.19   25.52
  -6  -3  -1  261.29   21.37
   6  -3  -1  284.85    9.87
   6  -3   1  219.93   18.39
   6  -3   2  678.64   24.18
   6   3  -2  636.36   22.82
   6   3   2  622.11   21.69
  -6  -3   2  651.66   23.19
  -6  -3  -2  692.01   26.18
   6  -3  -2  589.87   19.77
   6  -3   2  709.03   23.22
   6  -3   3  281.28   26.99
   6   3  -3  210.47   19.00
   6   3   3  226.83   21.68
  -6  -3   3  283.37   25.06
   6  -3  -3  209.55   17.72
  -6  -3  -3  245.85   22.19
   6  -3   3  249.27   20.70
   6   3  -4   15.74    2.93
   6  -3   4   36.61    6.06
   6   3   4   16.10    3.12
  -6  -3   4   13.79    1.62
  -6  -3   4   31.15    4.32
  -6  -3  -4   11.61    2.45
   6  -3   5  253.75   12.95
   6   3   5  294.00   13.25
  -6  -3   5  277.58    9.43
  -6   3   5  262.30   10.53
  -6  -3   5  308.02   18.14
  -6  -3  -5  292.86   10.91
   6  -3   6   73.42    8.96
   6   3   6   77.71    6.87
  -6   3   6   61.55    4.48
  -6  -3   6   97.76   10.93
  -6  -3  -6   64.90    5.24
   6  -3   7  282.64   12.40
   6   3   7  293.33   11.95
  -6   3   7  267.64   10.53
  -6  -3   7  280.57    9.26
  -6  -3   7  314.76   12.21
  -6   3  -7  293.86    9.23
  -6  -3  -7  309.03   11.61
   6  -3   8  174.41   17.22
   6   3   8  226.32   10.11
  -6  -3   8  202.16    6.67
  -6   3   8  169.62    7.84
  -6  -3   8  233.51    9.90
  -6   3  -8  202.84    6.69
  -6  -3  -8  180.58    8.01
   6  -3   9   23.27    5.26
   6   3   9   13.96    3.34
  -6   3   9   12.77    2.97
  -6   3  -9    9.84    1.93
  -6  -3  -9   27.80    5.32
   6  -3  10  431.41   19.08
   6   3  10  569.90   20.38
  -6   3  10  516.99   17.58
  -6  -3 -10  522.96   17.61
   6  -3  11  289.60   30.54
   6   3  11  244.82   13.74
  -6   3  11  210.12   11.30
  -6  -3 -11  226.07   11.80
   6  -3  12  324.90   35.34
   6   3  12  191.18   14.13
  -6   3  12  238.05   15.45
  -6  -3 -12  276.50   17.78
   6   3  13  342.82   20.50
  -6   3  13  307.08   17.74
  -6  -3 -13  332.54   19.02
   6  -3  14  164.55   16.97
   6   3  14   94.41    8.18
  -6   3  14  131.75    9.18
  -6  -3 -14  129.84   10.49
   6  -3  15   38.82    7.48
   6   3  15   48.46    8.41
  -6   3  15   34.15    6.21
  -6  -3 -15   28.29    5.34
   6  -3  16   67.70   12.12
   6   3  16   88.61   11.53
  -6   3  16   73.13    7.55
  -6  -3 -16   62.58    6.79
   6  -3  17  104.55   20.12
   6   3  17  114.61   10.77
  -6   3  17   96.45    8.29
  -6  -3 -17  140.17   11.88
   6  -3  18   83.07   15.62
   6   3  18  101.11    9.56
  -6  -3 -18   86.29    8.40
   6  -3  19   12.92    5.40
   6   3  19   28.80    9.01
  -6  -3 -19   22.34    6.74
   6  -3  20   13.34    4.56
   6   3  20   11.81    4.49
  -6  -3 -20   27.13    6.38
   6   4   0  366.75   13.98
  -6  -4   0  391.50   18.93
   6  -4   0  378.31   11.93
   6  -4   1  243.14   10.40
   6   4  -1  220.45   11.78
   6   4   1  261.82   20.75
  -6  -4   1  269.67   19.21
  -6  -4  -1  261.52   21.71
   6  -4  -1  236.06    7.80
   6  -4   2 1051.83   35.74
   6   4  -2  948.56   30.74
   6   4   2  903.07   29.31
  -6  -4   2  922.79   31.59
  -6  -4  -2  997.37   32.96
   6  -4  -2  807.77   25.27
   6  -4   3  157.07   21.65
   6   4  -3  106.34    8.64
   6   4   3   98.04    5.88
  -6  -4   3   58.64    2.93
  -6  -4   3   94.42    7.80
   6  -4  -3   72.01    6.28
  -6  -4  -3  134.33   14.29
   6  -4   4  261.14   11.10
   6   4  -4  219.21    9.69
   6   4   4  232.26    9.71
  -6  -4   4  206.16    7.25
  -6   4   4  242.06   10.48
  -6  -4   4  248.97   17.06
  -6  -4  -4  259.46   10.26
   6   4  -5   29.14    5.47
   6  -4   5   44.84    8.12
   6   4   5   23.95    4.98
  -6   4   5   31.50    5.47
  -6  -4   5   13.65    3.48
  -6  -4  -5   29.40    5.20
   6  -4   6   10.16    3.53
   6   4   6   26.40    5.02
  -6   4   6    1.99    3.28
  -6  -4   6   23.48    4.99
  -6  -4  -6   10.30    3.47
   6  -4   7   35.36    7.04
   6   4   7   38.94    6.06
  -6   4   7   23.91    4.30
  -6  -4   7   43.13    7.44
  -6  -4  -7   26.11    4.33
   6  -4   8  662.57   22.61
   6   4   8  577.93   19.79
  -6   4   8  702.32   23.15
  -6  -4   8  664.03   23.57
  -6  -4  -8  688.20   22.55
   6  -4   9  110.54   21.20
   6   4   9  100.26   12.82
  -6   4   9   93.40   12.00
  -6  -4   9  113.39   19.12
  -6  -4  -9  110.06   13.71
   6  -4  10  110.26   21.73
   6   4  10  118.83   15.02
  -6   4  10  120.32    8.10
  -6  -4 -10  109.57   13.62
   6  -4  11  192.78   29.33
   6   4  11  151.05   11.65
  -6   4  11  192.38   13.10
  -6  -4 -11  196.50   13.68
   6  -4  12  166.77   23.32
   6   4  12  127.94    9.45
  -6   4  12  168.84   10.90
  -6  -4 -12  144.65    9.49
   6  -4  13   51.13   13.84
   6   4  13   70.94   11.35
  -6   4  13   37.86    7.74
  -6  -4 -13   36.45    7.52
   6  -4  14  181.34   21.65
   6   4  14  177.87   11.18
  -6   4  14  171.25    9.19
  -6  -4 -14  173.35    9.69
   6  -4  15   73.71   12.18
   6   4  15   45.85    9.84
  -6   4  15   76.16    7.55
  -6  -4 -15   74.73    9.03
   6  -4  16  114.86   18.55
   6   4  16  108.70   10.36
  -6   4  16  108.13    9.32
  -6  -4 -16  124.21   10.40
   6  -4  17   10.71    3.89
   6   4  17   -1.69    3.80
  -6   4  17    3.88    2.72
  -6  -4 -17    6.28    3.62
   6  -4  18   36.68    9.02
   6   4  18   26.78    7.73
  -6   4  18   37.06    7.95
  -6  -4 -18   23.69    6.41
   6  -4  19   40.52    7.53
   6   4  19   14.94    6.67
  -6  -4 -19   52.30    8.93
   6   5   0   13.96    2.78
  -6  -5   0   22.82    4.76
   6   5  -1  468.10   15.94
   6   5   1  423.36   14.78
  -6  -5   1  441.53   30.80
  -6  -5  -1  479.51   25.73
   6  -5  -1  429.09   13.65
   6   5  -2  285.30   10.06
   6   5   2  218.95    8.77
  -6  -5   2  298.37   21.95
  -6  -5  -2  298.44   20.06
   6  -5  -2  241.41    8.15
   6  -5   3   49.87   11.13
   6   5  -3   28.56    5.65
   6   5   3   55.33    8.19
  -6   5   3   37.88    6.32
  -6  -5   3   54.04    9.89
  -6  -5  -3   48.24    8.93
   6  -5  -3   45.68    6.06
   6  -5   4   67.68   14.41
   6   5  -4   47.14    7.72
   6   5   4   29.30    4.77
  -6   5   4   50.58    7.60
  -6  -5   4   26.94    5.08
  -6  -5  -4   72.32   10.41
   6  -5   5  122.76   17.20
   6   5  -5   90.75   10.42
   6   5   5   96.01   11.10
  -6   5   5  108.40   12.91
  -6  -5   5  105.88   18.60
  -6  -5  -5  109.96   12.75
   6  -5   6   40.63    6.94
   6   5   6   42.69    5.97
  -6   5   6   41.12    6.15
  -6  -5   6   43.91    7.73
  -6  -5  -6   48.14    6.34
   6  -5   7  197.74   17.36
   6   5   7  226.18    9.86
  -6   5   7  235.16   10.57
  -6  -5   7  238.02    9.96
  -6  -5  -7  208.06    8.77
   6  -5   8   17.68    4.78
   6   5   8   49.89    7.47
  -6   5   8   26.00    5.84
  -6  -5   8   45.16    8.08
  -6  -5  -8   34.20    6.64
   6  -5   9  209.41   25.09
   6   5   9  178.61   10.57
  -6   5   9  211.79   11.95
  -6  -5   9  182.54   13.98
  -6  -5  -9  184.35   10.85
   6   5  10   31.26    5.81
  -6   5  10   24.72    5.24
  -6  -5  10   38.30    7.64
  -6  -5 -10   26.26    4.93
   6  -5  11  503.96   28.66
   6   5  11  513.60   29.21
  -6   5  11  538.70   30.23
  -6  -5 -11  536.49   29.88
   6  -5  12  223.48   25.48
   6   5  12  200.03   13.59
  -6   5  12  208.50   13.69
  -6  -5 -12  224.33   14.53
   6  -5  13  481.10   22.76
   6   5  13  455.51   21.58
  -6   5  13  450.59   20.89
  -6  -5 -13  452.28   20.70
   6  -5  14   88.45   15.19
   6   5  14   70.87    7.98
  -6   5  14  106.60   10.56
  -6  -5 -14   70.69    8.08
   6  -5  15   61.46   11.24
   6   5  15   67.74   12.66
  -6   5  15   51.49    8.93
  -6  -5 -15   45.55    7.89
   6  -5  16   73.83   15.09
   6   5  16   55.75    6.90
  -6   5  16   96.71    8.26
  -6  -5 -16  108.91    9.79
   6  -5  17  143.19   19.93
   6   5  17  164.49   15.82
  -6   5  17  156.94   14.48
  -6  -5 -17  145.80   14.51
   6  -5  18   10.16    4.71
   6   5  18   10.06    6.75
  -6   5  18   10.44    4.06
  -6  -5 -18   16.09    5.24
   6   6   0   31.34    4.40
  -6  -6   0   40.66    6.38
   6   6  -1  416.63   14.26
   6   6   1  457.70   15.42
  -6  -6   1  438.04   15.81
  -6  -6  -1  475.02   29.84
   6   6  -2  514.73   16.91
   6   6   2  629.28   20.38
  -6   6   2  550.52   19.46
  -6  -6   2  649.46   22.87
  -6  -6  -2  549.79   18.80
   6  -6  -2  648.48   19.66
   6   6  -3  124.50   13.50
   6   6   3  138.55   16.63
  -6   6   3  140.30    7.93
  -6  -6   3  157.87   19.44
  -6  -6  -3  148.89   18.43
   6  -6  -3  124.38   13.56
   6   6  -4  614.37   19.12
   6   6   4  674.62   22.15
  -6   6   4  687.97   23.53
  -6  -6   4  711.16   23.68
  -6  -6  -4  673.34   22.40
   6  -6  -4  696.44   21.48
   6  -6   5    5.74    3.33
   6   6   5   21.03    4.62
  -6   6   5    8.80    3.90
  -6  -6   5   16.97    5.13
  -6  -6  -5    9.69    4.11
   6  -6  -5   20.38    3.08
   6  -6   6   32.60    6.39
   6   6   6   18.52    3.98
  -6   6   6   19.30    4.64
  -6  -6   6   33.54    5.50
  -6  -6  -6   25.20    4.70
   6  -6  -6   22.19    3.41
   6  -6   7    4.13    2.72
   6   6   7    6.01    4.85
  -6   6   7    3.03    3.66
  -6  -6   7   10.30    3.54
  -6  -6  -7    9.87    3.83
   6  -6  -7    1.10    2.01
   6  -6   8  109.34   16.41
   6   6   8   75.96   10.35
  -6   6   8  116.39    9.37
  -6  -6   8   70.61   10.68
  -6  -6  -8  117.48    8.95
   6  -6  -8   61.64    7.87
   6  -6   9   34.57    5.04
   6   6   9   22.68    4.98
  -6   6   9   24.46    5.16
  -6  -6   9   22.35    3.73
  -6  -6  -9   33.27    5.41
   6  -6  -9   20.49    3.21
   6  -6  10  160.70   18.34
   6   6  10   96.45    9.71
  -6   6  10  141.80    9.77
  -6  -6  10  115.68   18.08
  -6  -6 -10  155.98   11.39
   6  -6 -10   98.19    9.52
   6  -6  11  121.47   16.02
   6   6  11  130.02    9.67
  -6   6  11  112.18    8.51
  -6  -6 -11  112.08    8.57
   6  -6 -11  150.47   10.20
   6  -6  12  101.63   13.72
   6   6  12   97.45    7.22
  -6   6  12   98.27    8.77
  -6  -6 -12   85.58    6.49
   6  -6  13   51.37   10.12
   6   6  13   61.10    7.55
  -6   6  13   52.75    6.29
  -6  -6 -13   58.46    6.93
   6  -6  14   95.48   12.46
   6   6  14  146.73   12.34
  -6   6  14  130.56   11.01
  -6  -6 -14  129.50   10.70
   6  -6 -14  147.81   11.84
   6  -6  15    8.30    4.28
   6   6  15   -1.17    3.56
  -6   6  15    8.99    3.84
  -6  -6 -15   13.06    5.02
   6  -6 -15    5.03    3.53
   6  -6  16   24.60    7.73
   6   6  16   60.92    8.48
  -6   6  16   48.33    7.12
  -6  -6 -16   38.11    8.65
   6  -6 -16   47.07    6.52
   6  -6  17   63.50   12.21
   6   6  17   64.61    8.81
  -6   6  17   61.23    6.72
  -6  -6 -17   71.98    7.90
   6  -6 -17   57.44    6.83
   6  -6  18    6.83    3.97
   6   6  18    2.82    6.27
  -6   6  18   15.73    5.38
  -6  -6 -18    6.78    3.62
   6  -6 -18    1.25    3.79
   6   7   0    6.27    2.17
  -6  -7   0    5.21    2.72
   6   7  -1  170.19    9.02
   6   7   1  151.68    8.44
  -6   7   1  155.20    9.82
  -6  -7   1  196.69   19.76
  -6  -7  -1  186.17   23.58
   6   7  -2  256.47   12.72
   6   7   2  204.60   10.77
  -6   7   2  281.72   15.89
  -6  -7   2  223.16   23.39
  -6  -7  -2  261.21   23.86
   6   7  -3   19.36    3.30
   6   7   3   13.94    3.24
  -6   7   3   33.67    6.62
  -6  -7   3   30.38    6.29
  -6  -7  -3   38.12    7.79
   6   7   4  253.28   16.35
  -6   7   4  320.47   21.05
  -6  -7   4  234.26   20.06
  -6  -7  -4  310.34   20.09
   6   7   5  141.81   10.13
  -6   7   5  115.47   10.20
  -6  -7   5  164.25   18.84
  -6  -7  -5   99.66    9.76
   6  -7  -5  149.88    9.64
   6   7   6   74.24    9.77
  -6   7   6   71.25   10.40
  -6  -7   6   76.86   11.22
  -6  -7  -6   67.76    9.46
   6  -7  -6   65.15   10.61
   6   7   7   51.30    6.50
  -6   7   7   35.45    6.61
  -6  -7   7   53.45    8.29
  -6  -7  -7   19.14    4.39
   6  -7  -7   41.69    4.18
   6  -7   8   81.29   11.41
   6   7   8   63.75    7.13
  -6   7   8   73.44    8.38
  -6  -7   8   84.32   11.95
  -6  -7  -8   84.59   10.50
   6  -7   9   88.72   10.94
   6   7   9   82.43    7.04
  -6   7   9   83.69    7.72
  -6  -7   9   89.15   15.48
  -6  -7  -9   96.77    7.81
   6  -7  -9   73.73   12.23
   6  -7  10   74.73   13.15
   6   7  10   74.88    7.18
  -6   7  10   88.88    7.28
  -6  -7  10   53.54   11.47
  -6  -7 -10   72.61    6.34
   6  -7 -10   67.21   13.08
   6  -7  11  344.61   22.19
   6   7  11  364.72   18.13
  -6   7  11  393.74   19.17
  -6  -7  11  332.76   16.45
  -6  -7 -11  378.56   18.11
   6  -7 -11  350.62   16.20
   6   7  12    1.06    4.20
  -6   7  12    5.83    4.14
  -6  -7 -12   12.48    5.72
   6  -7 -12   10.07    4.02
   6   7  13  291.67   21.42
  -6   7  13  310.13   22.84
  -6  -7 -13  273.31   20.32
   6  -7 -13  293.73   20.98
   6  -7  14   48.04    9.18
   6   7  14   45.32    8.04
  -6   7  14   41.30    7.74
  -6  -7 -14   45.54    7.23
   6  -7 -14   59.82    5.62
   6  -7  15   48.44    9.33
   6   7  15   44.95    6.50
  -6   7  15   40.49    6.46
  -6  -7 -15   42.51    6.01
   6  -7 -15   45.49    5.65
   6  -7  16   82.57   16.77
   6   7  16   86.83    9.02
  -6   7  16   79.90    8.01
  -6  -7 -16   93.38    8.94
   6  -7 -16   70.40    6.92
   6  -7  17   25.52    8.08
   6   7  17   51.56    8.41
  -6   7  17   11.66    4.20
  -6  -7 -17    6.97    3.73
   6  -7 -17   52.78    8.86
   6   8   0    4.42    3.34
  -6   8   0   10.89    4.39
  -6  -8   0    8.49    2.79
   6   8  -1  159.64    9.48
   6   8   1  212.26   12.97
  -6   8   1  187.42   13.20
  -6  -8   1  216.00   19.64
  -6  -8  -1  202.87   29.08
   6   8   2   74.72    7.75
  -6   8   2   60.84    8.47
  -6  -8   2   67.22    9.40
  -6  -8  -2   63.03    8.44
   6   8   3  121.67    8.76
  -6   8   3   71.53    8.26
  -6  -8   3  143.83   18.40
  -6  -8  -3  107.36   13.27
   6   8   4  176.76   11.22
  -6   8   4  213.34   14.35
  -6  -8   4  178.69   14.55
  -6  -8  -4  208.33   13.27
   6   8   5  170.02   11.14
  -6   8   5  125.15   10.60
  -6  -8   5  162.05   27.35
  -6  -8  -5  111.67   19.68
   6   8   6   80.48    7.92
  -6   8   6   77.10    7.25
  -6  -8   6   94.50   10.56
  -6  -8  -6   95.27    8.10
   6   8   7   16.06    4.85
  -6   8   7   16.09    6.28
  -6  -8   7   22.90    5.37
  -6  -8  -7    4.61    3.59
   6   8   8   36.93    6.93
  -6   8   8   43.23    7.85
  -6  -8   8   43.30    8.22
  -6  -8  -8   50.48    8.15
   6  -8  -8   45.34    6.79
   6   8   9   75.29    6.85
  -6   8   9  106.86    8.11
  -6  -8   9   72.66   10.41
  -6  -8  -9   92.02    6.81
   6  -8  -9   63.35   13.81
   6  -8  10   61.57    7.36
   6   8  10   54.97    7.69
  -6   8  10   65.35    8.98
  -6  -8  10   32.99    8.40
  -6  -8 -10   34.36    7.78
   6  -8 -10   39.57   10.27
   6   8  11   51.60    9.11
  -6   8  11   90.23    9.00
  -6  -8  11   53.19   10.83
  -6  -8 -11   66.36   10.94
   6  -8 -11   53.71    8.43
   6  -8  12   32.02    7.61
   6   8  12   45.79    7.96
  -6   8  12   21.39    7.00
  -6  -8  12   29.54    6.38
  -6  -8 -12   33.19    6.11
   6  -8 -12   30.70    5.04
   6  -8  13   74.82   10.63
   6   8  13   71.86    7.62
  -6   8  13   74.46    8.52
  -6  -8 -13   57.44    6.31
   6  -8 -13   79.79    6.86
   6  -8  14   81.05   17.98
   6   8  14  115.12   10.57
  -6   8  14  102.28    9.62
  -6  -8 -14   88.16    9.17
   6  -8 -14  137.48   11.48
   6  -8  15   45.32   10.77
   6   8  15   82.15   12.62
  -6  -8 -15   47.05    7.86
   6  -8 -15   47.72    7.97
   6   9   0    2.68    2.47
  -6   9   0    4.79    4.19
  -6  -9   0    5.44    4.58
   6   9   1  347.23   20.79
  -6   9   1  343.89   21.67
  -6   9  -1  322.43   20.57
  -6  -9   1  355.60   31.24
  -6  -9  -1  340.06   21.14
   6   9   2   76.29    6.85
  -6   9  -2   74.10   11.86
  -6  -9   2   61.27   12.84
  -6  -9  -2   89.28    8.92
   6   9   3  103.70    7.17
  -6   9   3  104.44    9.98
  -6  -9   3  113.98   19.22
  -6  -9  -3  112.19   21.43
   6   9   4  149.08    8.52
  -6   9   4  198.07   12.52
  -6  -9   4  149.91   16.83
  -6  -9  -4  157.83   14.44
   6   9   5   42.83    7.09
  -6   9   5   34.70    7.46
  -6  -9   5   38.73    8.46
  -6  -9  -5   22.87    5.96
   6   9   6  219.51   19.51
  -6   9   6  202.44   18.16
  -6  -9   6  238.84   25.51
  -6  -9  -6  213.89   11.72
   6   9   7   24.28    6.53
  -6   9   7   15.03    5.02
  -6  -9   7   19.22    5.80
  -6  -9  -7   10.06    4.50
   6   9   8   90.60    9.26
  -6   9   8   70.79    8.88
  -6  -9   8  116.75   18.84
  -6  -9  -8   76.36    7.83
   6   9   9  123.66   12.09
  -6   9   9  162.73   13.55
  -6  -9   9  105.75   17.90
  -6  -9  -9  141.44   11.60
   6   9  10   16.71    4.29
  -6   9  10    9.57    5.51
  -6  -9  10    5.33    2.48
  -6  -9 -10   12.73    3.89
   6   9  11  187.19   17.76
  -6   9  11  175.69   17.42
  -6  -9  11  182.24   22.07
  -6  -9 -11  205.37   18.83
   6   9  12   20.64    5.59
  -6   9  12   29.26    7.79
  -6  -9  12   27.61    6.95
   6   9  13   66.85    8.01
  -6   9  13  113.57   10.65
  -6  -9 -13  104.52    9.56
   6  -9  14   98.57   14.60
   6   9  14   61.42   10.25
  -6   9  14   61.01   10.27
  -6  -9 -14   82.46   12.75
  -6  10   0   13.85    5.28
  -6 -10   0   17.56    4.48
  -6  10   1   74.31    8.67
  -6  10  -1   86.70   10.21
  -6 -10  -1   57.19   12.97
   6  10   2   50.78    5.87
  -6  10   2   28.95    7.42
  -6  10  -2   46.61   10.98
  -6 -10   2   68.65   11.32
  -6 -10  -2   23.66    6.60
   6  10   3  120.29    9.60
  -6  10  -3  114.71   11.30
  -6 -10   3  117.25   19.29
  -6 -10  -3  111.53   14.95
   6  10   4   58.21    9.59
  -6  10   4   31.24    7.07
  -6  10  -4   57.66   10.82
  -6 -10   4   33.84    9.31
  -6 -10  -4   40.89    9.57
   6  10   5    1.25    2.89
  -6  10   5    5.56    6.10
  -6 -10   5    3.05    3.01
  -6 -10  -5    6.04    3.74
   6  10   6   52.01    8.81
  -6  10   6   44.54    9.40
  -6 -10   6   43.73    9.71
  -6 -10  -6   57.86   10.16
   6  10   7   32.51    5.61
  -6  10   7   32.78    7.56
  -6 -10   7   29.42    6.88
  -6 -10  -7   42.65    7.35
   6  10   8   63.54    7.82
  -6  10   8   59.38    7.36
  -6 -10   8   60.88    9.49
  -6 -10  -8   64.54    7.19
   6  10   9   81.26    8.93
  -6  10   9   75.32    9.23
  -6 -10   9   82.16   15.83
  -6 -10  -9   66.60    8.34
  -6  10  10    9.45    5.25
  -6 -10 -10   19.40    7.14
   6  10  11   29.90    7.31
  -6  10  11   32.01    7.27
  -6 -10 -11   32.67    6.34
   6  10  12   -1.30    3.66
  -6  10  12    5.17    4.51
  -6 -10 -12    7.07    4.17
  -6  11   0  119.15   10.86
  -6 -11   0  118.18   16.64
  -6  11   1   62.98    8.67
  -6  11  -1   53.63    6.51
  -6 -11   1   49.42   11.60
  -6 -11  -1   38.80    8.16
  -6  11   2   31.62    7.48
  -6  11  -2   13.45    5.07
  -6 -11   2    9.29    3.22
  -6 -11  -2   22.45    6.50
  -6  11   3    9.33    4.77
  -6  11  -3   18.26    7.66
  -6 -11   3    9.21    3.99
  -6 -11  -3   23.43    6.61
   6  11   4   28.63    6.42
  -6  11   4   45.59    8.02
  -6  11  -4   41.50    8.25
  -6 -11   4   45.95    8.21
  -6 -11  -4   54.89    9.58
   6  11   5    6.92    4.24
  -6  11   5   30.60    8.67
  -6  11  -5    1.55    4.74
  -6 -11   5   16.15    4.63
  -6 -11  -5    9.69    3.19
   6  11   6  132.94   11.44
  -6  11   6  131.18   11.87
  -6  11  -6  156.85   13.58
  -6 -11   6  105.28   20.73
  -6 -11  -6  141.67   11.90
   6  11   7   32.42    9.02
  -6  11  -7   27.72    8.91
  -6 -11   7   39.72    7.38
  -6 -11  -7   16.71    5.33
   6  11   8   29.83    6.88
  -6  11   8   23.73    7.27
  -6 -11  -8   32.46    7.53
   6  11   9   22.11    5.93
  -6  11   9   36.25    7.47
  -6 -11   9   24.60    6.04
  -6 -11  -9   42.19    7.85
  -6  12   0   86.48   14.04
  -6 -12   0   80.33   17.89
  -6  12   1    6.15    7.21
  -6  12  -1   11.42    5.23
  -6 -12   1   13.76    6.38
  -6 -12  -1   18.29    5.26
  -6  12   2   20.27    6.38
  -6  12  -2   12.13    7.08
  -6 -12   2   32.34    7.60
  -6 -12  -2   17.45    5.31
  -6  12   3   31.10    8.47
  -6  12  -3   46.08    9.57
  -6 -12   3   24.93    7.92
  -6 -12  -3   24.37    7.57
  -6  12   4   15.47    5.82
  -6  12  -4    5.87    7.11
  -6 -12  -4   11.11    4.69
   7   0   0   10.42    2.89
  -7   0   0    3.03    1.05
   7   0  -1  107.61   17.87
   7   0   1   92.37   15.19
  -7   0   1   93.16   15.76
  -7   0  -1   93.22   13.55
   7   0  -2   17.64    4.49
   7   0   2   10.87    3.45
  -7   0   2   19.43    3.76
  -7   0  -2   14.75    3.17
   7   0   3   58.04    9.50
   7   0   4   37.12    7.07
  -7   0  -4   22.62    4.42
   7   0   5  536.96   34.75
  -7   0  -5  585.03   19.28
   7   0   6    5.42    2.32
  -7   0   6    4.46    3.03
  -7   0  -6    3.30    1.30
   7   0   7 1042.04   33.74
  -7   0   7 1030.52   32.02
  -7   0  -7 1032.30   32.11
   7   0   8   67.27   13.54
  -7   0   8   51.60    6.73
  -7   0  -8   70.33    8.77
   7   0   9  249.01   28.12
  -7   0   9  201.82   12.85
  -7   0  -9  227.25   14.39
   7   0  10    2.90    2.98
  -7   0  10    5.49    1.84
  -7   0 -10    8.01    2.89
   7   0  11   40.03    5.66
  -7   0  11   33.64    3.84
  -7   0 -11   39.67    4.36
   7   0  12   10.92    4.53
  -7   0 -12    4.57    1.99
   7   0  13   56.56   11.62
  -7   0 -13   55.03    8.26
   7   0  14    2.57    2.15
   7   0  16   61.15   13.15
   7   0  17  109.81   22.60
   7   0  18   -0.53    2.75
   7  -1   0   21.32    4.35
   7   1   0   10.34    2.21
  -7   1   0   16.78    3.09
  -7  -1   0   17.32    4.00
   7  -1  -1  429.14   16.02
   7   1  -1  478.26   17.87
   7  -1   1  514.46   18.50
   7   1   1  479.54   30.11
  -7   1  -1  436.54   14.62
  -7  -1   1  460.67   16.85
  -7  -1  -1  522.55   17.73
   7  -1  -2  190.51    8.53
   7   1  -2  267.54   16.94
   7  -1   2  208.87    8.95
   7   1   2  189.27   14.47
  -7   1  -2  164.54   11.88
  -7  -1   2  184.30    7.87
  -7  -1  -2  267.47   17.96
   7   1  -3   67.86   11.11
   7  -1   3   58.70   10.57
   7   1   3   51.57    8.67
  -7  -1   3   46.29    8.71
  -7   1  -3   32.54    6.29
  -7  -1  -3   68.52   10.41
   7  -1   4  373.58   30.18
   7   1   4  318.59   16.11
  -7  -1   4  297.83   10.73
  -7   1  -4  309.87   12.02
  -7  -1  -4  392.50   20.19
   7  -1   5    7.79    2.82
   7   1   5   10.21    2.90
  -7   1  -5    2.72    0.99
  -7  -1  -5   11.48    2.11
   7  -1   6  123.66   18.62
   7   1   6  101.00   14.57
  -7   1   6  126.31   14.36
  -7   1  -6  102.72   13.00
  -7  -1  -6  117.34   14.72
   7  -1   7   49.64    8.52
   7   1   7   79.03   12.05
  -7  -1   7   65.63    7.51
  -7   1   7   58.64    7.52
  -7   1  -7   67.97   10.73
  -7  -1  -7   54.25    7.06
   7  -1   8  588.45   34.17
   7   1   8  677.19   32.43
  -7   1   8  644.67   30.05
  -7  -1   8  640.51   29.45
  -7   1  -8  657.77   30.08
  -7  -1  -8  651.68   30.21
   7  -1   9   69.72   13.52
   7   1   9   85.43   15.29
  -7  -1   9   58.27    7.31
  -7   1   9   46.88    6.46
  -7   1  -9   62.20    7.98
  -7  -1  -9   57.86    7.62
   7  -1  10  579.23   36.24
   7   1  10  509.70   33.67
  -7   1  10  487.35   29.79
  -7  -1 -10  534.69   32.64
   7  -1  11   17.62    3.46
   7   1  11   14.15    4.32
  -7   1  11    6.18    1.92
  -7  -1 -11   15.39    3.99
   7  -1  12   49.46   11.16
   7   1  12   50.98   10.59
  -7   1  12   42.00    7.73
  -7  -1 -12   29.51    5.84
   7  -1  13   22.56    5.48
   7   1  13   21.76    4.79
  -7  -1 -13   18.05    3.89
   7  -1  14    7.28    3.72
   7   1  14   40.49    9.54
  -7  -1 -14   11.10    3.80
   7  -1  15   89.93   13.67
   7   1  15   87.75   11.73
  -7  -1 -15   79.64    6.80
   7  -1  16   21.62    4.90
   7   1  16   11.57    3.37
  -7  -1 -16   19.96    4.14
   7  -1  17   40.99    8.75
   7   1  17   37.53   10.10
   7   1  18   32.11   10.75
   7  -2   0  362.97   16.73
   7   2   0  362.57   17.00
  -7  -2   0  425.41   15.17
   7  -2  -1   69.57   10.10
   7  -2   1  122.95   19.33
   7   2  -1   93.17   13.87
   7   2   1   52.89    8.97
  -7  -2   1   64.63   12.56
  -7  -2  -1  110.92   16.50
   7  -2   2  127.02   16.75
   7   2  -2  112.40   15.43
   7   2   2   94.92   16.29
  -7  -2   2   98.64   17.87
  -7  -2  -2  121.60   16.91
   7   2  -3  116.88   15.43
   7  -2   3  145.58   17.53
   7   2   3  132.93   18.34
  -7  -2   3  102.55   13.42
  -7  -2  -3  145.71   11.97
   7   2  -4   23.22    4.78
   7  -2   4   21.53    3.75
   7   2   4   49.47    9.55
  -7   2  -4   28.08    5.14
  -7  -2   4   51.14    7.60
  -7  -2  -4   31.92    5.25
   7  -2   5  675.34   22.79
   7   2   5  661.09   22.39
  -7  -2   5  662.59   26.13
  -7   2  -5  630.92   19.55
  -7  -2  -5  678.79   21.81
   7  -2   6  284.46   23.91
   7   2   6  352.56   20.83
  -7   2   6  249.99    9.80
  -7  -2   6  296.93   28.04
  -7  -2  -6  251.22   17.90
   7  -2   7  497.96   38.29
   7   2   7  425.44   30.85
  -7   2   7  397.22   19.35
  -7  -2   7  359.57   16.84
  -7  -2  -7  391.80   23.12
   7  -2   8   50.38    8.16
   7   2   8   49.20    8.31
  -7  -2   8   31.45    4.17
  -7   2   8   45.44    6.66
  -7  -2  -8   33.55    5.03
   7  -2   9   59.55   10.71
   7   2   9   58.55    9.61
  -7   2   9   37.12    5.66
  -7  -2  -9   42.04    5.76
   7  -2  10  188.79   22.07
   7   2  10  137.91   21.53
  -7   2  10  175.96   11.04
  -7  -2 -10  179.45   11.06
   7  -2  11   79.53   14.96
   7   2  11   98.55   13.59
  -7   2  11   80.51    7.69
  -7  -2 -11   79.13    7.61
   7  -2  12   56.66   12.28
   7   2  12   40.17    8.22
  -7   2  12   57.37   10.46
  -7  -2 -12   72.76   10.54
   7  -2  13  169.90   24.84
   7   2  13  141.74   14.90
  -7   2  13  141.76    7.69
   7  -2  14   14.59    4.33
   7   2  14   13.59    4.37
  -7  -2 -14   11.97    3.63
   7  -2  15   31.12    6.40
   7   2  15   23.92    5.33
  -7  -2 -15   25.70    5.76
   7  -2  16   16.98    5.18
   7   2  16   -0.47    3.69
  -7  -2 -16    9.02    3.60
   7   2  17  177.01   34.23
  -7  -2 -17  225.60   20.15
   7  -2  18   76.09   16.26
   7   2  18   74.61   18.04
   7  -3   0    8.18    4.83
   7   3   0    6.15    2.47
  -7  -3   0    4.90    2.15
   7  -3   1  358.53   13.45
   7   3  -1  338.49   12.05
   7   3   1  344.50   17.23
  -7  -3   1  328.46   19.45
  -7  -3  -1  372.22   13.28
   7  -3   2  240.22   10.12
   7   3  -2  227.33    9.14
   7   3   2  326.95   18.72
  -7  -3   2  369.63   24.36
  -7  -3  -2  274.15   19.16
   7   3  -3  148.73    8.66
   7  -3   3  162.19   18.68
   7   3   3  131.21   21.42
  -7  -3   3  151.77   11.38
  -7  -3  -3  187.37   11.86
   7   3  -4  331.48   18.55
   7  -3   4  324.72   12.83
   7   3   4  416.13   23.92
  -7  -3   4  402.79   26.30
  -7  -3  -4  384.53   16.41
   7  -3   5   36.32    6.11
   7   3   5   16.12    3.55
  -7   3   5   33.53    5.35
  -7  -3   5   19.08    4.72
  -7  -3  -5   32.77    5.26
   7  -3   6    8.25    3.06
   7   3   6   19.65    4.75
  -7   3   6    7.98    3.34
  -7  -3   6   13.22    4.47
  -7  -3  -6    7.42    3.46
   7  -3   7   45.37    9.93
   7   3   7   72.56   11.07
  -7   3   7   29.55    4.87
  -7  -3   7   70.05   12.22
  -7  -3  -7   30.18    4.57
   7  -3   8  203.39   20.74
   7   3   8  177.74   16.27
  -7   3   8  195.18   13.23
  -7  -3  -8  183.08   12.27
   7  -3   9  234.14   21.81
   7   3   9  201.03   12.93
  -7   3   9  215.35   14.14
  -7  -3  -9  225.34   13.37
   7  -3  10  332.55   21.98
   7   3  10  365.62   26.66
  -7   3  10  335.99   19.36
  -7  -3 -10  342.62   19.67
   7  -3  11  109.34   11.24
   7   3  11   96.69   15.34
  -7   3  11  105.38    7.79
  -7  -3 -11  111.00    8.19
   7  -3  12    2.62    2.01
   7   3  12    5.54    3.81
  -7   3  12    4.22    3.73
  -7  -3 -12   10.52    4.11
   7  -3  13    4.71    4.23
   7   3  13   17.63    6.32
  -7   3  13   12.67    4.39
  -7  -3 -13    6.89    4.13
   7  -3  14    9.64    4.06
   7   3  14    5.60    4.23
  -7   3  14   -0.15    3.23
  -7  -3 -14   10.15    4.24
   7   3  15   72.56    8.33
  -7  -3 -15   72.38    6.96
   7  -3  16    9.52    3.85
   7   3  16    7.29    4.37
  -7  -3 -16    5.77    2.99
   7   3  17   12.85    5.26
  -7  -3 -17   11.61    3.97
   7  -3  18   40.58    8.87
   7   3  18   32.01    6.18
  -7  -3 -18   43.29    6.93
   7   4   0   43.99    6.67
  -7  -4   0   47.78    8.03
   7   4  -1   17.00    2.96
   7   4   1    6.49    2.10
  -7  -4   1    2.84    2.07
  -7  -4  -1   33.19    5.25
   7  -4   2  126.74   23.58
   7   4  -2   96.81   12.28
   7   4   2  100.99   13.21
  -7  -4   2  109.18   16.09
  -7  -4  -2  130.19   22.43
   7  -4   3  142.10   15.76
   7   4  -3  113.59   16.00
   7   4   3  115.32   14.92
  -7  -4   3  114.92   18.86
  -7  -4  -3  151.20   13.55
   7   4  -4  175.33   12.14
   7  -4   4  196.89   21.24
   7   4   4  200.39   15.67
  -7   4   4  198.41   11.54
  -7  -4   4  210.84   14.65
  -7  -4  -4  218.51   14.66
   7  -4   5  503.48   39.65
   7   4   5  395.45   25.90
  -7   4   5  465.41   22.87
  -7  -4   5  401.17   27.36
  -7  -4  -5  465.64   32.33
   7  -4   6  378.46   32.26
   7   4   6  413.87   26.35
  -7   4   6  382.14   24.30
  -7  -4   6  442.90   38.22
  -7  -4  -6  385.54   24.05
   7  -4   7  377.74   24.72
   7   4   7  311.01   20.24
  -7   4   7  329.96   21.15
  -7  -4   7  326.68   29.74
  -7  -4  -7  338.54   21.51
   7  -4   8  102.95   13.29
   7   4   8  111.65   19.56
  -7   4   8   91.99    9.07
  -7  -4   8  118.56   16.39
  -7  -4  -8   97.68    9.54
   7  -4   9   34.02    5.86
   7   4   9   37.46    6.27
  -7   4   9   25.72    4.16
  -7  -4  -9   28.29    5.01
   7  -4  10   67.71   12.99
   7   4  10   40.75    8.23
  -7   4  10   67.79   10.72
  -7  -4 -10   60.03   10.97
   7  -4  11    7.37    2.42
   7   4  11   16.33    5.51
  -7   4  11   16.02    4.77
  -7  -4 -11    8.58    3.13
   7  -4  12  203.51   22.83
   7   4  12  225.14   12.98
  -7   4  12  219.88   11.36
  -7  -4 -12  241.16   12.26
   7  -4  13    4.28    3.26
   7   4  13    9.56    4.68
  -7   4  13   12.47    4.70
  -7  -4 -13   10.84    5.69
   7   4  14   31.60    6.44
  -7   4  14   20.77    4.60
  -7  -4 -14   30.74    6.32
   7  -4  15   46.16    9.95
   7   4  15   11.74    4.26
  -7   4  15   31.17    6.10
  -7  -4 -15   34.71    6.09
   7  -4  16   69.00   12.50
   7   4  16   63.65    8.26
  -7  -4 -16   71.04    8.47
   7  -4  17   80.56   23.22
   7   4  17  121.93   18.49
  -7  -4 -17  125.00   17.63
   7   5   0   10.19    3.27
  -7  -5   0   12.63    4.05
   7   5  -1  138.99   12.00
   7   5   1  138.17   18.58
  -7  -5   1  133.10   11.95
  -7  -5  -1  161.70   21.26
   7   5  -2   27.33    5.17
   7   5   2   51.60   10.50
  -7  -5   2   49.26    9.40
  -7  -5  -2   39.29    6.73
   7  -5   3  276.04   18.48
   7   5  -3  232.90   14.65
   7   5   3  298.36   19.73
  -7   5   3  290.29   19.18
  -7  -5   3  295.69   28.40
  -7  -5  -3  266.11   19.55
   7  -5   4    8.39    3.33
   7   5   4   12.23    3.77
  -7   5   4   18.33    5.65
  -7  -5   4   10.11    4.60
  -7  -5  -4    4.45    2.49
   7  -5   5  112.34   14.93
   7   5   5  123.70    9.24
  -7   5   5  100.42   10.59
  -7  -5   5  107.49   12.40
  -7  -5  -5   97.63   18.58
   7  -5   6    8.28    2.07
   7   5   6    5.38    4.33
  -7   5   6    3.73    3.56
  -7  -5   6   -5.11    3.87
  -7  -5  -6    8.59    3.86
   7  -5   7   90.68   14.80
   7   5   7   78.32    8.15
  -7   5   7   87.31    9.57
  -7  -5   7   95.95   16.15
  -7  -5  -7  106.41   10.77
   7  -5   8  202.66   19.55
   7   5   8  199.09   12.61
  -7   5   8  219.42   13.95
  -7  -5   8  200.79   21.71
  -7  -5  -8  192.46   12.33
   7  -5   9  219.43   23.46
   7   5   9  257.36   16.65
  -7   5   9  226.87   15.54
  -7  -5   9  236.96   21.32
  -7  -5  -9  220.60   14.07
   7  -5  10   46.04   10.85
   7   5  10   59.35    9.66
  -7   5  10   30.56    5.80
  -7  -5 -10   32.06    6.11
   7  -5  11  118.01   13.84
   7   5  11  136.03    9.51
  -7   5  11  106.13    7.35
  -7  -5 -11  135.58    8.84
   7  -5  12   75.68   14.15
   7   5  12   65.16    8.30
  -7   5  12   60.01    6.78
  -7  -5 -12   62.04    7.06
   7  -5  13   64.68   12.29
   7   5  13   70.70    9.64
  -7   5  13   66.71   10.67
  -7  -5 -13   73.31    8.10
   7  -5  14   11.71    4.58
   7   5  14   11.77    5.09
  -7  -5 -14   21.37    5.14
   7  -5  15   30.07    9.10
   7   5  15   24.89    7.11
  -7   5  15   23.46    5.86
  -7  -5 -15   43.57    6.70
   7  -5  16   11.01    4.37
   7   5  16    6.02    5.71
  -7   5  16    9.91    4.90
  -7  -5 -16    6.00    4.49
   7   6   0   52.58    7.99
  -7  -6   0   53.17    8.89
   7   6  -1   17.30    3.58
   7   6   1   13.55    3.27
  -7  -6   1   13.76    3.14
  -7  -6  -1   23.48    4.50
   7   6  -2  129.66    8.86
   7   6   2  189.70   23.01
  -7   6   2  147.74   10.46
  -7  -6   2  211.66   19.77
  -7  -6  -2  130.65   20.30
   7   6   3  109.36   10.07
  -7   6   3  102.60   10.41
  -7  -6   3   92.46   13.35
  -7  -6  -3  105.64   19.04
   7   6   4  146.82    9.51
  -7   6   4  136.59   10.05
  -7  -6   4  152.28   15.70
  -7  -6  -4  134.56   20.76
   7  -6   5    4.20    4.22
   7   6   5   10.45    3.25
  -7   6   5    6.11    4.10
  -7  -6   5    9.95    2.81
  -7  -6  -5   16.53    4.32
   7  -6   6  394.68   24.17
   7   6   6  406.25   24.54
  -7   6   6  366.22   22.74
  -7  -6   6  426.32   33.87
  -7  -6  -6  363.29   22.04
   7  -6   7   65.36   12.17
   7   6   7   48.62    9.28
  -7   6   7   36.92    8.01
  -7  -6   7   42.29    8.54
  -7  -6  -7   34.55    7.21
   7  -6   8  158.94   17.44
   7   6   8  187.83   10.88
  -7   6   8  182.70   10.91
  -7  -6   8  201.73   19.02
  -7  -6  -8  188.87   10.31
   7  -6  -8  206.39   10.00
   7  -6   9   52.89   10.63
   7   6   9   48.27    8.56
  -7   6   9   39.05    7.52
  -7  -6   9   50.26   10.33
  -7  -6  -9   27.67    5.36
   7  -6  -9   53.98    8.32
   7  -6  10   67.33   10.76
   7   6  10   53.40    7.78
  -7   6  10   32.80    7.87
  -7  -6  10   56.64    9.19
  -7  -6 -10   47.21    9.67
   7   6  11    5.84    3.65
  -7   6  11    0.24    3.52
  -7  -6 -11    0.54    3.57
   7  -6  12   53.84   12.61
   7   6  12   39.85    8.26
  -7   6  12   70.32    7.30
  -7  -6 -12   76.16    7.28
   7  -6  13   58.21   19.39
   7   6  13   45.90    8.27
  -7   6  13   63.83    6.97
  -7  -6 -13   69.33    7.70
   7  -6  14    7.53    2.68
   7   6  14    3.74    3.67
  -7   6  14    0.46    3.63
  -7  -6 -14    4.64    3.28
   7  -6  15   78.18   17.73
   7   6  15   74.69    8.54
  -7   6  15   81.02    8.82
  -7  -6 -15   77.82    7.61
   7   7   0  186.31   12.09
  -7  -7   0  228.97   22.54
   7   7   1   32.41    7.55
  -7   7   1   33.21    8.18
  -7  -7   1   24.83    5.36
  -7  -7  -1   40.60    9.51
   7   7   2   42.05    8.65
  -7   7   2   29.02    6.89
  -7  -7   2   39.93    8.28
  -7  -7  -2   41.99    9.99
   7   7   3  166.54   11.09
  -7   7   3  174.06   13.35
  -7  -7   3  175.74   26.21
  -7  -7  -3  145.39   17.58
   7   7   4    8.26    3.19
  -7   7   4   16.08    4.79
  -7  -7   4   14.41    4.55
  -7  -7  -4   14.75    3.80
   7   7   5   27.39    5.48
  -7   7   5   59.69   10.65
  -7  -7   5   26.05    4.65
  -7  -7  -5   38.54    9.06
   7   7   6   11.23    4.90
  -7   7   6   11.24    6.02
  -7  -7   6    7.28    2.75
  -7  -7  -6   20.46    5.43
   7   7   7  189.28   11.00
  -7   7   7  202.20   11.56
  -7  -7   7  178.79   23.45
  -7  -7  -7  206.99   11.75
   7  -7   8   25.26    5.61
   7   7   8   13.77    4.51
  -7   7   8    7.37    4.10
  -7  -7   8   12.34    5.41
  -7  -7  -8    7.79    3.95
   7   7   9  287.99   21.00
  -7   7   9  318.50   40.20
  -7  -7   9  304.94   29.29
  -7  -7  -9  312.99   39.30
   7  -7  10   86.84   10.41
   7   7  10   81.92    8.01
  -7   7  10   57.41    9.90
  -7  -7  10   56.93   13.28
  -7  -7 -10   72.98    7.34
   7  -7  11  275.15   31.42
   7   7  11  269.07   18.08
  -7   7  11  249.69   16.93
  -7  -7  11  248.48   17.93
  -7  -7 -11  274.54   18.09
   7  -7  12   47.21    8.92
   7   7  12   58.86    7.52
  -7   7  12   19.60    5.73
  -7  -7 -12   49.20    6.46
   7  -7  13   26.43    8.91
   7   7  13    8.87    5.66
  -7   7  13   19.49    7.24
  -7  -7 -13    7.29    3.92
   7  -7  14   28.07    7.65
   7   7  14   16.01    4.62
  -7   7  14   19.44    5.52
  -7   8   0  126.27    9.44
  -7  -8   0  127.84   17.71
   7   8   1  162.31    8.55
  -7   8   1  172.23   11.36
  -7  -8   1  209.64   19.38
   7   8   2    4.57    2.46
  -7   8   2    9.00    4.10
  -7  -8   2    2.92    2.19
  -7  -8  -2    5.46    2.97
   7   8   3   73.99    5.71
  -7   8   3  115.73    8.82
  -7  -8   3   83.88   12.13
  -7  -8  -3  103.02   16.47
   7   8   4  113.82   10.85
  -7   8   4  142.77   13.64
  -7  -8   4  110.07   18.92
  -7  -8  -4  128.75   18.45
   7   8   5   24.46    6.35
  -7   8   5   32.26    8.44
  -7  -8   5    9.87    4.30
  -7  -8  -5   18.49    4.52
   7   8   6  297.46   21.66
  -7   8   6  335.75   42.85
  -7  -8   6  305.74   28.92
  -7  -8  -6  307.65   22.78
   7   8   7   43.79    7.65
  -7   8   7   25.47    6.44
  -7  -8   7   23.76    5.53
  -7  -8  -7   16.05    4.68
   7   8   8  107.94    9.39
  -7   8   8   95.23    9.12
  -7  -8   8  117.67   13.62
  -7  -8  -8  117.39   10.22
   7   8   9   22.60    5.38
  -7   8   9   28.09    7.04
  -7  -8   9   25.08    5.51
  -7  -8  -9   23.65    5.53
   7   8  10   80.79   10.04
  -7   8  10   38.37    9.61
  -7  -8  10   60.15   15.28
  -7  -8 -10   43.03    6.47
   7  -8  11   64.53   11.03
   7   8  11   84.65    8.67
  -7   8  11   48.61    6.37
  -7  -8  11   56.14   12.84
  -7  -8 -11   48.92    6.38
   7  -8  12   43.62   11.37
   7   8  12   56.33    7.24
  -7   8  12   22.65    7.41
  -7  -8 -12   48.32    6.77
   7  -8  13   63.43   14.60
   7   8  13   91.12   13.99
  -7  -8 -13   64.11   10.14
  -7   9   0    4.92    4.36
  -7  -9   0   -1.44    3.84
  -7   9   1  100.96   10.40
  -7  -9   1   99.18   16.78
  -7  -9  -1   73.91   11.15
  -7   9   2   71.69    8.37
  -7   9  -2   39.09    8.38
  -7  -9   2   68.93   12.17
  -7  -9  -2   75.40   12.06
   7   9   3   71.29    6.36
  -7   9   3   96.35   10.74
  -7  -9   3   68.13   16.26
  -7  -9  -3   92.28   14.36
   7   9   4  155.45   12.29
  -7   9   4  125.19   11.41
  -7  -9   4  129.06   20.89
  -7  -9  -4  111.60   14.92
   7   9   5   21.14    4.46
  -7   9   5   17.06    5.55
  -7  -9   5   18.71    4.03
   7   9   6    3.59    2.82
  -7   9   6   -2.92    4.11
  -7  -9   6    3.00    2.94
  -7  -9  -6    5.15    4.60
   7   9   7   80.16    8.58
  -7   9   7   84.16    9.74
  -7  -9   7   70.70   14.18
  -7  -9  -7   75.59   13.28
   7   9   8    0.97    3.40
  -7   9   8    9.66    6.32
  -7  -9   8   12.96    4.37
  -7  -9  -8   -2.15    3.57
   7   9   9  217.40   16.59
  -7   9   9  194.17   15.82
  -7  -9   9  216.94   26.20
  -7  -9  -9  213.77   16.48
  -7   9  10   19.49    7.81
  -7  -9  10    6.73    4.00
  -7  -9 -10   21.85    6.79
   7   9  11    2.27    3.54
  -7   9  11   16.08    6.87
  -7  -9  11   16.31    4.96
  -7  -9 -11    8.60    4.92
  -7  10   0   13.08    6.82
  -7 -10   0    9.70    5.12
  -7  10  -1  116.90   14.00
  -7 -10   1   60.78   12.74
  -7 -10  -1   98.23   17.14
  -7  10   2    8.49    6.09
  -7  10  -2    7.08    6.34
  -7 -10   2    5.72    3.01
  -7 -10  -2    2.50    3.66
  -7  10   3   42.69    7.29
  -7  10  -3   40.07    7.96
  -7 -10   3   35.83    9.90
  -7 -10  -3   21.76    6.17
  -7  10   4   24.31    7.74
  -7  10  -4   22.89    6.90
  -7 -10   4   29.01    7.55
  -7 -10  -4   39.66    6.13
   7  10   5    8.37    3.42
  -7  10   5    8.22    4.82
  -7 -10   5    6.32    4.41
  -7 -10  -5    9.91    3.68
   7  10   6  276.02   20.29
  -7  10   6  321.68   24.34
  -7 -10   6  287.15   31.31
  -7 -10  -6  273.04   26.18
   7  10   7   14.76    4.34
  -7  10   7   35.70    7.82
  -7 -10   7   20.53    6.17
  -7 -10  -7   48.63    8.32
   7  10   8   83.57   12.17
  -7  10   8  125.94   19.19
  -7 -10   8   94.41   22.42
  -7 -10  -8   84.61   12.32
  -7  11   0   20.96    9.24
  -7 -11   0    2.40    2.06
  -7  11   1   17.08    5.40
  -7  11  -1   23.31    7.03
  -7 -11   1   24.27    6.96
  -7 -11  -1   19.50    6.13
  -7  11  -2   77.88   12.29
  -7 -11   2   75.28   15.19
  -7 -11  -2   68.53   16.45
  -7  11   3    8.43    4.70
  -7  11  -3    8.15    4.34
  -7 -11   3   11.47    3.40
  -7 -11  -3   15.80    3.91
   8   0   0  485.89   30.10
  -8   0   0  500.31   31.60
   8   0  -1   62.55   14.57
   8   0   1   62.28   13.40
  -8   0   1   62.17   11.77
  -8   0  -1   56.77   12.38
   8   0  -2  517.87   32.70
   8   0   2  436.61   27.28
  -8   0  -2  546.47   33.20
   8   0   3   67.60   13.30
  -8   0  -3   49.27    9.66
   8   0   4    4.49    3.23
  -8   0  -4    8.93    2.67
   8   0   5   48.20   12.12
  -8   0  -5   36.19    5.64
   8   0   6  121.90   14.65
  -8   0   6  117.80    7.72
  -8   0  -6  103.34   16.07
   8   0   7   45.77    9.52
  -8   0  -7   37.47    7.59
   8   0   8   13.49    4.76
  -8   0   8   13.47    3.56
   8   0   9    8.39    3.36
   8   0  11    9.24    3.63
   8   0  12  291.02   28.96
   8   0  13  130.28   25.47
   8   0  14   78.81   13.15
   8   0  15  359.70   63.47
   8   0  16   95.05   18.89
   8  -1   0  392.21   24.71
   8   1   0  350.46   22.04
  -8  -1   0  375.23   23.33
   8  -1  -1  259.81   30.58
   8   1  -1  284.26   25.44
   8  -1   1  292.70   27.92
   8   1   1  268.58   23.57
  -8  -1   1  283.69   25.81
  -8  -1  -1  323.66   21.10
   8   1  -2  260.75   16.75
   8  -1   2  319.64   29.23
   8   1   2  278.34   28.16
  -8  -1   2  278.38   24.84
  -8   1  -2  320.30   19.71
  -8  -1  -2  308.11   19.31
   8   1  -3  246.69   16.06
   8  -1   3  250.59   25.19
   8   1   3  252.53   21.64
  -8  -1   3  234.49   20.24
  -8   1  -3  243.17   15.04
  -8  -1  -3  242.50   20.54
   8  -1   4   27.24    5.10
   8   1   4   49.97    8.38
  -8  -1  -4   19.56    4.04
   8  -1   5   71.63    9.59
   8   1   5   58.19    9.78
  -8  -1  -5   67.13    9.70
   8  -1   6   35.72    6.29
   8   1   6   15.00    3.54
  -8   1   6   21.55    3.80
  -8  -1  -6   34.20    6.39
   8  -1   7  195.76   22.95
   8   1   7  190.41   20.54
  -8  -1   7  143.84    9.30
  -8   1   7  171.99   11.25
  -8  -1  -7  169.51   15.72
   8  -1   8   28.54    7.24
   8   1   8   26.59    7.97
  -8   1   8   25.34    5.10
  -8  -1  -8   34.72    7.81
   8  -1   9  308.13   21.69
   8   1   9  261.48   24.74
  -8   1   9  256.70   12.52
  -8  -1  -9  272.33   13.74
   8  -1  10  143.78   21.58
   8   1  10  211.99   19.24
   8  -1  11   18.17    4.77
   8   1  11    9.15    5.03
   8  -1  12   98.96   16.52
   8   1  12  106.66   15.49
   8  -1  13   54.70    8.01
   8   1  13   54.38    9.65
   8  -1  14  114.26   18.38
   8   1  14  131.20   22.68
   8  -1  15   96.31   20.10
   8   1  15  123.84   19.43
   8  -1  16   18.77    4.68
   8   1  16   17.39    4.63
   8  -2   0  239.05   15.90
   8   2   0  182.84   16.78
  -8  -2   0  223.89   17.42
   8  -2   1  461.68   38.53
   8   2  -1  393.36   24.50
   8   2   1  380.80   23.81
  -8  -2   1  412.25   25.86
  -8  -2  -1  439.10   27.16
   8   2  -2   43.23    7.27
   8  -2   2   44.65    9.53
   8   2   2   35.63    7.11
  -8  -2   2   44.78    7.69
  -8  -2  -2   40.94    7.08
   8   2  -3  129.60   12.35
   8  -2   3  144.70   20.34
   8   2   3  143.23   20.21
  -8  -2   3  135.83   18.56
  -8  -2  -3  134.28   10.67
   8  -2   4    6.86    3.62
   8   2   4   21.48    4.55
  -8  -2   4   18.00    4.04
  -8  -2  -4    8.87    2.34
   8  -2   5   55.65    8.67
   8   2   5   64.89   10.47
  -8   2   5   73.39    7.38
  -8  -2   5   71.99    7.42
  -8  -2  -5   63.92    8.70
   8  -2   6   96.19   12.84
   8   2   6  114.13   21.08
  -8   2   6   86.11    8.36
  -8  -2  -6   82.17   13.48
   8  -2   7   44.88    9.48
   8   2   7   94.66   10.98
  -8   2   7   51.62    9.63
  -8  -2  -7   51.96   10.30
   8  -2   8   55.34   10.56
   8   2   8   55.49   12.61
  -8   2   8   54.46   10.27
  -8  -2  -8   51.54   11.89
   8  -2   9   33.24    5.67
   8   2   9   23.36    5.98
  -8   2   9   42.42    6.88
  -8  -2  -9   34.67    6.62
   8  -2  10  175.17   22.32
   8   2  10  205.07   27.73
  -8   2  10  172.45   14.88
  -8  -2 -10  188.03   16.04
   8  -2  11   38.21    9.20
   8   2  11   26.54    6.97
  -8   2  11   20.34    5.13
  -8  -2 -11   26.10    5.84
   8  -2  12  204.89   26.28
   8   2  12  222.85   36.16
  -8  -2 -12  204.30   14.84
   8  -2  13   69.66   12.91
   8   2  13   64.15    8.25
   8  -2  14   64.41    9.63
   8   2  14   62.99   14.51
   8  -2  15  158.72   31.83
   8   2  15  169.61   25.06
   8  -2  16   78.61   20.48
   8   2  16   55.80   14.05
   8   3   0   29.43    5.29
  -8  -3   0   32.31    4.85
   8  -3   1   48.62    9.65
   8   3  -1   42.11    6.32
   8   3   1   35.59    4.55
  -8  -3   1   40.23    6.57
  -8  -3  -1   50.06    7.86
   8  -3   2  181.03   16.99
   8   3  -2  149.29   12.91
   8   3   2  151.68   23.12
  -8  -3   2  188.68   16.27
  -8  -3  -2  167.16   12.01
   8  -3   3  192.15   22.89
   8   3  -3  172.28   14.29
   8   3   3  233.84   15.21
  -8  -3   3  242.55   18.67
  -8  -3  -3  198.18   15.43
   8   3  -4  122.25    7.54
   8  -3   4  124.72   20.34
   8   3   4  145.58   22.74
  -8  -3   4  161.36   23.20
  -8  -3  -4  132.93   11.48
   8  -3   5  148.28   21.47
   8   3   5  113.17   17.72
  -8   3   5  131.33    9.44
  -8  -3   5  109.44   14.74
  -8  -3  -5  135.15   16.68
   8  -3   6   35.71    8.32
   8   3   6   53.71   11.12
  -8   3   6   31.14    7.31
  -8  -3   6   42.66   10.65
  -8  -3  -6   28.73    6.37
   8  -3   7   66.40   14.77
   8   3   7   46.77   10.09
  -8   3   7   66.42   10.39
  -8  -3  -7   49.69   10.61
   8  -3   8  173.21   17.21
   8   3   8  150.29   13.99
  -8   3   8  201.24   10.86
  -8  -3  -8  164.40   14.78
   8  -3   9   55.23    8.14
   8   3   9   28.19    9.90
  -8   3   9   48.99    8.64
  -8  -3  -9   56.80    6.09
   8  -3  10   87.75   13.95
   8   3  10   56.97   12.60
  -8   3  10   80.19    8.53
  -8  -3 -10   91.20    9.26
   8  -3  11    5.93    3.93
   8   3  11   -1.15    3.66
  -8   3  11    4.26    2.88
  -8  -3 -11    5.97    2.90
   8  -3  12  178.27   22.24
   8   3  12  164.96   26.35
  -8   3  12  193.82   12.91
  -8  -3 -12  212.89   14.06
   8  -3  13   43.97   10.43
   8   3  13   43.14   13.94
  -8  -3 -13   45.76    6.37
   8  -3  14  101.70   23.77
   8   3  14  120.37   18.60
  -8  -3 -14  114.55    9.44
   8  -3  15   59.54   18.54
   8   3  15   80.87   19.16
   8   4   0  336.84   26.16
  -8  -4   0  364.16   29.95
   8   4  -1  127.96   15.66
   8   4   1  149.75   13.71
  -8  -4   1  172.49   24.96
  -8  -4  -1  142.80   15.53
   8  -4   2  109.01   10.85
   8   4  -2   75.26   14.47
   8   4   2   51.53    8.05
  -8  -4   2   64.15    9.69
  -8  -4  -2   84.38   13.02
   8  -4   3   93.78   10.52
   8   4   3   66.46   11.55
  -8  -4   3   83.51   11.94
  -8  -4  -3   61.56   13.52
   8  -4   4   76.79    9.66
   8   4   4   33.93    8.26
  -8   4   4   63.60   11.92
  -8  -4   4   33.49    8.85
  -8  -4  -4   69.46   12.06
   8  -4   5   79.18   10.97
   8   4   5   81.78   15.33
  -8   4   5   94.73    8.94
  -8  -4   5   95.41   10.89
  -8  -4  -5   77.15   11.43
   8  -4   6   -7.89    3.62
   8   4   6    7.62    2.73
  -8   4   6   -1.98    3.17
  -8  -4   6    6.85    3.35
  -8  -4  -6    2.79    2.19
   8  -4   7  131.58   14.44
   8   4   7  149.25   15.01
  -8   4   7  143.18    9.44
  -8  -4   7  139.20   22.68
  -8  -4  -7  129.44   10.52
   8  -4   8   23.08    5.25
   8   4   8   35.27    9.28
  -8   4   8   22.65    5.81
  -8  -4  -8   22.17    5.98
   8  -4   9   46.14   12.35
   8   4   9   39.28    9.28
  -8   4   9   62.32    6.91
  -8  -4  -9   51.40    6.64
   8  -4  10  108.64   15.21
   8   4  10  109.95   14.45
  -8   4  10  107.27    9.36
  -8  -4 -10  112.12    9.24
   8  -4  11  142.17   26.93
   8   4  11  149.48   27.10
  -8   4  11  181.19   12.51
  -8  -4 -11  198.95   13.40
   8  -4  12   73.40   13.50
   8   4  12   71.23   15.12
  -8   4  12   77.39    7.19
  -8  -4 -12   70.64    6.25
   8  -4  13   64.19   19.23
   8   4  13   52.68    7.72
  -8   4  13   47.76    5.71
  -8  -4 -13   46.57    6.14
   8  -4  14   19.28    6.01
   8   4  14   14.16    5.40
   8   5   0  120.46   14.29
  -8  -5   0  142.86   13.76
   8   5  -1  236.13   14.27
   8   5   1  232.29   21.23
  -8  -5   1  232.70   30.00
  -8  -5  -1  255.40   22.79
   8   5   2  170.71   23.46
  -8  -5   2  216.73   16.51
  -8  -5  -2  158.71   14.49
   8   5   3   14.51    4.18
  -8   5   3    8.17    4.29
  -8  -5   3   15.44    3.20
  -8  -5  -3   26.36    5.20
   8  -5   4   77.22    6.55
   8   5   4   89.35   13.32
  -8   5   4   83.83    6.76
  -8  -5   4   95.40   16.04
  -8  -5  -4   73.93   11.81
   8  -5   5   -0.18    3.66
   8   5   5   15.46    3.59
  -8   5   5    6.42    4.13
  -8  -5   5   -0.90    3.37
  -8  -5  -5    5.07    4.09
   8  -5   6    9.64    4.67
   8   5   6   14.30    5.09
  -8   5   6   25.45    7.13
  -8  -5   6    7.00    3.09
  -8  -5  -6   13.68    4.91
   8  -5   7   11.49    5.17
   8   5   7    5.80    2.02
  -8   5   7   12.49    6.39
  -8  -5   7    6.33    2.86
  -8  -5  -7    8.02    3.52
   8  -5   8  138.69   20.53
   8   5   8  109.40   17.70
  -8   5   8  147.56   12.50
  -8  -5   8  100.88   20.98
  -8  -5  -8  160.85   12.40
   8  -5   9   24.47    6.93
  -8   5   9   24.93    5.39
  -8  -5  -9   28.19    6.14
   8  -5  10  199.00   29.70
   8   5  10  150.72   14.54
  -8   5  10  196.10   13.50
  -8  -5 -10  211.09   14.14
   8  -5  11   -1.01    3.04
   8   5  11   15.74    6.30
  -8   5  11    4.29    3.35
  -8  -5 -11    6.36    3.37
   8  -5  12   38.11    9.92
   8   5  12   39.60    7.42
  -8   5  12   32.37    7.64
  -8  -5 -12   48.22    6.79
   8  -5  13   49.35   11.42
   8   5  13   41.73    6.09
  -8   5  13   51.36    5.85
  -8  -5 -13   33.81    7.23
   8  -5  14   87.43   21.93
   8   5  14  127.22   17.82
  -8   5  14  114.17   15.81
  -8  -5 -14  104.97   14.69
  -8  -6   0    9.17    3.59
   8   6   1  299.18   14.00
  -8  -6   1  282.67   28.16
  -8  -6  -1  318.82   24.86
   8   6   2   76.79   14.33
  -8   6   2  142.82   13.70
  -8  -6   2  111.56   19.02
  -8  -6  -2  144.46   21.44
   8   6   3   27.67    6.19
  -8   6   3   36.86    8.33
  -8  -6   3   34.62    8.76
  -8  -6  -3   31.10    7.23
   8   6   4   50.33    9.78
  -8   6   4   74.77    8.77
  -8  -6   4   62.44    9.32
  -8  -6  -4   67.92   13.00
   8   6   5   37.67   10.90
  -8   6   5   44.98   10.30
  -8  -6   5   58.33    9.80
  -8  -6  -5   40.07   10.52
   8  -6   6    5.04    3.33
   8   6   6    6.28    3.38
  -8   6   6   18.79    6.22
  -8  -6   6   13.08    3.40
  -8  -6  -6   10.94    2.74
   8  -6   7   64.86   16.49
   8   6   7   65.60   12.82
  -8   6   7   66.42   10.97
  -8  -6   7   82.35    9.46
  -8  -6  -7   59.86   11.98
   8  -6   8   62.82   13.21
   8   6   8   72.98    7.84
  -8   6   8   38.25    6.82
  -8  -6   8   59.77    9.32
  -8  -6  -8   59.30    5.96
   8  -6   9   24.35    6.12
   8   6   9    6.88    5.19
  -8   6   9   21.15    6.01
  -8  -6   9   10.89    4.23
  -8  -6  -9   11.57    4.88
   8  -6  10   32.17   10.51
   8   6  10   39.29   10.66
  -8   6  10   34.75    8.44
  -8  -6 -10   18.89    5.21
   8  -6  11  104.50   19.20
   8   6  11  129.92   11.40
  -8   6  11   95.89    8.89
  -8  -6 -11  110.33    9.73
   8  -6  12    5.77    4.85
   8   6  12   16.57    6.21
  -8   6  12    5.60    3.53
  -8  -6 -12    1.32    3.20
  -8  -7   0   54.01   11.69
  -8   7   1  257.60   20.02
  -8  -7   1  202.55   28.55
  -8  -7  -1  217.21   28.50
  -8   7   2   42.18    9.05
  -8  -7   2   72.42   10.97
  -8  -7  -2   32.79    6.65
   8   7   3   15.27    3.24
  -8   7   3   15.73    6.56
  -8  -7   3   13.73    3.39
  -8  -7  -3    8.29    2.71
   8   7   4   71.66   16.69
  -8   7   4   58.03   10.43
  -8  -7   4   95.22    9.75
  -8  -7  -4   83.24    9.48
   8   7   5    3.65    1.89
  -8   7   5   13.44    6.15
  -8  -7   5    4.85    2.35
  -8  -7  -5    3.74    3.61
   8   7   6   19.15    4.24
  -8   7   6   19.98    5.43
  -8  -7   6   33.92    7.90
   8   7   7   16.21    5.44
  -8   7   7   36.17    7.26
  -8  -7  -7   18.57    4.24
   8  -7   8  238.30   22.40
   8   7   8  203.61   18.50
  -8   7   8  228.79   21.52
  -8  -7   8  165.78   24.99
  -8  -7  -8  196.14   19.18
   8  -7   9   60.90   14.15
   8   7   9   57.25    7.18
  -8   7   9   55.54    6.85
  -8  -7   9   46.45   11.28
  -8  -7  -9   62.99    7.70
   8  -7  10  158.14   24.96
   8   7  10  124.18   10.94
  -8   7  10  170.52   14.14
  -8  -7  10   99.40   24.16
  -8  -7 -10  132.37   11.05
   8  -7  11   34.42    9.38
   8   7  11   47.82    9.47
  -8   7  11   42.71    7.51
  -8  -7 -11   56.00    8.81
  -8   8   0   17.08    7.22
  -8  -8   0   -0.29    3.60
  -8   8   1  115.17   11.79
  -8  -8   1  100.24   12.84
  -8  -8  -1   82.88   13.35
  -8   8   2   73.63    7.44
  -8  -8   2   50.10   10.62
  -8  -8  -2   37.11    8.39
  -8   8   3   19.83    5.42
  -8  -8   3   32.19    9.79
  -8  -8  -3   40.90    7.84
  -8   8   4   82.10   10.29
  -8  -8   4   77.89   14.57
  -8  -8  -4   78.06   12.50
   8   8   5   19.45    5.23
  -8   8   5   29.68    8.16
  -8  -8   5   10.28    3.91
  -8  -8  -5   22.20    6.12
   8   8   6   89.58    8.84
  -8   8   6  126.62   12.49
  -8  -8   6   84.52   13.42
  -8  -8  -6   85.13   12.39
   8   8   7   16.56    5.43
  -8   8   7   15.19    5.67
  -8  -8   7   21.69    6.34
  -8  -8  -7   10.80    4.01
   8   8   8   32.76    6.47
  -8   8   8   28.15    6.72
  -8  -8   8   32.70    8.42
  -8  -8  -8   30.24    5.53
   8   8   9   28.02    7.24
  -8   8   9   34.86    7.57
  -8  -8   9   23.94    6.09
  -8  -8  -9   25.59    6.12
  -8   9   0    8.44    6.11
  -8  -9   0   16.40    6.35
  -8   9   1  168.95   14.38
  -8  -9   1  215.85   23.53
  -8  -9  -1  161.02   29.10
  -8   9   2   65.17    9.90
  -8   9  -2  101.25   12.31
  -8  -9   2   96.20   18.13
  -8  -9  -2   52.89    8.64
  -8   9   3   53.08    8.32
  -8  -9   3   73.08   16.92
  -8  -9  -3   46.33    8.40
  -8   9   4   93.30   14.53
  -8  -9   4  102.75   16.89
  -8  -9  -4   67.17   13.13
  -8   9   5   20.15    6.07
  -8  -9   5   18.84    4.97
  -8  -9  -5   13.54    4.71
  -8   9   6   70.57   11.52
  -8  -9   6   45.39    8.63
  -8  -9  -6   39.28    7.44
   9   0   0    4.68    2.76
   9   0  -1    8.83    3.02
   9   0   1    9.30    4.08
   9   0   2  198.34   18.12
   9   0   3   47.42   12.07
   9   0   4   93.44   13.30
   9   0   5   33.35    7.85
   9   0   6    6.99    2.54
   9   0   7   39.14   10.81
   9   0   8   12.28    3.29
   9   0   9   14.02    4.44
   9   0  10  141.67   20.78
   9   0  11   43.15    6.85
   9   0  12    1.02    2.86
   9   0  13   10.00    3.57
   9  -1   0    5.73    2.10
   9   1   0    3.61    2.01
  -9  -1   0    2.36    1.73
   9  -1   1   39.68    9.82
   9   1  -1   40.86   10.64
   9   1   1   82.17   12.66
  -9  -1   1   93.41    7.31
  -9  -1  -1   31.83    8.08
   9   1  -2   40.33    9.56
   9  -1   2   37.65    8.87
   9   1   2   50.96    9.65
  -9  -1   2   60.71    9.21
  -9  -1  -2   42.51    9.10
   9  -1   3   44.33   10.13
   9   1   3   51.27    7.05
  -9  -1  -3   42.58    9.88
   9  -1   4   12.02    4.84
   9   1   4   27.98    7.88
   9  -1   5  413.61   42.45
   9   1   5  407.72   39.24
   9  -1   6   25.25    5.89
   9   1   6   36.20    7.45
  -9   1   6   25.85    4.94
   9  -1   7  232.90   28.53
   9   1   7  232.28   29.37
  -9   1   7  249.89   17.81
   9  -1   8   19.88    3.96
   9   1   8   16.00    5.48
   9  -1   9   58.55    9.76
   9   1   9   59.08   11.04
   9  -1  10   54.84   12.03
   9   1  10   81.93   16.44
   9  -1  11   36.29    7.88
   9   1  11   39.09    6.72
   9  -1  12    6.68    3.30
   9   1  12   10.81    5.31
   9  -1  13   36.04    7.85
   9   1  13   40.29    9.30
   9   2   0    9.55    2.87
  -9  -2   0   13.18    4.68
   9  -2   1   -4.07    3.36
   9   2  -1    4.65    1.98
   9   2   1    0.96    1.57
  -9  -2   1    6.08    2.18
  -9  -2  -1    3.14    1.80
   9  -2   2  196.14   22.25
   9   2  -2  209.14   17.68
   9   2   2  133.84   16.71
  -9  -2   2  149.93   16.67
  -9  -2  -2  201.72   25.66
   9  -2   3   28.31    8.19
   9   2   3   23.42    5.93
  -9  -2   3   25.66    7.28
  -9  -2  -3   23.56    6.77
   9  -2   4  156.63   18.65
   9   2   4  134.01   26.09
  -9  -2  -4  161.19   18.89
   9  -2   5    9.94    2.84
   9   2   5    2.60    1.76
  -9   2   5    7.18    4.34
  -9  -2  -5    6.41    1.82
   9  -2   6   18.50    5.16
   9   2   6    2.18    3.11
  -9   2   6    3.52    4.04
  -9  -2  -6    0.08    1.25
   9  -2   7   16.14    3.70
   9   2   7   27.43    5.60
  -9   2   7   13.72    4.38
   9  -2   8  188.04   23.21
   9   2   8  178.33   24.69
  -9   2   8  219.32   14.34
   9  -2   9    7.06    3.85
   9   2   9   21.45    6.12
   9  -2  10  104.45   15.54
   9   2  10  119.38   23.41
   9  -2  11   34.19    7.80
   9   2  11   23.92    8.03
   9  -2  12   24.45    6.76
   9   2  12   25.17    7.47
   9   3   0   45.02   10.93
  -9  -3   0   55.63   12.09
   9   3  -1    5.47    2.31
   9   3   1    3.47    1.95
  -9  -3   1    7.19    2.94
  -9  -3  -1    6.33    2.18
   9  -3   2   12.63    4.18
   9   3   2   21.93    5.31
  -9  -3   2   17.39    5.08
  -9  -3  -2   19.99    5.57
   9  -3   3   67.38   13.32
   9   3   3   50.72   10.61
  -9  -3   3   64.73   12.72
  -9  -3  -3   54.94   11.81
   9  -3   4   56.65   12.71
   9   3   4   54.95   11.21
  -9  -3   4   45.85   11.87
  -9  -3  -4   54.26   11.59
   9  -3   5  167.31   21.16
   9   3   5  150.29   23.34
  -9   3   5  184.55   14.20
  -9  -3   5  179.65   13.70
  -9  -3  -5  145.78   17.83
   9  -3   6   87.92   11.87
   9   3   6   94.97   13.15
  -9   3   6   67.49   10.77
  -9  -3  -6   68.29   14.85
   9  -3   7  212.89   18.15
   9   3   7  249.61   24.39
  -9   3   7  193.15   14.01
  -9  -3  -7  161.77   18.72
   9  -3   8   24.19    5.18
   9   3   8   11.45    2.93
  -9   3   8   28.75    5.79
  -9  -3  -8   17.79    4.25
   9  -3   9   -1.37    3.93
   9   3   9    5.60    2.46
  -9   3   9    3.53    2.80
   9  -3  10   13.92    6.13
   9   3  10   25.78    7.64
   9  -3  11   36.42   10.33
   9   3  11   37.61    5.34
   9  -3  12   67.07   15.64
   9   3  12   64.83   15.65
  -9  -4   0    1.36    1.95
   9   4   1   25.60    6.33
  -9  -4   1   48.39    9.20
  -9  -4  -1   68.22   12.42
   9   4   2   42.68    9.68
  -9  -4   2   56.35   14.25
  -9  -4  -2   58.70   12.34
   9  -4   3  183.17   14.59
   9   4   3  141.25   16.78
  -9  -4   3  158.00   16.55
  -9  -4  -3  163.90   17.71
   9  -4   4   49.93    9.40
   9   4   4   29.20    5.50
  -9   4   4   29.94    6.22
  -9  -4   4   29.53    5.80
  -9  -4  -4   36.26    8.25
   9  -4   5   56.79   12.60
   9   4   5   46.33   13.14
  -9   4   5   58.46    6.27
  -9  -4   5   47.29    9.15
  -9  -4  -5   45.55    9.90
   9  -4   6    5.67    2.93
   9   4   6   14.47    4.51
  -9   4   6    7.91    3.39
  -9  -4   6   14.93    4.12
  -9  -4  -6    4.08    2.78
   9  -4   7   30.83   10.39
   9   4   7   24.56    8.81
  -9   4   7   25.03    6.29
  -9  -4  -7   30.39    7.75
   9  -4   8   35.46    8.30
   9   4   8   23.59    6.73
  -9   4   8   53.89    6.58
  -9  -4  -8   33.61   10.18
   9  -4   9   94.62   17.57
   9   4   9  131.72   24.39
  -9   4   9  109.81    9.60
  -9  -4  -9   67.68   17.19
   9  -4  10   66.03   12.17
   9   4  10   59.51    8.03
  -9   4  10   61.76    6.74
  -9  -4 -10   44.97    8.69
   9  -4  11   57.51   12.62
   9   4  11   37.00    8.07
  -9  -5   0   96.86   12.93
  -9  -5   1   10.55    5.01
  -9  -5  -1   -1.21    2.66
   9   5   2    9.01    2.58
  -9  -5   2   -0.39    3.10
  -9  -5  -2   10.99    4.01
   9   5   3   14.09    3.39
  -9   5   3   18.51    4.98
  -9  -5   3   12.38    2.65
  -9  -5  -3   20.69    5.21
   9   5   4  101.02   12.00
  -9   5   4  100.67    8.90
  -9  -5   4  103.19   19.53
  -9  -5  -4   84.63   16.91
   9  -5   5   83.89   10.32
   9   5   5   61.04   12.09
  -9   5   5   95.97   10.16
  -9  -5   5   69.70   11.11
  -9  -5  -5   68.49   11.90
   9  -5   6  190.43   26.78
   9   5   6  196.11   25.46
  -9   5   6  195.38   18.03
  -9  -5   6  166.73   32.91
  -9  -5  -6  153.22   28.99
   9  -5   7   26.02   11.50
   9   5   7   27.21   10.89
  -9   5   7   43.44    5.55
  -9  -5   7   25.54    8.42
  -9  -5  -7   34.25    9.29
   9  -5   8   52.55   10.52
   9   5   8   52.47    9.38
  -9   5   8   54.01    7.21
  -9  -5  -8   36.69    9.80
   9  -5   9   32.32    8.90
   9   5   9   33.92    7.88
  -9   5   9   11.44    3.94
  -9  -5  -9   17.99    7.73
   9  -5  10   11.12    4.00
   9   5  10    4.53    2.39
  -9   5  10    9.71    4.64
  -9  -5 -10    2.04    1.54
  -9  -6   0   55.37    9.17
  -9  -6   1   26.05    6.47
  -9  -6  -1   40.97    6.54
  -9   6   2   25.33    6.78
  -9  -6   2   28.19    7.63
  -9  -6  -2   13.20    3.60
  -9   6   3   92.51   11.39
  -9  -6   3   88.18   11.78
  -9  -6  -3   72.48   14.08
   9   6   4    5.14    1.92
  -9   6   4   13.16    4.86
  -9  -6   4    5.55    4.38
  -9  -6  -4    6.50    2.50
   9   6   5    5.63    2.15
  -9   6   5   10.38    4.69
  -9  -6   5    3.07    2.66
  -9  -6  -5   13.61    4.63
   9   6   6    3.01    1.96
  -9   6   6    1.98    3.84
  -9  -6   6    8.60    3.36
  -9  -6  -6    6.77    3.37
   9  -6   7   16.93    5.78
   9   6   7   26.47    6.20
  -9   6   7   14.67    5.79
  -9  -6   7   19.78    6.03
  -9  -6  -7   19.53    6.25
   9  -6   8    1.60    3.95
   9   6   8   10.28    3.16
  -9   6   8    5.99    3.63
  -9  -6   8    8.21    2.37
  -9  -6  -8    4.64    2.40
  -9  -7   0   27.51    7.64
  -9   7   1   27.84    9.10
  -9  -7  -1   36.09    8.70
  -9   7   2    5.22    4.55
  -9  -7   2   10.93    3.53
  -9  -7  -2    5.03    3.41
  -9   7   3   19.97    7.08
  -9  -7   3    8.50    2.95
  -9  -7  -3   10.16    4.48
  -9   7   4   70.35   11.58
  -9  -7   4   47.02   11.35
  -9  -7  -4   66.18   13.04
  -9   7   5   11.12    4.55
  -9  -7   5   11.40    4.13
  -9  -7  -5   10.26    2.96
  10   0   0  842.84  203.19
  10   0   1   10.45    3.10
  10   0   2  166.73   15.33
  10   0   3   64.90   12.68
  10   0   4   57.57   11.69
  10   0   5   19.76    6.63
  10   0   6    7.68    2.91
  10   0   7   80.70   16.11
  10   1   0  204.32   23.31
  10   1  -1   15.31    7.99
  10  -1   1   19.31    5.77
  10   1   1   24.80    7.27
  10  -1   2   45.04    6.81
  10   1   2   28.41    9.23
  10  -1   3   32.29    9.15
  10   1   3   17.36    5.77
  10  -1   4    6.18    3.79
  10   1   4    6.61    2.71
  10  -1   5    9.02    4.51
  10   1   5   24.40    6.67
  10  -1   6   54.95    9.86
  10   1   6   35.52   11.35
  10  -1   7   32.71    6.99
  10   1   7   42.12    8.13
  10   2   1   21.96    7.03
  10  -2   2  133.16   16.61
  10   2   2  154.19   18.28
  10  -2   3   44.47   12.41
  10   2   3   21.43    6.79
  10  -2   4   25.49    8.63
  10   2   4   27.93   10.78
  10  -2   5   -2.08    3.68
  10   2   5    4.78    2.33
  10  -2   6   11.10    4.27
  10   2   6    4.22    1.59
  10  -2   7   30.19    7.44
  10   2   7   29.15    7.25
 -10  -3   0   44.24   11.23
 -10  -3   1  128.13   15.45
 -10  -3  -1   82.09   17.76
  10   3   2   44.55   10.83
 -10  -3   2   50.55   12.29
  10  -3   3   41.95    5.52
  10   3   3   43.46    9.95
 -10  -3   3   35.14   11.15
  10  -3   4   14.73    5.91
  10   3   4    5.54    2.49
 -10   3   4   14.54    4.99
  10  -3   5   23.96    6.60
  10   3   5   11.41    4.41
 -10   3   5   21.53    5.73
  10  -3   6    5.54    3.38
  10   3   6    8.76    2.53
 -10   3   6   -1.43    2.65
 -10  -4   0   70.02   14.91
 -10  -4   1   20.68    6.08
 -10  -4  -1   28.91    9.00
 -10  -4   2   86.75   19.86
 -10  -4  -2   66.85   18.54
 -10   4   3    4.16    3.48
 -10  -4   3    6.44    3.56
 -10  -4  -3    2.77    2.03
  10   4   4    7.54    2.31
 -10   4   4    4.42    3.32
 -10  -4   4   14.18    4.98

_computing_structure_solution     'SHELXT 2014/4 (Sheldrick, 2014)'
;
_shelx_hkl_checksum              91220
_shelx_shelxl_version_number     2014/7
_olex2_submission_special_instructions 'No special instructions were received'
loop_
_space_group_symop_operation_xyz
'x, y, z'
'-x+1/2, -y, z+1/2'
'-x, y+1/2, -z+1/2'
'x+1/2, -y+1/2, -z'
loop_
_atom_site_label
_atom_site_type_symbol
_atom_site_fract_x
_atom_site_fract_y
_atom_site_fract_z
_atom_site_U_iso_or_equiv
_atom_site_adp_type
_atom_site_occupancy
_atom_site_site_symmetry_order
_atom_site_calc_flag
_atom_site_refinement_flags_posn
Br1 Br 0.63639(5) 0.78941(3) 0.16607(2) 0.03348(11) Uani 1 1 d .
S1 S 0.14644(12) 0.76537(6) 0.24226(4) 0.02250(17) Uani 1 1 d .
O1 O 0.5193(3) 0.95668(19) 0.29548(13) 0.0257(5) Uani 1 1 d .
O2 O 0.2644(3) 0.9971(2) 0.26538(12) 0.0251(5) Uani 1 1 d .
O3 O 0.4288(4) 0.5746(3) 0.56565(13) 0.0381(7) Uani 1 1 d .
O4 O 0.1618(3) 0.64264(19) 0.23223(13) 0.0294(6) Uani 1 1 d .
O5 O 0.0286(3) 0.8079(2) 0.29017(12) 0.0296(6) Uani 1 1 d .
N1 N 0.3364(3) 0.8062(2) 0.26846(13) 0.0203(6) Uani 1 1 d .
C1 C 0.6277(5) 0.7649(3) 0.26595(15) 0.0220(6) Uani 1 1 d .
H1 H 0.7131 0.7089 0.2792 0.026 Uiso 1 1 calc R
C2 C 0.4595(4) 0.7164(3) 0.28496(16) 0.0204(6) Uani 1 1 d .
H2 H 0.4377 0.6477 0.2565 0.024 Uiso 1 1 calc R
C3 C 0.3672(5) 0.9244(2) 0.27613(15) 0.0207(6) Uani 1 1 d .
C4 C 0.6570(5) 0.8776(3) 0.30272(18) 0.0260(7) Uani 1 1 d .
H4A H 0.6755 0.8622 0.3512 0.031 Uiso 1 1 calc R
H4B H 0.7555 0.9141 0.2844 0.031 Uiso 1 1 calc R
C5 C 0.4529(4) 0.6806(3) 0.36089(17) 0.0216(7) Uani 1 1 d .
C6 C 0.5572(5) 0.5934(3) 0.38424(18) 0.0292(8) Uani 1 1 d .
H6 H 0.6311 0.5594 0.3537 0.035 Uiso 1 1 calc R
C7 C 0.5535(5) 0.5558(3) 0.45221(18) 0.0302(8) Uani 1 1 d .
H7 H 0.6246 0.4975 0.4669 0.036 Uiso 1 1 calc R
C8 C 0.4437(5) 0.6057(3) 0.49785(18) 0.0271(8) Uani 1 1 d .
C9 C 0.3391(5) 0.6929(3) 0.47525(18) 0.0310(8) Uani 1 1 d .
H9 H 0.2657 0.7273 0.5058 0.037 Uiso 1 1 calc R
C10 C 0.3433(5) 0.7291(3) 0.40747(17) 0.0277(7) Uani 1 1 d .
H10 H 0.2714 0.7871 0.3929 0.033 Uiso 1 1 calc R
C11 C 0.5435(5) 0.4915(3) 0.5916(2) 0.0365(9) Uani 1 1 d .
H11A H 0.5300 0.4192 0.5676 0.055 Uiso 1 1 calc GR
H11B H 0.5242 0.4798 0.6398 0.055 Uiso 1 1 calc GR
H11C H 0.6537 0.5197 0.5849 0.055 Uiso 1 1 calc GR
C12 C 0.1147(4) 0.8317(3) 0.16183(18) 0.0231(7) Uani 1 1 d .
C13 C 0.1705(4) 0.7758(3) 0.10309(17) 0.0277(8) Uani 1 1 d .
H13 H 0.2344 0.7090 0.1065 0.033 Uiso 1 1 calc R
C14 C 0.1296(5) 0.8209(3) 0.03920(19) 0.0329(8) Uani 1 1 d .
H14 H 0.1656 0.7833 -0.0004 0.040 Uiso 1 1 calc R
C15 C 0.0355(5) 0.9217(3) 0.0335(2) 0.0307(8) Uani 1 1 d .
C16 C -0.0138(5) 0.9770(3) 0.0927(2) 0.0311(8) Uani 1 1 d .
H16 H -0.0741 1.0456 0.0893 0.037 Uiso 1 1 calc R
C17 C 0.0237(4) 0.9334(3) 0.1577(2) 0.0267(8) Uani 1 1 d .
H17 H -0.0115 0.9715 0.1973 0.032 Uiso 1 1 calc R
C18 C -0.0122(6) 0.9700(4) -0.0361(2) 0.0412(10) Uani 1 1 d .
H18A H 0.0284 1.0481 -0.0404 0.062 Uiso 1 1 calc GR
H18B H -0.1300 0.9700 -0.0404 0.062 Uiso 1 1 calc GR
H18C H 0.0348 0.9224 -0.0716 0.062 Uiso 1 1 calc GR
loop_
_atom_site_aniso_label
_atom_site_aniso_U_11
_atom_site_aniso_U_22
_atom_site_aniso_U_33
_atom_site_aniso_U_23
_atom_site_aniso_U_13
_atom_site_aniso_U_12
Br1 0.0355(2) 0.04008(18) 0.02485(17) 0.00205(16) 0.00685(17) -0.00433(19)
S1 0.0194(4) 0.0227(4) 0.0253(4) 0.0032(3) -0.0013(4) -0.0025(3)
O1 0.0227(13) 0.0200(11) 0.0345(14) -0.0034(10) -0.0030(11) -0.0022(10)
O2 0.0253(13) 0.0185(10) 0.0316(13) 0.0017(9) 0.0018(11) 0.0039(10)
O3 0.0404(17) 0.0531(16) 0.0208(13) 0.0087(12) 0.0021(12) 0.0084(14)
O4 0.0308(15) 0.0213(11) 0.0361(14) 0.0050(10) -0.0089(12) -0.0067(11)
O5 0.0218(12) 0.0369(14) 0.0300(13) 0.0039(11) 0.0043(11) -0.0001(11)
N1 0.0198(15) 0.0171(12) 0.0241(13) 0.0010(10) -0.0017(11) 0.0003(11)
C1 0.0211(16) 0.0239(15) 0.0209(15) 0.0007(12) 0.0016(14) 0.0005(14)
C2 0.0218(16) 0.0174(13) 0.0219(15) -0.0006(13) -0.0001(13) 0.0020(14)
C3 0.0237(17) 0.0210(14) 0.0175(14) -0.0007(11) 0.0020(15) -0.0016(15)
C4 0.0204(19) 0.0276(16) 0.0299(17) 0.0001(13) -0.0032(15) -0.0007(15)
C5 0.0248(18) 0.0182(15) 0.0220(16) 0.0003(12) 0.0012(14) -0.0001(13)
C6 0.031(2) 0.0312(18) 0.0252(18) -0.0005(15) 0.0050(16) 0.0105(16)
C7 0.034(2) 0.0301(18) 0.0266(19) 0.0055(15) -0.0011(16) 0.0105(17)
C8 0.0279(19) 0.0330(18) 0.0204(17) 0.0016(14) -0.0006(15) -0.0026(15)
C9 0.031(2) 0.0353(18) 0.0268(18) -0.0027(14) 0.0051(15) 0.0068(17)
C10 0.030(2) 0.0247(16) 0.0285(17) 0.0017(13) 0.0023(15) 0.0044(16)
C11 0.045(2) 0.035(2) 0.0289(19) 0.0094(17) -0.0043(18) -0.0050(19)
C12 0.0183(17) 0.0243(14) 0.0267(16) 0.0035(13) -0.0031(15) -0.0019(13)
C13 0.028(2) 0.0251(16) 0.0296(18) -0.0006(14) -0.0020(14) -0.0004(15)
C14 0.038(2) 0.0319(18) 0.0292(18) -0.0045(14) 0.0002(19) -0.0037(19)
C15 0.028(2) 0.0338(19) 0.0300(19) 0.0055(15) -0.0063(17) -0.0082(17)
C16 0.027(2) 0.0303(18) 0.036(2) 0.0059(16) -0.0046(17) 0.0029(15)
C17 0.0226(18) 0.0284(16) 0.0292(19) -0.0007(15) -0.0011(15) 0.0022(14)
C18 0.045(3) 0.048(2) 0.031(2) 0.0069(18) -0.0083(19) -0.003(2)
loop_
_atom_type_symbol
_atom_type_description
_atom_type_scat_dispersion_real
_atom_type_scat_dispersion_imag
_atom_type_scat_source
C C 0.0033 0.0016 'International Tables Vol C Tables 4.2.6.8 and 6.1.1.4'
H H 0.0000 0.0000 'International Tables Vol C Tables 4.2.6.8 and 6.1.1.4'
Br Br -0.2901 2.4595 'International Tables Vol C Tables 4.2.6.8 and 6.1.1.4'
N N 0.0061 0.0033 'International Tables Vol C Tables 4.2.6.8 and 6.1.1.4'
O O 0.0106 0.0060 'International Tables Vol C Tables 4.2.6.8 and 6.1.1.4'
S S 0.1246 0.1234 'International Tables Vol C Tables 4.2.6.8 and 6.1.1.4'
loop_
_geom_angle_atom_site_label_1
_geom_angle_atom_site_label_2
_geom_angle_atom_site_label_3
_geom_angle
O4 S1 N1 103.63(15)
O4 S1 C12 108.63(16)
O5 S1 O4 119.15(16)
O5 S1 N1 108.72(14)
O5 S1 C12 109.57(16)
N1 S1 C12 106.32(14)
C3 O1 C4 124.3(2)
C8 O3 C11 117.2(3)
C2 N1 S1 119.3(2)
C3 N1 S1 117.9(2)
C3 N1 C2 122.7(3)
Br1 C1 H1 109.3
C2 C1 Br1 109.0(2)
C2 C1 H1 109.3
C4 C1 Br1 110.0(2)
C4 C1 H1 109.3
C4 C1 C2 110.1(3)
N1 C2 C1 107.4(2)
N1 C2 H2 108.7
N1 C2 C5 112.0(3)
C1 C2 H2 108.7
C1 C2 C5 111.3(3)
C5 C2 H2 108.7
O1 C3 N1 117.8(3)
O2 C3 O1 119.7(3)
O2 C3 N1 122.5(3)
O1 C4 C1 112.0(3)
O1 C4 H4A 109.2
O1 C4 H4B 109.2
C1 C4 H4A 109.2
C1 C4 H4B 109.2
H4A C4 H4B 107.9
C6 C5 C2 119.2(3)
C10 C5 C2 122.9(3)
C10 C5 C6 117.9(3)
C5 C6 H6 119.3
C5 C6 C7 121.5(3)
C7 C6 H6 119.3
C6 C7 H7 120.2
C8 C7 C6 119.7(3)
C8 C7 H7 120.2
O3 C8 C7 124.5(3)
O3 C8 C9 116.1(3)
C7 C8 C9 119.4(3)
C8 C9 H9 119.8
C10 C9 C8 120.3(3)
C10 C9 H9 119.8
C5 C10 H10 119.4
C9 C10 C5 121.1(3)
C9 C10 H10 119.4
O3 C11 H11A 109.5
O3 C11 H11B 109.5
O3 C11 H11C 109.5
H11A C11 H11B 109.5
H11A C11 H11C 109.5
H11B C11 H11C 109.5
C13 C12 S1 118.9(2)
C17 C12 S1 119.7(3)
C17 C12 C13 121.2(3)
C12 C13 H13 120.4
C14 C13 C12 119.1(3)
C14 C13 H13 120.4
C13 C14 H14 119.6
C13 C14 C15 120.9(3)
C15 C14 H14 119.6
C14 C15 C18 121.1(4)
C16 C15 C14 118.6(3)
C16 C15 C18 120.3(4)
C15 C16 H16 119.0
C15 C16 C17 122.0(3)
C17 C16 H16 119.0
C12 C17 C16 118.2(3)
C12 C17 H17 120.9
C16 C17 H17 120.9
C15 C18 H18A 109.5
C15 C18 H18B 109.5
C15 C18 H18C 109.5
H18A C18 H18B 109.5
H18A C18 H18C 109.5
H18B C18 H18C 109.5
loop_
_geom_bond_atom_site_label_1
_geom_bond_atom_site_label_2
_geom_bond_distance
Br1 C1 1.963(3)
S1 O4 1.430(2)
S1 O5 1.422(3)
S1 N1 1.690(3)
S1 C12 1.759(3)
O1 C3 1.342(4)
O1 C4 1.447(4)
O2 C3 1.199(4)
O3 C8 1.371(4)
O3 C11 1.426(5)
N1 C2 1.472(4)
N1 C3 1.390(4)
C1 H1 0.9800
C1 C2 1.521(5)
C1 C4 1.499(4)
C2 H2 0.9800
C2 C5 1.534(4)
C4 H4A 0.9700
C4 H4B 0.9700
C5 C6 1.388(5)
C5 C10 1.387(5)
C6 H6 0.9300
C6 C7 1.391(5)
C7 H7 0.9300
C7 C8 1.382(5)
C8 C9 1.386(5)
C9 H9 0.9300
C9 C10 1.382(5)
C10 H10 0.9300
C11 H11A 0.9600
C11 H11B 0.9600
C11 H11C 0.9600
C12 C13 1.386(5)
C12 C17 1.385(5)
C13 H13 0.9300
C13 C14 1.386(5)
C14 H14 0.9300
C14 C15 1.392(5)
C15 C16 1.375(5)
C15 C18 1.513(5)
C16 H16 0.9300
C16 C17 1.393(5)
C17 H17 0.9300
C18 H18A 0.9600
C18 H18B 0.9600
C18 H18C 0.9600
loop_
_geom_torsion_atom_site_label_1
_geom_torsion_atom_site_label_2
_geom_torsion_atom_site_label_3
_geom_torsion_atom_site_label_4
_geom_torsion
Br1 C1 C2 N1 -64.5(3)
Br1 C1 C2 C5 172.6(2)
Br1 C1 C4 O1 70.8(3)
S1 N1 C2 C1 147.4(2)
S1 N1 C2 C5 -90.0(3)
S1 N1 C3 O1 -178.6(2)
S1 N1 C3 O2 0.6(4)
S1 C12 C13 C14 172.7(3)
S1 C12 C17 C16 -173.3(3)
O3 C8 C9 C10 -179.1(3)
O4 S1 N1 C2 -8.9(3)
O4 S1 N1 C3 173.7(2)
O4 S1 C12 C13 -24.8(3)
O4 S1 C12 C17 150.0(3)
O5 S1 N1 C2 118.8(2)
O5 S1 N1 C3 -58.7(3)
O5 S1 C12 C13 -156.5(3)
O5 S1 C12 C17 18.3(3)
N1 S1 C12 C13 86.1(3)
N1 S1 C12 C17 -99.0(3)
N1 C2 C5 C6 177.6(3)
N1 C2 C5 C10 -0.4(4)
C1 C2 C5 C6 -62.1(4)
C1 C2 C5 C10 119.9(3)
C2 N1 C3 O1 4.1(4)
C2 N1 C3 O2 -176.8(3)
C2 C1 C4 O1 -49.3(4)
C2 C5 C6 C7 -178.5(3)
C2 C5 C10 C9 178.8(3)
C3 O1 C4 C1 17.9(4)
C3 N1 C2 C1 -35.2(4)
C3 N1 C2 C5 87.3(3)
C4 O1 C3 O2 -173.2(3)
C4 O1 C3 N1 6.0(4)
C4 C1 C2 N1 56.3(3)
C4 C1 C2 C5 -66.7(3)
C5 C6 C7 C8 0.2(6)
C6 C5 C10 C9 0.7(5)
C6 C7 C8 O3 179.4(4)
C6 C7 C8 C9 -0.3(6)
C7 C8 C9 C10 0.6(6)
C8 C9 C10 C5 -0.9(6)
C10 C5 C6 C7 -0.4(6)
C11 O3 C8 C7 5.0(5)
C11 O3 C8 C9 -175.2(3)
C12 S1 N1 C2 -123.3(2)
C12 S1 N1 C3 59.2(3)
C12 C13 C14 C15 0.7(5)
C13 C12 C17 C16 1.4(5)
C13 C14 C15 C16 1.1(6)
C13 C14 C15 C18 -178.8(4)
C14 C15 C16 C17 -1.8(6)
C15 C16 C17 C12 0.6(6)
C17 C12 C13 C14 -2.0(5)
C18 C15 C16 C17 178.1(4)
