#------------------------------------------------------------------------------
#$Date: 2016-03-13 15:25:55 +0200 (Sun, 13 Mar 2016) $
#$Revision: 178180 $
#$URL: svn://www.crystallography.net/cod/cif/1/54/28/1542807.cif $
#------------------------------------------------------------------------------
#
# This file is available in the Crystallography Open Database (COD),
# http://www.crystallography.net/
#
# All data on this site have been placed in the public domain by the
# contributors.
#
data_1542807
loop_
_publ_author_name
'Dubey, Ritesh'
'Desiraju, Gautam R.'
_publ_section_title
;
 Combinatorial selection of molecular conformations and supramolecular
 synthons in quercetin cocrystal landscapes: a route to ternary solids
;
_journal_issue                   4
_journal_name_full               IUCrJ
_journal_page_first              402
_journal_page_last               408
_journal_paper_doi               10.1107/S2052252515009884
_journal_volume                  2
_journal_year                    2015
_chemical_formula_sum            'C29 H21 N2 O7 S'
_chemical_formula_weight         541.54
_chemical_name_systematic
;
 ?
;
_space_group_crystal_system      triclinic
_space_group_IT_number           2
_space_group_name_Hall           '-P 1'
_space_group_name_H-M_alt        'P -1'
_symmetry_space_group_name_Hall  '-P 1'
_symmetry_space_group_name_H-M   'P -1'
_atom_sites_solution_hydrogens   mixed
_audit_creation_method           SHELXL-2013
_cell_angle_alpha                97.993(7)
_cell_angle_beta                 94.646(7)
_cell_angle_gamma                108.150(8)
_cell_formula_units_Z            2
_cell_length_a                   9.8066(9)
_cell_length_b                   10.4874(10)
_cell_length_c                   13.0073(12)
_cell_measurement_temperature    150(2)
_cell_volume                     1247.8(2)
_computing_structure_refinement  'SHELXL-2013 (Sheldrick, 2013)'
_diffrn_ambient_temperature      150(2)
_diffrn_measured_fraction_theta_full 0.998
_diffrn_measured_fraction_theta_max 0.998
_diffrn_radiation_type           MoK\a
_diffrn_radiation_wavelength     0.71073
_diffrn_reflns_av_R_equivalents  0.0311
_diffrn_reflns_av_unetI/netI     0.0394
_diffrn_reflns_laue_measured_fraction_full 0.998
_diffrn_reflns_laue_measured_fraction_max 0.998
_diffrn_reflns_limit_h_max       12
_diffrn_reflns_limit_h_min       -12
_diffrn_reflns_limit_k_max       13
_diffrn_reflns_limit_k_min       -13
_diffrn_reflns_limit_l_max       16
_diffrn_reflns_limit_l_min       -16
_diffrn_reflns_number            13323
_diffrn_reflns_point_group_measured_fraction_full 0.998
_diffrn_reflns_point_group_measured_fraction_max 0.998
_diffrn_reflns_theta_full        25.242
_diffrn_reflns_theta_max         27.484
_diffrn_reflns_theta_min         3.191
_exptl_absorpt_coefficient_mu    0.184
_exptl_absorpt_correction_T_max  1.000
_exptl_absorpt_correction_T_min  0.835
_exptl_absorpt_correction_type   multi-scan
_exptl_absorpt_process_details   'Jacobson, R. (1998) Private communication'
_exptl_crystal_colour            'yellow red'
_exptl_crystal_density_diffrn    1.441
_exptl_crystal_description       Plate
_exptl_crystal_F_000             562
_exptl_crystal_size_max          0.550
_exptl_crystal_size_mid          0.200
_exptl_crystal_size_min          0.150
_refine_diff_density_max         0.416
_refine_diff_density_min         -0.666
_refine_diff_density_rms         0.060
_refine_ls_extinction_method     none
_refine_ls_goodness_of_fit_ref   1.056
_refine_ls_hydrogen_treatment    mixed
_refine_ls_matrix_type           full
_refine_ls_number_parameters     372
_refine_ls_number_reflns         5709
_refine_ls_number_restraints     0
_refine_ls_restrained_S_all      1.056
_refine_ls_R_factor_all          0.0718
_refine_ls_R_factor_gt           0.0526
_refine_ls_shift/su_max          0.000
_refine_ls_shift/su_mean         0.000
_refine_ls_structure_factor_coef Fsqd
_refine_ls_weighting_details
;
 w=1/[\s^2^(Fo^2^)+(0.0650P)^2^+0.7749P]
 where P=(Fo^2^+2Fc^2^)/3
;
_refine_ls_weighting_scheme      calc
_refine_ls_wR_factor_gt          0.1323
_refine_ls_wR_factor_ref         0.1421
_reflns_Friedel_coverage         0.000
_reflns_number_gt                4354
_reflns_number_total             5709
_reflns_threshold_expression     'I > 2\s(I)'
_cod_data_source_file            lc5063.cif
_cod_data_source_block           QBP_22TP
_cod_depositor_comments
;
The following automatic conversions were performed:

'_exptl_absorpt_correction_type' value 'Multi-scan' changed to
'multi-scan' according to
/usr/data/users/saulius/automatic-downloads/current/IUCr/lib/dictionaries/cif_core.dic
dictionary named 'cif_core.dic' version 2.4.2 from 2011-04-26.

Automatic conversion script
Id: cif_fix_values 4287 2015-11-16 14:04:37Z antanas 
;
_cod_database_code               1542807
_publcif_datablock.id            {60decb30-3bfd-49f6-a9e5-175dda0285db}
_shelx_space_group_comment
;
The symmetry employed for this shelxl refinement is uniquely defined
by the following loop, which should always be used as a source of
symmetry information in preference to the above space-group names.
They are only intended as comments.
;
_shelx_estimated_absorpt_t_min   0.906
_shelx_estimated_absorpt_t_max   0.973
_shelxl_version_number           2013-2
_shelx_res_file
;
TITL datam in P-1
CELL  0.71073   9.8066  10.4874  13.0073   97.993   94.646  108.150
ZERR     2.00   0.0009   0.0010   0.0012    0.007    0.007    0.008
LATT   1
SFAC  C    H    N    O    S
UNIT  58   42   4    14   2
MERG   2
FMAP   2
PLAN   20
SIZE     0.150   0.200   0.550
ACTA
BOND   $H
L.S.  10
TEMP  -123.00
WGHT    0.065000    0.774900
FVAR       0.13920
S1    5    0.934458    0.652875    0.096328    11.00000    0.04043    0.06783 =
         0.03918    0.00501   -0.00156    0.02156
C29   1    0.936238    0.520695    0.002768    11.00000    0.02865    0.03435 =
         0.03837    0.02113    0.00476    0.00524
C28   1    0.805285    0.468188   -0.060148    11.00000    0.03123    0.03276 =
         0.05032    0.01316   -0.00626    0.00419
AFIX  43
H28   2    0.784527    0.395362   -0.117570    11.00000   -1.20000
AFIX   0
C26   1    0.759534    0.636123    0.052009    11.00000    0.04395    0.06346 =
         0.04602    0.02318    0.00726    0.02638
AFIX  43
H26   2    0.707426    0.691601    0.081590    11.00000   -1.20000
AFIX   0
C27   1    0.705107    0.532918   -0.031113    11.00000    0.03127    0.04691 =
         0.05527    0.02769    0.00004    0.01110
AFIX  43
H27   2    0.609169    0.507192   -0.066000    11.00000   -1.20000
AFIX   0
O7    4    0.412481    0.841267    0.070912    11.00000    0.01781    0.02525 =
         0.00629    0.00204    0.00167    0.01398
O5    4    0.354163    0.835773   -0.391018    11.00000    0.02054    0.02987 =
         0.00773    0.00500    0.00379    0.01483
O6    4    0.562444    0.715072   -0.381491    11.00000    0.02217    0.03247 =
         0.01128    0.00406    0.00584    0.02009
O4    4    0.155287    0.939905   -0.087600    11.00000    0.03382    0.06896 =
         0.01004    0.00818    0.00443    0.04197
O1    4    0.489130    0.832576    0.433005    11.00000    0.02064    0.03015 =
         0.00925    0.00546    0.00338    0.01822
O2    4    0.131437    1.004880    0.309128    11.00000    0.02533    0.04081 =
         0.01113    0.00375    0.00380    0.02540
O3    4    0.093723    1.007503    0.107882    11.00000    0.02443    0.04518 =
         0.01437    0.00514    0.00340    0.02750
C6    1    0.267516    0.924144    0.185163    11.00000    0.01493    0.02270 =
         0.01017    0.00245    0.00169    0.01075
N2    3    1.303499    0.273709   -0.393375    11.00000    0.02482    0.02997 =
         0.01782    0.00638    0.00571    0.01788
C9    1    0.338704    0.863046   -0.015458    11.00000    0.01646    0.02284 =
         0.00969    0.00432   -0.00008    0.01071
C7    1    0.191371    0.953724    0.098390    11.00000    0.01868    0.02604 =
         0.01390    0.00279    0.00184    0.01323
C2    1    0.454035    0.834463    0.248955    11.00000    0.01477    0.02126 =
         0.01218    0.00290    0.00270    0.01096
AFIX  43
H2    2    0.527427    0.795175    0.235722    11.00000   -1.20000
AFIX   0
C12   1    0.405016    0.811447   -0.297383    11.00000    0.01440    0.01865 =
         0.00884    0.00223    0.00035    0.00699
N1    3    0.766832    0.596281   -0.348363    11.00000    0.02157    0.02794 =
         0.02270    0.00376    0.00643    0.01651
C18   1    0.976019    0.463946   -0.359924    11.00000    0.01647    0.01963 =
         0.02127    0.00423    0.00550    0.00968
C4    1    0.311703    0.918369    0.370244    11.00000    0.01661    0.02283 =
         0.00881    0.00231    0.00466    0.01080
AFIX  43
H4    2    0.290639    0.935620    0.439822    11.00000   -1.20000
AFIX   0
C1    1    0.377419    0.867244    0.168899    11.00000    0.01548    0.01968 =
         0.00855    0.00266    0.00360    0.00923
C25   1    1.227467    0.456850   -0.315873    11.00000    0.02183    0.02209 =
         0.02625    0.00220    0.00145    0.01219
AFIX  43
H25   2    1.251912    0.541510   -0.269679    11.00000   -1.20000
AFIX   0
C11   1    0.346676    0.847290   -0.209409    11.00000    0.01432    0.01927 =
         0.01233    0.00302    0.00178    0.00930
AFIX  43
H11   2    0.273421    0.888535   -0.215078    11.00000   -1.20000
AFIX   0
C14   1    0.560578    0.726158   -0.194541    11.00000    0.01906    0.02413 =
         0.01503    0.00341    0.00256    0.01454
AFIX  43
H14   2    0.633498    0.684477   -0.189161    11.00000   -1.20000
AFIX   0
C10   1    0.394703    0.823315   -0.111100    11.00000    0.01528    0.02039 =
         0.01095    0.00137    0.00237    0.01037
C17   1    0.846583    0.416672   -0.427416    11.00000    0.02051    0.02221 =
         0.02056    0.00140    0.00283    0.01170
AFIX  43
H17   2    0.827274    0.337971   -0.479506    11.00000   -1.20000
AFIX   0
C5    1    0.236161    0.949571    0.289447    11.00000    0.01584    0.02245 =
         0.01153    0.00164    0.00305    0.01127
C3    1    0.420113    0.860924    0.349739    11.00000    0.01685    0.01694 =
         0.01077    0.00360    0.00097    0.00864
C21   1    1.088087    0.396151   -0.369517    11.00000    0.01820    0.02042 =
         0.01823    0.00451    0.00632    0.01057
C15   1    0.503006    0.762458   -0.105996    11.00000    0.01931    0.02720 =
         0.01172    0.00461    0.00168    0.01486
AFIX  43
H15   2    0.537467    0.745860   -0.040457    11.00000   -1.20000
AFIX   0
C13   1    0.513154    0.749858   -0.291246    11.00000    0.01672    0.02026 =
         0.00927    0.00151    0.00385    0.00947
C8    1    0.230114    0.917230   -0.003860    11.00000    0.02091    0.03221 =
         0.00972    0.00376    0.00073    0.01680
C16   1    0.745743    0.483904   -0.418965    11.00000    0.01921    0.02725 =
         0.02020    0.00487    0.00210    0.01205
AFIX  43
H16   2    0.657607    0.448670   -0.465378    11.00000   -1.20000
AFIX   0
C22   1    1.060460    0.271619   -0.434940    11.00000    0.01763    0.02912 =
         0.02825   -0.00332    0.00010    0.01150
AFIX  43
H22   2    0.966831    0.225465   -0.472697    11.00000   -1.20000
AFIX   0
C19   1    0.995966    0.578709   -0.284129    11.00000    0.01999    0.02725 =
         0.02781   -0.00260   -0.00180    0.01204
AFIX  43
H19   2    1.081214    0.614017   -0.234753    11.00000   -1.20000
AFIX   0
C24   1    1.330202    0.392698   -0.330450    11.00000    0.01853    0.02853 =
         0.02600    0.00382   -0.00105    0.01154
AFIX  43
H24   2    1.424829    0.435980   -0.293535    11.00000   -1.20000
AFIX   0
C20   1    0.889860    0.640516   -0.281795    11.00000    0.02575    0.02973 =
         0.02798   -0.00431    0.00152    0.01621
AFIX  43
H20   2    0.905411    0.718748   -0.229962    11.00000   -1.20000
AFIX   0
C23   1    1.170179    0.215201   -0.444776    11.00000    0.02702    0.02779 =
         0.02920   -0.00300    0.00410    0.01649
AFIX  43
H23   2    1.149312    0.130599   -0.490438    11.00000   -1.20000
AFIX   0
H5O   2    0.409464    0.830104   -0.434250    11.00000    0.03443
H4O   2    0.088910    0.961346   -0.068762    11.00000    0.04807
H6O   2    0.625850    0.688665   -0.369838    11.00000    0.04794
H2O   2    0.106286    1.020320    0.252383    11.00000    0.04793
H1O   2    0.554494    0.804261    0.420539    11.00000    0.04610
HKLF    4

REM  datam in P-1
REM R1 =  0.0526 for    4354 Fo > 4sig(Fo)  and  0.0718 for all    5709 data
REM    372 parameters refined using      0 restraints

END

WGHT      0.0645      0.7826

REM Highest difference peak  0.416,  deepest hole -0.666,  1-sigma level  0.060
Q1    1   0.2208  0.9438  0.0457  11.00000  0.05    0.42
Q2    1   0.3775  0.8562 -0.0660  11.00000  0.05    0.40
Q3    1   0.3765  0.8239 -0.2534  11.00000  0.05    0.37
Q4    1   0.4760  0.8028 -0.2935  11.00000  0.05    0.36
Q5    1   0.2357  0.9271  0.2337  11.00000  0.05    0.35
Q6    1   0.2519  0.9648  0.1489  11.00000  0.05    0.32
Q7    1   0.4609  0.8754  0.2998  11.00000  0.05    0.31
Q8    1   0.2840  0.8771 -0.0135  11.00000  0.05    0.31
Q9    1   0.3960  0.8200  0.2032  11.00000  0.05    0.30
Q10   1   0.3120  0.8803  0.1787  11.00000  0.05    0.30
Q11   1   0.4361  0.7770 -0.1102  11.00000  0.05    0.30
Q12   1   0.3570  0.8866  0.3627  11.00000  0.05    0.29
Q13   1   0.4407  0.8864  0.2159  11.00000  0.05    0.29
Q14   1   1.1555  0.4212 -0.3333  11.00000  0.05    0.29
Q15   1   0.5706  0.7814 -0.2326  11.00000  0.05    0.27
Q16   1   0.8325  0.4823 -0.4345  11.00000  0.05    0.27
Q17   1   0.3867  0.8555  0.1231  11.00000  0.05    0.27
Q18   1   0.3014  0.9661  0.3311  11.00000  0.05    0.26
Q19   1   1.1239  0.2603 -0.4508  11.00000  0.05    0.26
Q20   1   0.9096  0.4339 -0.3958  11.00000  0.05    0.26
;
_shelx_res_checksum              27029
_shelx_hkl_file
;
   0   0   2    6.00    0.08
   0   0   2    5.52    0.06
   0   0   3  171.49    1.45
   0   0   3  172.75    1.20
   0   0  -3  175.08    1.40
   0   0   4   96.03    0.85
   0   0   4   94.96    1.00
   0   0  -4   96.15    0.97
   0   0   5    4.95    0.14
   0   0   5    5.30    0.11
   0   0  -5    5.05    0.13
   0   0   6   37.31    0.50
   0   0   6   37.22    0.59
   0   0  -6   37.25    0.57
   0   0   7    0.10    0.05
   0   0   7    0.00    0.04
   0   0  -7   -0.03    0.04
   0   0   8    3.60    0.13
   0   0   8    3.22    0.16
   0   0  -8    3.29    0.15
   0   0   9    3.72    0.16
   0   0   9    3.67    0.13
   0   0  -9    3.22    0.18
   0   0  10   32.82    0.73
   0   0  10   31.60    0.63
   0   0 -10   32.22    0.70
   0   0  11   24.70    0.56
   0   0  11   26.51    0.64
   0   0 -11   25.39    0.63
   0   0  12    0.05    0.08
   0   0  12    0.07    0.10
   0   0 -12    0.06    0.12
   0   0  13    0.01    0.07
   0   0  13    0.03    0.07
   0   0 -13   -0.01    0.09
   0   0  14    0.11    0.12
   0   0  14    0.24    0.13
   0   0 -14    0.32    0.13
   0   0 -15    7.76    0.41
   0   0 -16    0.77    0.23
   0   1 -16    1.67    0.29
   0   1 -15    0.13    0.12
   0  -1  15    0.02    0.11
   0   1 -14    1.46    0.20
   0  -1  14    1.35    0.17
   0  -1  14    1.38    0.19
   0   1 -13    0.84    0.16
   0  -1  13    1.19    0.14
   0  -1  13    0.89    0.14
   0   1 -12    0.46    0.11
   0  -1  12    0.14    0.09
   0  -1  12    0.18    0.11
   0   1 -11   54.38    1.10
   0  -1  11   51.03    0.95
   0  -1  11   55.09    1.09
   0   1 -10    6.98    0.25
   0  -1  10    7.25    0.23
   0  -1  10    7.41    0.24
   0   1  -9    1.97    0.13
   0  -1   9    1.63    0.09
   0  -1   9    1.96    0.13
   0   1  -8    4.60    0.17
   0  -1   8    4.86    0.15
   0  -1   8    4.92    0.18
   0   1  -7    0.44    0.08
   0  -1   7    0.56    0.06
   0  -1   7    0.33    0.06
   0   1  -6    0.15    0.05
   0  -1   6    0.11    0.03
   0  -1   6    0.10    0.04
   0   1  -5   33.13    0.45
   0  -1   5   31.80    0.44
   0  -1   5   33.72    0.41
   0   1  -4    4.52    0.10
   0  -1   4    4.41    0.09
   0  -1   4    4.61    0.11
   0   1  -3  274.05    2.02
   0  -1   3  273.94    1.89
   0  -1   3  274.18    2.07
   0   1  -2    1.10    0.03
   0  -1   2    1.24    0.03
   0  -1   2    1.14    0.03
   0   1   2   17.07    0.18
   0  -1  -2   17.88    0.19
   0  -1  -2   16.86    0.17
   0   1   3    8.17    0.12
   0  -1  -3    8.71    0.14
   0  -1  -3    7.84    0.12
   0   1   4   10.96    0.17
   0  -1  -4   10.57    0.15
   0  -1  -4   10.80    0.19
   0   1   5    2.46    0.08
   0   1   5    2.39    0.11
   0  -1  -5    2.74    0.11
   0   1   6    3.73    0.12
   0   1   6    4.00    0.14
   0  -1  -6    3.74    0.12
   0   1   7    2.02    0.10
   0   1   7    2.21    0.13
   0  -1  -7    1.91    0.11
   0   1   8    4.92    0.20
   0   1   8    4.88    0.17
   0  -1  -8    4.48    0.17
   0   1   9    0.35    0.09
   0   1   9    0.09    0.07
   0  -1  -9    0.16    0.07
   0   1  10    7.72    0.30
   0   1  10    8.23    0.25
   0  -1 -10    8.16    0.29
   0   1  11   17.06    0.50
   0   1  11   17.22    0.46
   0  -1 -11   15.58    0.51
   0   1  12    0.56    0.13
   0   1  12    0.49    0.11
   0  -1 -12    0.27    0.13
   0   1  13    3.62    0.25
   0   1  13    4.90    0.27
   0  -1 -13    4.06    0.26
   0   1  14    0.13    0.12
   0   1  14    0.23    0.11
   0  -1 -14    0.14    0.13
   0  -1 -15    1.70    0.22
   0  -1 -16    0.12    0.15
   0   2 -16    0.64    0.19
   0   2 -15   -0.12    0.13
   0  -2  15    0.07    0.10
   0   2 -14    3.04    0.24
   0  -2  14    2.87    0.21
   0  -2  14    2.73    0.24
   0   2 -13    2.48    0.19
   0  -2  13    2.19    0.16
   0  -2  13    2.19    0.17
   0   2 -12    0.62    0.15
   0  -2  12    0.51    0.11
   0  -2  12    0.41    0.08
   0   2 -11   11.31    0.36
   0  -2  11   11.08    0.33
   0  -2  11   11.64    0.34
   0   2 -10    7.50    0.27
   0  -2  10    7.45    0.24
   0  -2  10    7.42    0.24
   0   2  -9   -0.08    0.06
   0  -2   9    0.12    0.06
   0  -2   9    0.05    0.06
   0   2  -8    5.46    0.18
   0  -2   8    5.48    0.19
   0  -2   8    5.42    0.17
   0   2  -7    8.00    0.21
   0  -2   7    7.29    0.18
   0  -2   7    7.52    0.17
   0   2  -6   18.62    0.34
   0  -2   6   18.46    0.30
   0  -2   6   18.33    0.34
   0   2  -5   14.84    0.25
   0  -2   5   14.83    0.26
   0  -2   5   15.13    0.23
   0   2  -4   23.51    0.31
   0  -2   4   23.52    0.33
   0  -2   4   22.65    0.30
   0   2  -3  206.29    1.56
   0  -2   3  206.41    1.64
   0  -2   3  205.93    1.73
   0   2  -2   17.62    0.25
   0   2  -2   18.08    0.17
   0  -2   2   19.01    0.23
   0   2  -1   22.84    0.16
   0   2  -1   23.03    0.28
   0  -2   1   24.10    0.25
   0   2   0    3.00    0.07
   0  -2   0    2.88    0.06
   0   2   1   50.11    0.52
   0  -2  -1   50.38    0.40
   0  -2  -1   50.47    0.46
   0   2   2    7.97    0.14
   0  -2  -2    7.92    0.13
   0  -2  -2    7.80    0.12
   0   2   3    0.63    0.05
   0  -2  -3    0.58    0.04
   0  -2  -3    0.61    0.04
   0   2   4    3.34    0.09
   0  -2  -4    3.44    0.10
   0  -2  -4    3.45    0.09
   0   2   5   14.82    0.28
   0  -2  -5   15.07    0.27
   0  -2  -5   15.46    0.26
   0   2   6   14.92    0.29
   0  -2  -6   13.98    0.25
   0  -2  -6   14.53    0.30
   0   2   7    7.19    0.19
   0   2   7    6.73    0.23
   0  -2  -7    6.86    0.20
   0   2   8    1.38    0.14
   0   2   8    1.58    0.11
   0  -2  -8    1.41    0.14
   0   2   9    9.32    0.33
   0   2   9    8.70    0.27
   0  -2  -9    8.87    0.31
   0   2  10    5.94    0.24
   0   2  10    6.35    0.28
   0  -2 -10    6.01    0.25
   0   2  11    8.67    0.30
   0   2  11    8.67    0.37
   0  -2 -11    8.33    0.32
   0   2  12    4.09    0.27
   0   2  12    4.93    0.27
   0  -2 -12    4.67    0.30
   0   2  13    3.62    0.21
   0   2  13    3.26    0.27
   0  -2 -13    3.36    0.28
   0   2  14    0.15    0.12
   0  -2 -14    0.06    0.16
   0  -2 -15    0.36    0.17
   0   3 -16    1.36    0.23
   0  -3  16    1.21    0.18
   0   3 -15    0.24    0.14
   0  -3  15    0.32    0.15
   0   3 -14    4.68    0.32
   0  -3  14    3.98    0.24
   0  -3  14    3.58    0.24
   0   3 -13    0.39    0.13
   0  -3  13    0.68    0.12
   0  -3  13    0.42    0.11
   0   3 -12    2.68    0.20
   0  -3  12    2.74    0.18
   0  -3  12    2.90    0.18
   0   3 -11   -0.03    0.09
   0  -3  11    0.05    0.09
   0  -3  11    0.18    0.08
   0   3 -10   20.94    0.53
   0  -3  10   21.21    0.48
   0  -3  10   20.79    0.52
   0   3  -9    1.92    0.12
   0  -3   9    1.80    0.11
   0  -3   9    1.45    0.11
   0   3  -8    2.13    0.11
   0  -3   8    2.17    0.10
   0  -3   8    1.86    0.14
   0   3  -7    5.63    0.17
   0  -3   7    5.99    0.17
   0  -3   7    5.81    0.18
   0   3  -6    3.37    0.11
   0  -3   6    3.24    0.12
   0  -3   6    3.41    0.12
   0   3  -5    9.89    0.19
   0  -3   5    9.91    0.21
   0  -3   5    9.94    0.19
   0   3  -4   31.21    0.51
   0   3  -4   32.40    0.39
   0  -3   4   33.07    0.46
   0   3  -3    9.45    0.20
   0   3  -3    8.95    0.13
   0  -3   3    9.79    0.18
   0   3  -2    9.27    0.11
   0   3  -2    9.24    0.20
   0  -3   2    9.94    0.17
   0   3  -1   29.03    0.42
   0  -3   1   28.38    0.36
   0   3   0   25.45    0.37
   0  -3   0   23.55    0.23
   0  -3   0   24.12    0.31
   0   3   1   88.80    1.01
   0  -3  -1   85.81    0.69
   0  -3  -1   85.11    0.89
   0   3   2   11.45    0.22
   0  -3  -2   11.39    0.17
   0  -3  -2   11.18    0.19
   0   3   3    0.06    0.04
   0  -3  -3    0.08    0.04
   0  -3  -3    0.08    0.03
   0   3   4    3.89    0.12
   0  -3  -4    4.00    0.11
   0  -3  -4    3.64    0.11
   0   3   5  103.30    1.32
   0  -3  -5  104.06    1.28
   0  -3  -5  100.72    1.26
   0   3   6    0.10    0.05
   0  -3  -6    0.15    0.05
   0  -3  -6    0.11    0.06
   0   3   7    1.44    0.09
   0  -3  -7    1.21    0.09
   0  -3  -7    1.17    0.12
   0   3   8    0.05    0.07
   0  -3  -8   -0.01    0.06
   0   3   9    1.14    0.15
   0   3   9    0.90    0.10
   0  -3  -9    1.09    0.11
   0   3  10    0.96    0.11
   0   3  10    0.64    0.17
   0  -3 -10    1.04    0.12
   0   3  11    4.75    0.29
   0   3  11    4.55    0.23
   0  -3 -11    4.69    0.24
   0   3  12    0.13    0.13
   0   3  12    0.06    0.09
   0  -3 -12    0.18    0.11
   0   3  13    0.15    0.13
   0   3  13    0.49    0.14
   0  -3 -13    0.39    0.14
   0   3  14    1.12    0.22
   0  -3 -14    1.31    0.20
   0  -3 -15    3.27    0.30
   0   4 -16    2.02    0.31
   0  -4  16    1.68    0.25
   0   4 -15    0.17    0.16
   0  -4  15    0.68    0.14
   0   4 -14    0.85    0.18
   0  -4  14    1.07    0.14
   0   4 -13   -0.05    0.09
   0  -4  13    0.03    0.09
   0  -4  13   -0.06    0.10
   0   4 -12    6.69    0.33
   0  -4  12    6.71    0.27
   0  -4  12    6.97    0.29
   0   4 -11   36.40    0.81
   0  -4  11   36.81    0.79
   0  -4  11   34.57    0.80
   0   4 -10    9.36    0.32
   0  -4  10    8.28    0.27
   0  -4  10    9.05    0.29
   0   4  -9    0.44    0.09
   0  -4   9    0.25    0.08
   0  -4   9    0.20    0.08
   0   4  -8    3.12    0.14
   0  -4   8    2.94    0.14
   0  -4   8    2.76    0.14
   0   4  -7   23.36    0.43
   0  -4   7   23.03    0.42
   0  -4   7   23.66    0.47
   0   4  -6    0.05    0.04
   0   4  -6    0.05    0.06
   0  -4   6    0.25    0.07
   0   4  -5    0.71    0.08
   0   4  -5    0.78    0.06
   0  -4   5    0.68    0.08
   0   4  -4    1.92    0.07
   0   4  -4    2.00    0.11
   0  -4   4    2.09    0.09
   0   4  -3    1.84    0.11
   0   4  -3    1.71    0.05
   0  -4   3    2.00    0.08
   0   4  -2    2.42    0.11
   0   4  -2    2.60    0.06
   0  -4   2    2.66    0.09
   0   4  -1    3.58    0.14
   0   4  -1    3.39    0.05
   0  -4   1    3.68    0.10
   0   4   0    1.43    0.08
   0  -4   0    1.66    0.04
   0  -4   0    1.74    0.07
   0   4   1    0.97    0.08
   0  -4  -1    0.84    0.07
   0   4   2   11.05    0.24
   0  -4  -2   10.76    0.21
   0  -4  -2   10.85    0.17
   0   4   3    3.23    0.13
   0  -4  -3    3.49    0.10
   0  -4  -3    3.53    0.12
   0   4   4    2.10    0.11
   0  -4  -4    2.21    0.10
   0  -4  -4    2.13    0.10
   0   4   5    8.93    0.23
   0  -4  -5    8.38    0.22
   0  -4  -5    8.29    0.20
   0   4   6    4.82    0.17
   0  -4  -6    4.90    0.18
   0  -4  -6    4.50    0.15
   0   4   7    1.51    0.11
   0  -4  -7    1.55    0.11
   0  -4  -7    1.21    0.12
   0   4   8    0.09    0.07
   0  -4  -8    0.10    0.07
   0  -4  -8    0.07    0.07
   0   4   9    0.11    0.08
   0  -4  -9    0.08    0.08
   0  -4  -9    0.09    0.08
   0   4  10    1.15    0.16
   0   4  10    1.12    0.20
   0  -4 -10    1.53    0.17
   0   4  11    4.08    0.33
   0   4  11    4.54    0.26
   0  -4 -11    5.03    0.29
   0   4  12    0.72    0.21
   0   4  12    0.96    0.18
   0  -4 -12    0.76    0.18
   0   4  13    0.20    0.13
   0  -4 -13    0.70    0.18
   0   4  14    0.94    0.18
   0  -4 -14    1.35    0.25
   0   5 -16    1.10    0.23
   0  -5  16    1.29    0.24
   0   5 -15    0.95    0.18
   0  -5  15    1.23    0.21
   0   5 -14   -0.07    0.14
   0  -5  14   -0.06    0.10
   0   5 -13    0.17    0.10
   0  -5  13   -0.03    0.10
   0  -5  13    0.06    0.11
   0   5 -12    0.09    0.10
   0  -5  12    0.60    0.13
   0  -5  12    0.09    0.10
   0   5 -11   13.06    0.41
   0  -5  11   12.40    0.43
   0  -5  11   12.71    0.40
   0   5 -10    2.84    0.19
   0  -5  10    2.61    0.17
   0  -5  10    3.14    0.16
   0   5  -9    2.25    0.17
   0   5  -9    2.03    0.13
   0  -5   9    1.89    0.14
   0   5  -8   15.62    0.36
   0   5  -8   15.95    0.49
   0  -5   8   15.38    0.39
   0   5  -7    0.78    0.12
   0   5  -7    0.55    0.07
   0  -5   7    0.55    0.09
   0   5  -6    8.48    0.20
   0   5  -6    8.48    0.30
   0  -5   6    8.81    0.24
   0   5  -5   31.75    0.65
   0   5  -5   30.06    0.43
   0  -5   5   30.90    0.55
   0   5  -4    6.90    0.22
   0   5  -4    6.45    0.13
   0  -5   4    6.73    0.19
   0   5  -3    5.87    0.20
   0  -5   3    6.16    0.18
   0   5  -2    9.07    0.24
   0  -5   2    9.05    0.21
   0   5  -1    4.28    0.16
   0  -5   1    4.21    0.15
   0   5   0    4.74    0.16
   0  -5   0    4.48    0.15
   0  -5   0    4.20    0.08
   0   5   1    6.15    0.19
   0  -5  -1    5.51    0.10
   0  -5  -1    6.18    0.17
   0   5   2   65.28    1.03
   0  -5  -2   65.63    0.73
   0  -5  -2   65.52    1.00
   0   5   3    0.44    0.08
   0  -5  -3    0.49    0.05
   0  -5  -3    0.49    0.08
   0   5   4   13.59    0.33
   0  -5  -4   13.88    0.32
   0  -5  -4   13.94    0.28
   0   5   5   40.33    0.76
   0  -5  -5   39.89    0.76
   0  -5  -5   38.82    0.63
   0   5   6    0.85    0.11
   0  -5  -6    0.81    0.10
   0  -5  -6    1.02    0.11
   0   5   7    3.14    0.16
   0  -5  -7    3.07    0.17
   0  -5  -7    2.93    0.15
   0   5   8    0.83    0.14
   0  -5  -8    0.43    0.12
   0  -5  -8    0.88    0.12
   0   5   9    2.97    0.20
   0  -5  -9    3.52    0.18
   0  -5  -9    3.30    0.20
   0   5  10    0.55    0.12
   0  -5 -10    0.63    0.12
   0   5  11    0.78    0.22
   0   5  11    0.82    0.14
   0  -5 -11    0.67    0.13
   0   5  12    0.76    0.24
   0   5  12    1.23    0.18
   0  -5 -12    1.53    0.18
   0   5  13    2.55    0.28
   0  -5 -13    1.89    0.24
   0   5  14    0.56    0.19
   0  -5 -14    0.04    0.19
   0   6 -16    1.39    0.27
   0  -6  16    0.87    0.24
   0   6 -15    0.07    0.17
   0  -6  15    0.17    0.13
   0   6 -14    1.65    0.19
   0  -6  14    0.91    0.22
   0   6 -13    0.27    0.14
   0   6 -13    0.25    0.12
   0  -6  13    0.27    0.15
   0   6 -12    0.09    0.10
   0   6 -12    0.20    0.15
   0  -6  12    0.04    0.12
   0   6 -11   13.70    0.52
   0   6 -11   13.49    0.43
   0  -6  11   11.97    0.42
   0   6 -10    0.50    0.12
   0   6 -10    0.19    0.09
   0  -6  10    0.25    0.10
   0   6  -9    0.07    0.11
   0   6  -9    0.34    0.08
   0  -6   9    0.28    0.10
   0   6  -8    0.23    0.13
   0   6  -8    0.34    0.07
   0  -6   8    0.20    0.11
   0   6  -7    0.02    0.06
   0   6  -7    0.13    0.09
   0  -6   7    0.12    0.09
   0   6  -6   21.65    0.54
   0   6  -6   20.68    0.39
   0  -6   6   22.44    0.49
   0   6  -5   11.92    0.40
   0   6  -5   11.38    0.22
   0  -6   5   11.97    0.31
   0   6  -4    1.54    0.07
   0   6  -4    1.83    0.13
   0  -6   4    1.61    0.11
   0   6  -3    0.16    0.03
   0   6  -3    0.15    0.09
   0  -6   3    0.24    0.06
   0   6  -2    0.34    0.07
   0   6  -2    0.15    0.02
   0  -6   2    0.20    0.06
   0   6  -1   12.76    0.33
   0  -6   1   13.61    0.31
   0   6   0    5.53    0.21
   0  -6   0    5.05    0.18
   0   6   1    4.39    0.21
   0  -6  -1    4.23    0.09
   0  -6  -1    4.81    0.17
   0   6   2    6.09    0.24
   0  -6  -2    5.57    0.21
   0  -6  -2    5.38    0.12
   0   6   3    1.17    0.11
   0  -6  -3    0.92    0.10
   0  -6  -3    1.07    0.07
   0   6   4    1.56    0.13
   0  -6  -4    1.50    0.11
   0  -6  -4    1.28    0.09
   0   6   5    0.53    0.10
   0  -6  -5    0.40    0.09
   0  -6  -5    0.51    0.08
   0   6   6    1.88    0.17
   0  -6  -6    1.90    0.16
   0  -6  -6    1.72    0.12
   0   6   7    0.32    0.09
   0  -6  -7    0.10    0.10
   0  -6  -7    0.10    0.08
   0   6   8    0.20    0.09
   0  -6  -8    0.10    0.07
   0  -6  -8    0.10    0.10
   0   6   9    1.18    0.15
   0  -6  -9    0.89    0.13
   0  -6  -9    1.20    0.15
   0   6  10    0.46    0.13
   0  -6 -10    0.43    0.14
   0  -6 -10    0.50    0.12
   0   6  11    0.09    0.14
   0   6  11    0.10    0.11
   0  -6 -11    0.13    0.13
   0   6  12    1.62    0.21
   0  -6 -12    1.63    0.22
   0   6  13    0.14    0.13
   0  -6 -13    0.08    0.15
   0   7 -15    0.12    0.19
   0  -7  15    0.31    0.14
   0   7 -14    0.00    0.14
   0  -7  14    0.13    0.12
   0   7 -13    0.26    0.15
   0   7 -13    0.17    0.17
   0  -7  13    0.18    0.13
   0   7 -12    1.84    0.18
   0   7 -12    1.61    0.26
   0  -7  12    1.80    0.18
   0   7 -11    0.05    0.14
   0   7 -11    0.24    0.11
   0  -7  11   -0.02    0.10
   0   7 -10    0.16    0.09
   0   7 -10    0.31    0.13
   0  -7  10    0.36    0.11
   0   7  -9    0.04    0.07
   0   7  -9    0.01    0.10
   0  -7   9    0.25    0.09
   0   7  -8    0.73    0.13
   0   7  -8    0.47    0.09
   0  -7   8    0.46    0.11
   0   7  -7    0.23    0.07
   0   7  -7    0.19    0.11
   0  -7   7    0.61    0.10
   0   7  -6    3.88    0.14
   0   7  -6    4.41    0.23
   0  -7   6    4.58    0.20
   0   7  -5    0.15    0.05
   0   7  -5    0.48    0.09
   0  -7   5    0.23    0.09
   0   7  -4    9.05    0.32
   0  -7   4    9.48    0.29
   0   7  -3    1.39    0.13
   0  -7   3    1.37    0.14
   0   7  -2    6.57    0.27
   0  -7   2    7.08    0.24
   0   7  -1   13.73    0.40
   0  -7   1   13.92    0.36
   0   7   0    6.33    0.27
   0  -7   0    5.89    0.22
   0   7   1    2.41    0.16
   0  -7  -1    2.25    0.07
   0  -7  -1    2.77    0.18
   0   7   2    0.59    0.10
   0  -7  -2    0.61    0.10
   0  -7  -2    0.42    0.05
   0   7   3    0.07    0.09
   0  -7  -3    0.16    0.05
   0  -7  -3    0.28    0.08
   0   7   4    0.62    0.11
   0  -7  -4    0.69    0.10
   0  -7  -4    0.42    0.07
   0   7   5   12.69    0.40
   0  -7  -5   12.84    0.38
   0  -7  -5   11.45    0.30
   0   7   6    0.22    0.12
   0  -7  -6    0.23    0.08
   0  -7  -6    0.19    0.09
   0   7   7    0.32    0.11
   0  -7  -7    0.22    0.09
   0  -7  -7    0.16    0.10
   0   7   8    0.63    0.13
   0  -7  -8    0.34    0.10
   0  -7  -8    0.55    0.12
   0   7   9    1.12    0.19
   0  -7  -9    0.86    0.13
   0  -7  -9    0.69    0.16
   0   7  10    0.34    0.18
   0  -7 -10    0.80    0.16
   0  -7 -10    0.56    0.12
   0   7  11    4.07    0.33
   0  -7 -11    2.81    0.23
   0   7  12    0.30    0.16
   0  -7 -12    0.27    0.13
   0   8 -14    0.00    0.16
   0  -8  14    0.10    0.12
   0   8 -13    0.34    0.15
   0   8 -13    0.17    0.13
   0  -8  13    0.37    0.14
   0   8 -12    0.08    0.17
   0   8 -12    0.27    0.13
   0  -8  12    0.24    0.15
   0   8 -11    2.25    0.30
   0   8 -11    3.12    0.19
   0  -8  11    2.89    0.24
   0   8 -10    0.56    0.13
   0   8 -10    1.00    0.16
   0  -8  10    0.78    0.15
   0   8  -9    0.30    0.11
   0   8  -9    0.06    0.06
   0  -8   9   -0.07    0.12
   0   8  -8    1.48    0.12
   0   8  -8    1.26    0.18
   0  -8   8    1.76    0.16
   0   8  -7   -0.01    0.06
   0   8  -7    0.20    0.10
   0  -8   7    0.12    0.09
   0   8  -6    9.63    0.38
   0  -8   6    8.68    0.32
   0   8  -5    1.52    0.17
   0  -8   5    2.28    0.18
   0   8  -4    0.08    0.08
   0  -8   4   -0.03    0.07
   0   8  -3    1.05    0.17
   0  -8   3    1.09    0.12
   0   8  -2    0.22    0.10
   0  -8   2    0.28    0.09
   0   8  -1    3.92    0.22
   0  -8   1    4.73    0.23
   0   8   0    0.43    0.11
   0  -8   0    0.29    0.11
   0   8   1    0.53    0.13
   0  -8  -1    0.73    0.12
   0   8   2    0.19    0.12
   0  -8  -2    0.18    0.10
   0   8   3    0.16    0.12
   0  -8  -3   -0.01    0.10
   0   8   4    0.00    0.08
   0  -8  -4    0.03    0.04
   0  -8  -4    0.01    0.08
   0   8   5    2.26    0.20
   0  -8  -5    2.00    0.13
   0  -8  -5    2.60    0.22
   0   8   6   -0.09    0.09
   0  -8  -6   -0.03    0.08
   0  -8  -6    0.10    0.06
   0   8   7    0.01    0.10
   0  -8  -7    0.02    0.11
   0  -8  -7    0.04    0.07
   0   8   8    0.86    0.17
   0  -8  -8    0.73    0.15
   0  -8  -8    0.91    0.13
   0   8   9    0.26    0.17
   0  -8  -9    0.27    0.14
   0  -8  -9    0.17    0.12
   0   8  10   -0.13    0.16
   0  -8 -10    0.13    0.11
   0   8  11    4.34    0.33
   0  -9  13    0.15    0.14
   0   9 -12    0.07    0.19
   0  -9  12    0.22    0.14
   0   9 -11    1.03    0.20
   0  -9  11    0.87    0.21
   0   9 -10   -0.01    0.18
   0  -9  10    0.39    0.16
   0   9  -9    1.20    0.19
   0  -9   9    0.97    0.17
   0   9  -8    0.52    0.16
   0  -9   8    0.43    0.17
   0   9  -7    1.05    0.17
   0  -9   7    0.94    0.19
   0   9  -6    2.67    0.28
   0  -9   6    3.39    0.22
   0   9  -5    3.29    0.25
   0  -9   5    3.75    0.26
   0   9  -4    0.52    0.15
   0  -9   4    0.59    0.15
   0   9  -3    3.65    0.24
   0  -9   3    3.87    0.22
   0   9  -2    0.07    0.10
   0  -9   2    0.03    0.09
   0   9  -1    0.35    0.16
   0  -9   1    0.30    0.11
   0   9   0   11.42    0.44
   0  -9   0   11.93    0.47
   0   9   1    3.47    0.25
   0  -9  -1    4.25    0.24
   0   9   2    0.09    0.11
   0  -9  -2    0.09    0.13
   0   9   3    0.32    0.15
   0  -9  -3    0.24    0.15
   0   9   4    4.91    0.28
   0  -9  -4    4.47    0.31
   0   9   5    6.06    0.32
   0  -9  -5    5.61    0.36
   0   9   6    0.91    0.17
   0  -9  -6    0.72    0.15
   0   9   7    0.16    0.13
   0  -9  -7    0.07    0.10
   0   9   8    0.91    0.21
   0  -9  -8    0.53    0.15
   0   9   9    0.45    0.18
   0  -9  -9    0.40    0.17
   0  10 -12    0.23    0.21
   0 -10  12    0.15    0.19
   0  10 -11    2.57    0.30
   0 -10  11    2.81    0.32
   0  10 -10    0.42    0.22
   0 -10  10    0.44    0.20
   0  10  -9    0.01    0.13
   0 -10   9    0.17    0.12
   0  10  -8    0.47    0.20
   0 -10   8    0.46    0.19
   0  10  -7    0.19    0.17
   0 -10   7    0.23    0.16
   0  10  -6    2.83    0.33
   0 -10   6    3.35    0.24
   0  10  -5    3.05    0.28
   0 -10   5    3.49    0.25
   0  10  -4    0.09    0.15
   0 -10   4   -0.21    0.11
   0  10  -3    0.61    0.16
   0 -10   3    0.72    0.14
   0  10  -2    0.64    0.15
   0 -10   2    0.52    0.15
   0  10  -1    1.63    0.20
   0 -10   1    1.42    0.19
   0  10   0    3.67    0.27
   0 -10   0    3.80    0.27
   0  10   1    4.42    0.30
   0 -10  -1    4.78    0.30
   0  10   2    0.50    0.21
   0 -10  -2    0.76    0.16
   0  10   3   -0.13    0.10
   0 -10  -3    0.12    0.09
   0  10   4    0.67    0.17
   0 -10  -4    0.46    0.20
   0  10   5    0.13    0.15
   0 -10  -5    0.01    0.12
   0  10   6    0.66    0.18
   0 -10  -6    0.80    0.17
   0  10   7    0.07    0.14
   0 -10  -7    0.09    0.12
   0  10   8    0.34    0.16
   0 -10  -8    0.10    0.14
   0  11 -11    1.50    0.26
   0 -11  11    2.04    0.25
   0  11 -10    0.64    0.20
   0 -11  10    0.53    0.23
   0  11  -9    0.33    0.18
   0 -11   9    0.19    0.15
   0  11  -8    0.22    0.15
   0 -11   8    0.08    0.15
   0  11  -7    0.00    0.16
   0 -11   7    0.06    0.13
   0  11  -6    1.09    0.23
   0 -11   6    0.59    0.18
   0  11  -5    0.35    0.20
   0 -11   5    0.36    0.19
   0  11  -4   -0.06    0.11
   0 -11   4    0.07    0.11
   0  11  -3    0.34    0.16
   0 -11   3    0.30    0.15
   0  11  -2    0.31    0.17
   0 -11   2    0.65    0.16
   0  11  -1    0.20    0.15
   0 -11   1   -0.08    0.15
   0  11   0    0.87    0.21
   0 -11   0    1.05    0.20
   0  11   1   -0.11    0.14
   0 -11  -1   -0.10    0.14
   0  11   2    0.85    0.20
   0 -11  -2    0.74    0.20
   0  11   3    0.07    0.13
   0 -11  -3    0.07    0.13
   0  11   4   -0.26    0.19
   0 -11  -4    0.06    0.18
   0  11   5   -0.10    0.21
   0 -11  -5    0.38    0.15
   0  11   6    0.30    0.17
   0 -11  -6    0.10    0.20
   0  12  -8   -0.01    0.20
   0 -12   8    0.21    0.16
   0  12  -7    0.77    0.23
   0 -12   7    1.32    0.24
   0  12  -6    1.88    0.28
   0 -12   6    2.53    0.29
   0  12  -5    0.37    0.20
   0 -12   5    0.62    0.19
   0  12  -4    0.31    0.17
   0 -12   4    0.20    0.19
   0  12  -3    0.65    0.20
   0  12  -2    0.92    0.24
   0 -12   2    0.44    0.20
   0  12  -1    1.64    0.25
   0 -12   1    1.19    0.24
   0  12   0    1.03    0.22
   0 -12   0    0.94    0.28
   0  12   1    1.70    0.26
   0 -12  -1    1.61    0.26
   0  12   2    0.26    0.19
   0 -12  -2    0.32    0.18
   0  12   3    0.34    0.17
   0 -12  -3    0.20    0.19
   1 -13   0    0.36    0.22
  -1  13   0    0.82    0.26
   1 -13   1   -0.04    0.20
  -1  13  -1    0.21    0.17
   1 -13   2    0.95    0.25
  -1  13  -2    1.51    0.30
   1 -13   3    0.07    0.14
  -1  13  -3   -0.07    0.13
   1 -13   4    0.57    0.28
  -1  13  -4    0.61    0.22
   1 -13   5    0.23    0.19
  -1  13  -5    0.22    0.20
   1 -12  -4    0.31    0.16
  -1  12   4   -0.09    0.15
   1 -12  -3    0.09    0.17
  -1  12   3    0.00    0.14
   1 -12  -2    0.21    0.22
  -1  12   2    0.39    0.19
   1 -12  -1    1.17    0.23
  -1  12   1    1.01    0.24
   1 -12   0    0.57    0.25
  -1  12   0    0.90    0.22
   1 -12   1    0.07    0.16
  -1  12  -1    0.22    0.16
   1 -12   2    0.60    0.20
  -1  12  -2    0.97    0.25
  -1  12  -3    0.70    0.21
   1 -12   4   -0.08    0.13
  -1  12  -4    0.02    0.14
   1 -12   5    0.82    0.20
  -1  12  -5    0.73    0.27
   1 -12   6    0.13    0.15
  -1  12  -6    0.26    0.22
   1 -12   7    0.84    0.22
  -1  12  -7    1.33    0.31
   1 -12   8   -0.03    0.12
  -1  12  -8    0.09    0.15
   1 -12   9    0.24    0.16
  -1  12  -9    0.00    0.23
   1 -11  -7   -0.30    0.16
   1 -11  -6    4.75    0.35
  -1  11   6    4.58    0.35
   1 -11  -5    0.88    0.24
  -1  11   5    0.71    0.24
   1 -11  -4    0.72    0.19
  -1  11   4    0.36    0.19
   1 -11  -3   -0.14    0.14
  -1  11   3    0.29    0.13
   1 -11  -2   -0.05    0.14
  -1  11   2    0.32    0.13
   1 -11  -1    0.08    0.12
  -1  11   1   -0.07    0.15
   1 -11   0    3.76    0.36
  -1  11   0    3.48    0.30
   1 -11   1    0.58    0.18
  -1  11  -1    0.61    0.19
   1 -11   2    0.55    0.15
  -1  11  -2   -0.08    0.19
   1 -11   3    1.66    0.26
  -1  11  -3    1.58    0.23
   1 -11   4   -0.16    0.12
  -1  11  -4    0.03    0.13
   1 -11   5    0.42    0.16
  -1  11  -5    0.59    0.19
   1 -11   6    0.37    0.15
  -1  11  -6    0.31    0.21
   1 -11   7    2.10    0.25
  -1  11  -7    2.20    0.32
   1 -11   8    0.25    0.13
  -1  11  -8   -0.08    0.15
   1 -11   9    0.26    0.15
  -1  11  -9    0.28    0.18
   1 -11  10    0.78    0.19
  -1  11 -10    0.54    0.21
   1 -11  11    1.83    0.25
  -1  11 -11    1.97    0.36
   1 -10  -8    0.41    0.18
  -1  10   8    0.15    0.20
   1 -10  -7    0.31    0.14
  -1  10   7    0.28    0.15
   1 -10  -6   -0.12    0.14
  -1  10   6   -0.00    0.12
   1 -10  -5    1.11    0.19
  -1  10   5    1.42    0.20
   1 -10  -4    0.44    0.15
  -1  10   4    0.25    0.15
   1 -10  -3    0.61    0.17
  -1  10   3    0.63    0.15
   1 -10  -2    0.05    0.13
  -1  10   2   -0.09    0.13
   1 -10  -1    0.45    0.19
  -1  10   1    0.58    0.16
   1 -10   0    3.17    0.28
  -1  10   0    3.18    0.26
   1 -10   1    0.62    0.15
  -1  10  -1    0.66    0.16
   1 -10   2    0.03    0.11
  -1  10  -2    0.13    0.11
   1 -10   3    0.95    0.16
  -1  10  -3    1.65    0.20
   1 -10   4    0.68    0.14
  -1  10  -4    0.63    0.18
   1 -10   5    0.92    0.16
  -1  10  -5    0.94    0.18
   1 -10   6    0.22    0.16
  -1  10  -6    0.19    0.14
   1 -10   7    0.91    0.16
  -1  10  -7    0.63    0.19
   1 -10   8    0.10    0.16
  -1  10  -8    0.28    0.16
   1 -10   9    0.81    0.18
  -1  10  -9    0.94    0.26
   1 -10  10    1.74    0.27
  -1  10 -10    1.58    0.27
   1 -10  11    1.55    0.22
  -1  10 -11    1.84    0.28
   1 -10  12    0.24    0.17
  -1  10 -12    0.01    0.18
   1 -10  13    0.47    0.18
  -1  10 -13    0.63    0.29
   1  -9 -10    2.37    0.27
  -1   9  10    2.87    0.27
   1  -9  -9    0.07    0.10
  -1   9   9   -0.12    0.11
   1  -9  -8    0.21    0.12
  -1   9   8    0.15    0.14
   1  -9  -7    0.11    0.13
  -1   9   7    0.04    0.11
   1  -9  -6    0.33    0.15
  -1   9   6    0.17    0.13
   1  -9  -5    0.76    0.19
  -1   9   5    0.78    0.15
   1  -9  -4    0.02    0.09
  -1   9   4   -0.04    0.09
   1  -9  -3    0.99    0.16
  -1   9   3    0.40    0.18
   1  -9  -2   -0.15    0.12
  -1   9   2    0.03    0.13
   1  -9  -1   -0.00    0.09
  -1   9   1    0.14    0.10
   1  -9   0   14.89    0.50
  -1   9   0   13.51    0.50
   1  -9   1    0.02    0.11
  -1   9  -1    0.14    0.11
   1  -9   2    0.65    0.12
  -1   9  -2    0.34    0.14
   1  -9   3    0.19    0.09
  -1   9  -3   -0.16    0.14
   1  -9   4    0.97    0.14
  -1   9  -4    1.02    0.17
   1  -9   5    0.24    0.11
  -1   9  -5    0.40    0.15
   1  -9   6    4.59    0.25
  -1   9  -6    4.43    0.35
   1  -9   7    1.96    0.18
  -1   9  -7    2.00    0.23
   1  -9   8    0.04    0.11
  -1   9  -8    0.16    0.13
   1  -9   9    0.03    0.10
  -1   9  -9   -0.20    0.13
   1  -9  10    1.76    0.23
  -1   9 -10    1.98    0.30
   1  -9  11    3.43    0.29
  -1   9 -11    2.96    0.35
   1  -9  12    0.63    0.15
  -1   9 -12    0.11    0.23
   1  -9  13    0.10    0.13
  -1   9 -13    0.26    0.21
   1  -9  14    1.70    0.23
   1  -8 -11    0.70    0.21
  -1   8  11    1.50    0.24
   1  -8 -10    0.11    0.11
   1  -8 -10   -0.19    0.13
  -1   8  10    0.21    0.14
   1  -8  -9    0.39    0.13
   1  -8  -9    0.77    0.17
  -1   8   9    0.33    0.18
   1  -8  -8    3.70    0.22
   1  -8  -8    4.81    0.28
  -1   8   8    4.04    0.26
   1  -8  -7    0.21    0.12
   1  -8  -7    0.04    0.07
  -1   8   7   -0.01    0.10
   1  -8  -6    0.23    0.07
   1  -8  -6    0.32    0.11
  -1   8   6    0.27    0.12
   1  -8  -5   -0.06    0.08
   1  -8  -5    0.10    0.05
  -1   8   5   -0.13    0.11
   1  -8  -4    5.29    0.26
  -1   8   4    5.41    0.26
   1  -8  -3    0.08    0.08
  -1   8   3    0.07    0.09
   1  -8  -2    1.76    0.18
  -1   8   2    1.79    0.16
   1  -8  -1    5.73    0.25
  -1   8   1    5.59    0.27
   1  -8   0    0.00    0.08
  -1   8   0    0.08    0.09
   1  -8   1    3.04    0.19
  -1   8  -1    2.98    0.21
   1  -8   2    1.81    0.14
  -1   8  -2    1.53    0.17
   1  -8   3    4.33    0.20
  -1   8  -3    4.26    0.24
   1  -8   4    0.63    0.12
  -1   8  -4    0.40    0.12
   1  -8   5    8.76    0.31
  -1   8  -5    8.94    0.43
   1  -8   6    0.20    0.12
  -1   8  -6    0.44    0.16
   1  -8   7    0.07    0.07
  -1   8  -7   -0.00    0.04
  -1   8  -7    0.06    0.10
   1  -8   8   -0.03    0.07
  -1   8  -8    0.02    0.05
  -1   8  -8   -0.03    0.11
   1  -8   9    0.23    0.11
  -1   8  -9    0.35    0.19
  -1   8  -9    0.28    0.08
   1  -8  10    0.06    0.10
  -1   8 -10    0.25    0.13
  -1   8 -10    0.03    0.09
   1  -8  11    3.85    0.30
  -1   8 -11    4.83    0.38
  -1   8 -11    4.18    0.23
   1  -8  12    0.41    0.14
  -1   8 -12    0.61    0.21
  -1   8 -12    0.47    0.15
   1  -8  13    0.27    0.16
  -1   8 -13    0.30    0.13
  -1   8 -13    0.35    0.19
   1  -8  14    0.11    0.14
  -1   8 -14    0.00    0.11
  -1   8 -14    0.11    0.20
   1  -7 -12    0.28    0.15
  -1   7  12    0.11    0.24
  -1   7  12    0.21    0.14
   1  -7 -11    2.51    0.21
   1  -7 -11    2.83    0.26
  -1   7  11    2.57    0.23
   1  -7 -10    0.39    0.15
   1  -7 -10    0.21    0.13
  -1   7  10    0.36    0.12
   1  -7  -9    0.66    0.11
   1  -7  -9    1.11    0.17
  -1   7   9    0.68    0.17
   1  -7  -8    2.61    0.22
   1  -7  -8    2.91    0.19
  -1   7   8    2.78    0.20
   1  -7  -7    6.29    0.27
   1  -7  -7    6.57    0.23
  -1   7   7    6.51    0.32
   1  -7  -6    2.02    0.12
   1  -7  -6    2.07    0.18
  -1   7   6    1.97    0.16
   1  -7  -5    4.02    0.22
   1  -7  -5    4.47    0.15
  -1   7   5    4.74    0.24
   1  -7  -4   18.80    0.52
   1  -7  -4   17.86    0.32
  -1   7   4   18.55    0.55
   1  -7  -3    0.12    0.04
   1  -7  -3    0.18    0.08
  -1   7   3    0.04    0.08
   1  -7  -2    0.44    0.09
  -1   7   2    0.53    0.11
   1  -7  -1    0.09    0.07
  -1   7   1    0.04    0.08
   1  -7   0   45.97    0.88
  -1   7   0   43.72    0.90
   1  -7   1   -0.06    0.06
  -1   7  -1    0.10    0.07
   1  -7   2    3.91    0.19
  -1   7  -2    3.51    0.20
   1  -7   3    3.98    0.17
  -1   7  -3    3.30    0.23
   1  -7   4    0.03    0.06
  -1   7  -4   -0.14    0.10
   1  -7   5    1.54    0.15
  -1   7  -5    1.32    0.06
  -1   7  -5    1.50    0.15
   1  -7   6   10.88    0.31
  -1   7  -6    9.83    0.22
  -1   7  -6   10.60    0.41
   1  -7   7    6.46    0.23
  -1   7  -7    5.95    0.35
  -1   7  -7    5.98    0.18
   1  -7   8    2.90    0.19
  -1   7  -8    2.68    0.14
  -1   7  -8    2.95    0.23
   1  -7   9    0.73    0.12
  -1   7  -9    0.63    0.11
  -1   7  -9    0.87    0.16
   1  -7  10    0.33    0.12
  -1   7 -10    0.47    0.18
  -1   7 -10    0.26    0.10
   1  -7  11    1.33    0.18
  -1   7 -11    1.35    0.21
   1  -7  12    0.22    0.11
  -1   7 -12    0.20    0.14
  -1   7 -12    0.33    0.17
   1  -7  13    1.07    0.19
  -1   7 -13    1.44    0.17
  -1   7 -13    1.25    0.29
   1  -7  14    0.44    0.19
  -1   7 -14    0.90    0.16
  -1   7 -14    0.50    0.26
   1  -7  15    1.49    0.22
  -1   7 -15    0.97    0.20
   1  -6 -13    0.25    0.17
  -1   6  13    0.21    0.16
   1  -6 -12    0.75    0.16
  -1   6  12    0.79    0.20
  -1   6  12    1.11    0.26
   1  -6 -11    0.96    0.15
  -1   6  11    0.78    0.15
  -1   6  11    1.06    0.22
   1  -6 -10    0.17    0.12
   1  -6 -10    0.22    0.12
  -1   6  10    0.14    0.12
   1  -6  -9    0.25    0.10
   1  -6  -9    0.15    0.11
  -1   6   9    0.21    0.10
   1  -6  -8    0.15    0.08
   1  -6  -8    0.05    0.07
  -1   6   8    0.05    0.10
   1  -6  -7    0.90    0.10
   1  -6  -7    0.86    0.14
  -1   6   7    0.66    0.12
   1  -6  -6    0.56    0.10
   1  -6  -6    0.59    0.08
  -1   6   6    0.56    0.10
   1  -6  -5    0.13    0.08
   1  -6  -5    0.27    0.06
  -1   6   5    0.32    0.11
   1  -6  -4    1.77    0.09
   1  -6  -4    1.71    0.13
  -1   6   4    1.98    0.13
   1  -6  -3    0.76    0.05
   1  -6  -3    0.67    0.09
  -1   6   3    0.63    0.10
   1  -6  -2    1.66    0.05
   1  -6  -2    1.91    0.13
  -1   6   2    1.82    0.13
   1  -6  -1    1.63    0.11
   1  -6  -1    1.51    0.03
  -1   6   1    1.78    0.14
   1  -6   0    0.93    0.09
  -1   6   0    0.92    0.10
   1  -6   1   15.15    0.34
  -1   6  -1   14.85    0.38
   1  -6   2    3.35    0.14
  -1   6  -2    3.61    0.17
   1  -6   3    0.20    0.06
  -1   6  -3    0.31    0.08
  -1   6  -3    0.12    0.02
   1  -6   4    9.43    0.25
  -1   6  -4    9.05    0.31
   1  -6   5    6.24    0.20
  -1   6  -5    6.49    0.26
   1  -6   6   36.74    0.69
  -1   6  -6   34.78    0.54
  -1   6  -6   36.77    0.89
   1  -6   7    1.65    0.11
  -1   6  -7    1.18    0.08
  -1   6  -7    1.31    0.17
   1  -6   8    0.75    0.10
  -1   6  -8    0.43    0.09
  -1   6  -8    0.59    0.13
   1  -6   9    3.56    0.17
  -1   6  -9    3.25    0.24
  -1   6  -9    3.55    0.18
   1  -6  10   -0.07    0.08
   1  -6  10   -0.05    0.08
  -1   6 -10   -0.05    0.07
   1  -6  11    4.67    0.23
   1  -6  11    5.11    0.23
  -1   6 -11    4.97    0.23
   1  -6  12    0.97    0.16
   1  -6  12    1.04    0.16
  -1   6 -12    1.11    0.17
   1  -6  13    2.81    0.21
   1  -6  13    2.94    0.21
  -1   6 -13    2.98    0.22
   1  -6  14    0.87    0.16
   1  -6  14    1.18    0.20
  -1   6 -14    1.70    0.18
   1  -6  15   -0.17    0.10
  -1   6 -15    0.22    0.11
  -1   6 -16    0.18    0.16
   1  -5 -14    1.20    0.20
   1  -5 -13   -0.07    0.13
  -1   5  13   -0.00    0.12
  -1   5  13   -0.13    0.18
   1  -5 -12    0.58    0.14
  -1   5  12    0.73    0.17
  -1   5  12    0.94    0.20
   1  -5 -11    8.37    0.34
  -1   5  11    9.06    0.51
  -1   5  11    8.43    0.33
   1  -5 -10    0.64    0.11
  -1   5  10    0.50    0.14
   1  -5  -9    0.69    0.10
   1  -5  -9    0.96    0.13
  -1   5   9    0.64    0.11
   1  -5  -8    1.25    0.12
   1  -5  -8    1.38    0.12
  -1   5   8    1.14    0.12
   1  -5  -7    0.39    0.10
   1  -5  -7    0.33    0.08
  -1   5   7    0.36    0.08
   1  -5  -6    0.97    0.12
   1  -5  -6    0.93    0.09
  -1   5   6    1.19    0.10
   1  -5  -5   23.24    0.49
   1  -5  -5   23.96    0.41
  -1   5   5   24.03    0.50
   1  -5  -4    0.46    0.05
   1  -5  -4    0.38    0.07
  -1   5   4    0.52    0.09
   1  -5  -3    0.18    0.04
   1  -5  -3    0.28    0.06
  -1   5   3    0.34    0.07
   1  -5  -2   17.35    0.21
   1  -5  -2   17.82    0.37
  -1   5   2   17.61    0.38
   1  -5  -1    2.92    0.12
  -1   5   1    3.40    0.14
   1  -5   0    6.85    0.18
  -1   5   0    6.33    0.20
   1  -5   1   22.80    0.40
  -1   5  -1   23.69    0.50
   1  -5   2    0.01    0.04
  -1   5  -2    0.02    0.05
  -1   5  -2   -0.00    0.01
   1  -5   3    4.82    0.14
  -1   5  -3    4.73    0.19
   1  -5   4    6.52    0.18
  -1   5  -4    6.48    0.12
  -1   5  -4    7.24    0.24
   1  -5   5    9.92    0.25
  -1   5  -5    8.65    0.17
  -1   5  -5    9.60    0.30
   1  -5   6   26.03    0.47
  -1   5  -6   25.35    0.41
   1  -5   7    3.71    0.15
   1  -5   7    3.62    0.15
  -1   5  -7    3.80    0.15
   1  -5   8    1.53    0.13
   1  -5   8    1.31    0.13
  -1   5  -8    1.40    0.12
   1  -5   9    2.86    0.15
   1  -5   9    2.54    0.18
  -1   5  -9    3.17    0.17
   1  -5  10    0.84    0.12
   1  -5  10    0.58    0.10
  -1   5 -10    0.73    0.11
   1  -5  11    2.59    0.16
   1  -5  11    2.26    0.17
  -1   5 -11    2.67    0.20
   1  -5  12    6.94    0.33
   1  -5  12    6.57    0.31
  -1   5 -12    6.41    0.28
   1  -5  13    2.18    0.22
   1  -5  13    2.56    0.22
  -1   5 -13    1.99    0.23
   1  -5  14    1.35    0.16
   1  -5  14    1.40    0.21
  -1   5 -14    1.24    0.22
   1  -5  15    0.10    0.13
  -1   5 -15    0.04    0.12
  -1   5 -16    1.23    0.22
   1  -4 -15    0.41    0.17
   1  -4 -14   -0.07    0.15
  -1   4  14   -0.10    0.17
   1  -4 -13    0.87    0.17
  -1   4  13    0.77    0.17
  -1   4  13    1.16    0.24
   1  -4 -12    1.27    0.16
  -1   4  12    1.11    0.16
  -1   4  12    1.01    0.25
   1  -4 -11    3.42    0.21
  -1   4  11    3.30    0.18
  -1   4  11    2.93    0.27
   1  -4 -10    0.67    0.11
  -1   4  10    0.53    0.12
  -1   4  10    0.64    0.17
   1  -4  -9    0.73    0.10
  -1   4   9    0.79    0.11
   1  -4  -8    1.77    0.13
   1  -4  -8    1.93    0.12
  -1   4   8    1.88    0.14
   1  -4  -7    0.11    0.05
   1  -4  -7    0.02    0.07
  -1   4   7    0.12    0.06
   1  -4  -6    2.59    0.11
   1  -4  -6    2.65    0.14
  -1   4   6    2.39    0.12
   1  -4  -5   35.61    0.62
   1  -4  -5   35.35    0.53
  -1   4   5   34.41    0.57
   1  -4  -4    1.39    0.09
   1  -4  -4    1.29    0.07
  -1   4   4    1.28    0.08
   1  -4  -3    0.13    0.05
   1  -4  -3    0.06    0.03
  -1   4   3    0.02    0.06
   1  -4  -2   28.11    0.45
   1  -4  -2   28.74    0.29
  -1   4   2   29.27    0.48
   1  -4  -1    0.59    0.02
   1  -4  -1    0.73    0.05
  -1   4   1    0.73    0.07
   1  -4   0    5.53    0.14
  -1   4   0    5.86    0.16
   1  -4   1   16.52    0.27
  -1   4  -1   16.20    0.32
   1  -4   2    1.44    0.07
  -1   4  -2    1.44    0.10
   1  -4   3    6.68    0.15
  -1   4  -3    6.57    0.20
  -1   4  -3    6.54    0.10
   1  -4   4    9.22    0.20
   1  -4   4    9.19    0.21
  -1   4  -4    9.29    0.15
   1  -4   5    0.66    0.07
   1  -4   5    0.89    0.06
  -1   4  -5    0.75    0.05
   1  -4   6    5.82    0.17
   1  -4   6    5.94    0.16
  -1   4  -6    5.69    0.16
   1  -4   7    0.73    0.09
   1  -4   7    0.64    0.07
  -1   4  -7    0.47    0.06
   1  -4   8    0.43    0.09
   1  -4   8    0.31    0.08
  -1   4  -8    0.32    0.08
   1  -4   9    3.98    0.17
   1  -4   9    4.05    0.16
  -1   4  -9    4.01    0.18
   1  -4  10    9.75    0.28
   1  -4  10   10.09    0.30
  -1   4 -10    9.26    0.30
   1  -4  11    9.47    0.34
   1  -4  11    8.56    0.30
  -1   4 -11    9.74    0.37
   1  -4  12    0.66    0.14
   1  -4  12    0.53    0.13
  -1   4 -12    0.73    0.15
   1  -4  13    0.57    0.14
   1  -4  13    0.49    0.13
  -1   4 -13    0.24    0.13
   1  -4  14    0.11    0.12
   1  -4  14    0.07    0.10
  -1   4 -14    0.04    0.14
   1  -4  15    0.83    0.18
   1  -4  15    1.02    0.19
  -1   4 -15    1.18    0.19
  -1   4 -16    0.27    0.19
   1  -3 -15    2.16    0.25
   1  -3 -14    0.20    0.13
  -1   3  14    0.09    0.17
   1  -3 -13    0.41    0.14
  -1   3  13    0.48    0.19
  -1   3  13    0.63    0.14
   1  -3 -12   -0.00    0.09
  -1   3  12    0.07    0.14
  -1   3  12   -0.13    0.09
   1  -3 -11    1.67    0.16
  -1   3  11    1.60    0.15
  -1   3  11    1.72    0.24
   1  -3 -10    3.66    0.19
  -1   3  10    3.44    0.16
  -1   3  10    3.85    0.23
   1  -3  -9    9.44    0.29
  -1   3   9    9.74    0.26
  -1   3   9   10.32    0.40
   1  -3  -8    1.30    0.10
  -1   3   8    1.22    0.09
  -1   3   8    1.53    0.14
   1  -3  -7    1.43    0.12
   1  -3  -7    1.64    0.11
  -1   3   7    1.60    0.10
   1  -3  -6    7.37    0.20
   1  -3  -6    7.21    0.21
  -1   3   6    7.31    0.18
   1  -3  -5  132.38    1.53
   1  -3  -5  133.01    1.65
  -1   3   5  133.15    1.52
   1  -3  -4   10.22    0.19
   1  -3  -4    9.83    0.21
  -1   3   4   10.02    0.20
   1  -3  -3    2.28    0.09
   1  -3  -3    2.62    0.07
  -1   3   3    2.57    0.08
   1  -3  -2   37.65    0.50
   1  -3  -2   36.65    0.34
  -1   3   2   38.77    0.51
   1  -3  -1    0.31    0.02
   1  -3  -1    0.39    0.04
  -1   3   1    0.44    0.05
   1  -3   0   37.40    0.44
  -1   3   0   37.90    0.52
   1  -3   1   30.51    0.36
  -1   3  -1   30.03    0.45
   1  -3   2    0.12    0.03
  -1   3  -2    0.10    0.05
  -1   3  -2    0.12    0.02
   1  -3   3   40.76    0.53
   1  -3   3   41.83    0.48
  -1   3  -3   40.73    0.40
   1  -3   4   -0.03    0.03
   1  -3   4   -0.01    0.03
  -1   3  -4    0.03    0.03
   1  -3   5   62.47    0.83
   1  -3   5   62.53    0.75
  -1   3  -5   62.55    0.76
   1  -3   6    5.07    0.15
   1  -3   6    5.68    0.14
  -1   3  -6    5.37    0.14
   1  -3   7    0.31    0.05
   1  -3   7    0.28    0.06
  -1   3  -7    0.24    0.06
   1  -3   8    1.61    0.11
   1  -3   8    1.28    0.09
  -1   3  -8    1.39    0.12
   1  -3   9    2.35    0.15
   1  -3   9    2.72    0.12
  -1   3  -9    2.56    0.14
   1  -3  10    5.65    0.22
   1  -3  10    6.21    0.24
  -1   3 -10    5.62    0.25
   1  -3  11   18.50    0.51
   1  -3  11   18.32    0.47
  -1   3 -11   18.38    0.50
   1  -3  12    1.57    0.15
   1  -3  12    1.12    0.13
  -1   3 -12    1.56    0.18
   1  -3  13    1.78    0.18
   1  -3  13    1.59    0.17
  -1   3 -13    1.74    0.19
   1  -3  14    2.96    0.21
   1  -3  14    2.96    0.23
  -1   3 -14    2.97    0.25
   1  -3  15    1.26    0.17
   1  -3  15    0.91    0.16
  -1   3 -15    1.48    0.24
  -1   3 -16    2.69    0.28
   1  -2 -16    0.13    0.16
   1  -2 -15    0.94    0.19
  -1   2  15    0.91    0.23
   1  -2 -14    0.97    0.22
  -1   2  14    1.02    0.18
   1  -2 -13    0.88    0.16
  -1   2  13    0.94    0.20
  -1   2  13    0.88    0.12
   1  -2 -12    2.37    0.20
  -1   2  12    2.45    0.22
  -1   2  12    3.01    0.18
   1  -2 -11    7.21    0.29
  -1   2  11    7.50    0.35
  -1   2  11    7.50    0.26
   1  -2 -10    8.60    0.29
  -1   2  10    8.73    0.24
  -1   2  10    8.62    0.34
   1  -2  -9    1.12    0.11
  -1   2   9    1.32    0.10
  -1   2   9    1.32    0.14
   1  -2  -8   17.63    0.40
  -1   2   8   18.52    0.51
  -1   2   8   17.68    0.35
   1  -2  -7    9.24    0.24
  -1   2   7    9.97    0.22
  -1   2   7    9.87    0.31
   1  -2  -6   37.42    0.59
   1  -2  -6   37.97    0.58
  -1   2   6   37.83    0.52
   1  -2  -5    0.73    0.07
   1  -2  -5    0.62    0.06
  -1   2   5    0.59    0.05
   1  -2  -4    0.01    0.03
   1  -2  -4    0.02    0.03
  -1   2   4    0.00    0.02
   1  -2  -3   15.95    0.24
   1  -2  -3   16.05    0.22
  -1   2   3   16.06    0.21
   1  -2  -2   26.70    0.33
   1  -2  -2   26.07    0.25
  -1   2   2   27.64    0.31
   1  -2  -1    0.01    0.01
   1  -2  -1    0.05    0.02
  -1   2   1    0.03    0.03
   1  -2   0   19.55    0.22
  -1   2   0   19.73    0.26
   1  -2   1   35.40    0.36
   1  -2   1   35.48    0.32
  -1   2  -1   34.81    0.23
   1  -2   2    8.25    0.13
   1  -2   2    8.25    0.12
  -1   2  -2    7.73    0.10
   1  -2   3    1.06    0.04
   1  -2   3    1.07    0.05
  -1   2  -3    1.11    0.04
   1  -2   4   -0.00    0.04
   1  -2   4    0.08    0.03
  -1   2  -4    0.01    0.03
   1  -2   5   13.83    0.24
   1  -2   5   13.30    0.22
  -1   2  -5   13.27    0.23
   1  -2   6    0.09    0.04
   1  -2   6    0.05    0.05
  -1   2  -6    0.13    0.05
   1  -2   7    4.79    0.15
   1  -2   7    4.79    0.14
  -1   2  -7    5.01    0.16
   1  -2   8   16.61    0.35
   1  -2   8   15.50    0.32
  -1   2  -8   16.65    0.36
   1  -2   9    0.49    0.08
   1  -2   9    0.43    0.07
  -1   2  -9    0.58    0.09
   1  -2  10    1.53    0.14
   1  -2  10    1.90    0.11
  -1   2 -10    1.39    0.13
   1  -2  11   32.94    0.72
   1  -2  11   33.38    0.69
  -1   2 -11   32.56    0.75
   1  -2  12    0.32    0.11
   1  -2  12    0.56    0.12
  -1   2 -12    0.52    0.12
   1  -2  13    0.11    0.10
   1  -2  13    0.28    0.11
  -1   2 -13    0.23    0.12
   1  -2  14    1.34    0.18
   1  -2  14    1.20    0.16
  -1   2 -14    1.04    0.18
   1  -2  15    0.21    0.11
  -1   2 -15    0.06    0.16
  -1   2 -16    2.16    0.30
   1  -1 -16    3.26    0.32
   1  -1 -15    3.04    0.29
  -1   1  15    3.28    0.32
   1  -1 -14    0.33    0.13
  -1   1  14    0.05    0.12
   1  -1 -13   -0.03    0.10
  -1   1  13    0.18    0.12
  -1   1  13    0.03    0.08
   1  -1 -12    0.12    0.10
  -1   1  12   -0.01    0.07
  -1   1  12   -0.02    0.11
   1  -1 -11    8.52    0.31
  -1   1  11    8.04    0.36
  -1   1  11    7.71    0.25
   1  -1 -10    1.49    0.14
  -1   1  10    1.84    0.15
  -1   1  10    1.64    0.11
   1  -1  -9    2.61    0.14
  -1   1   9    2.36    0.10
  -1   1   9    2.89    0.16
   1  -1  -8    9.57    0.26
  -1   1   8   11.03    0.32
  -1   1   8    9.49    0.21
   1  -1  -7    2.57    0.12
  -1   1   7    2.85    0.09
  -1   1   7    2.70    0.17
   1  -1  -6    8.17    0.21
  -1   1   6    7.68    0.15
  -1   1   6    8.28    0.23
   1  -1  -5  101.56    1.15
  -1   1   5   97.84    1.39
  -1   1   5   98.09    0.93
   1  -1  -4    3.85    0.10
  -1   1   4    4.15    0.13
  -1   1   4    4.36    0.08
   1  -1  -3    0.32    0.03
   1  -1  -3    0.38    0.03
  -1   1   3    0.44    0.02
   1  -1  -2    5.55    0.08
   1  -1  -2    5.50    0.09
  -1   1   2    5.45    0.07
   1  -1   2    2.51    0.06
   1  -1   2    2.50    0.04
  -1   1  -2    2.55    0.06
   1  -1   3    7.56    0.13
   1  -1   3    7.49    0.09
  -1   1  -3    7.41    0.13
   1  -1   4   25.63    0.35
   1  -1   4   24.81    0.27
  -1   1  -4   25.26    0.35
   1  -1   5    3.28    0.11
   1  -1   5    3.35    0.09
  -1   1  -5    3.51    0.12
   1  -1   6   14.55    0.28
   1  -1   6   13.97    0.23
  -1   1  -6   13.72    0.27
   1  -1   7    0.43    0.06
   1  -1   7    0.41    0.06
  -1   1  -7    0.58    0.07
   1  -1   8    0.78    0.08
   1  -1   8    0.91    0.08
  -1   1  -8    0.96    0.09
   1  -1   9    8.69    0.25
   1  -1   9    8.91    0.24
  -1   1  -9    9.39    0.31
   1  -1  10    1.16    0.11
   1  -1  10    0.98    0.13
  -1   1 -10    1.61    0.13
   1  -1  11   54.22    1.06
   1  -1  11   54.49    1.00
  -1   1 -11   55.51    1.15
   1  -1  12    2.58    0.17
   1  -1  12    2.35    0.16
  -1   1 -12    2.49    0.20
   1  -1  13    0.07    0.09
   1  -1  13    0.21    0.10
  -1   1 -13    0.15    0.12
   1  -1  14   16.38    0.51
   1  -1  14   15.98    0.52
  -1   1 -14   17.35    0.60
   1  -1  15    8.12    0.38
  -1   1 -15    9.16    0.43
  -1   1 -16    1.34    0.23
   1   0 -16   13.30    0.56
  -1   0  16   11.29    0.52
   1   0 -15    0.71    0.17
  -1   0  15    0.52    0.19
   1   0 -14    0.40    0.14
  -1   0  14    0.38    0.16
   1   0 -13    1.57    0.19
  -1   0  13    1.67    0.14
  -1   0  13    2.00    0.19
   1   0 -12    6.11    0.28
  -1   0  12    6.20    0.32
  -1   0  12    5.06    0.21
   1   0 -11   -0.00    0.07
  -1   0  11    0.03    0.10
  -1   0  11   -0.03    0.05
   1   0 -10    0.37    0.09
  -1   0  10    0.51    0.11
  -1   0  10    0.69    0.08
   1   0  -9    8.28    0.26
  -1   0   9    8.82    0.28
  -1   0   9    7.96    0.21
   1   0  -8    2.16    0.12
  -1   0   8    2.49    0.14
  -1   0   8    2.00    0.09
   1   0  -7    7.92    0.22
  -1   0   7    7.62    0.15
  -1   0   7    8.27    0.25
   1   0  -6    1.07    0.08
  -1   0   6    1.16    0.05
  -1   0   6    1.05    0.10
   1   0  -5   71.54    0.86
  -1   0   5   69.08    0.61
  -1   0   5   70.55    0.97
   1   0  -4    0.02    0.03
  -1   0   4    0.07    0.04
  -1   0   4    0.12    0.02
   1   0  -3    0.49    0.04
  -1   0   3    0.52    0.05
   1   0  -2   17.47    0.07
   1   0  -2   17.32    0.18
  -1   0   2   17.15    0.22
   1   0   2   17.10    0.20
  -1   0  -2   16.90    0.22
   1   0   3    4.65    0.09
   1   0   3    4.20    0.07
  -1   0  -3    4.24    0.10
   1   0   4    0.07    0.04
   1   0   4    0.07    0.03
  -1   0  -4    0.10    0.04
   1   0   5   26.37    0.34
   1   0   5   27.34    0.41
  -1   0  -5   27.04    0.42
   1   0   6    0.40    0.06
   1   0   6    0.28    0.05
  -1   0  -6    0.41    0.06
   1   0   7    1.55    0.09
   1   0   7    1.35    0.08
  -1   0  -7    1.40    0.10
   1   0   8    0.28    0.06
   1   0   8    0.18    0.06
  -1   0  -8    0.39    0.07
   1   0   9    5.54    0.19
   1   0   9    5.35    0.19
  -1   0  -9    5.63    0.25
   1   0  10    5.17    0.21
   1   0  10    5.34    0.22
  -1   0 -10    5.19    0.23
   1   0  11    9.58    0.28
   1   0  11   10.22    0.32
  -1   0 -11    9.99    0.36
   1   0  12    0.45    0.11
   1   0  12    0.30    0.14
  -1   0 -12    0.70    0.16
   1   0  13    0.77    0.17
   1   0  13    1.04    0.14
  -1   0 -13    1.04    0.17
   1   0  14    1.66    0.21
  -1   0 -14    1.81    0.22
   1   0  15    0.80    0.16
  -1   0 -15    1.33    0.20
  -1   0 -16    2.13    0.28
   1   1 -16    0.61    0.22
  -1  -1  16    0.28    0.18
   1   1 -15    0.87    0.17
  -1  -1  15    0.77    0.20
   1   1 -14    2.02    0.21
  -1  -1  14    1.82    0.20
   1   1 -13    1.45    0.18
  -1  -1  13    1.49    0.16
  -1  -1  13    1.08    0.13
   1   1 -12    1.57    0.16
  -1  -1  12    1.08    0.12
  -1  -1  12    1.36    0.18
   1   1 -11   27.94    0.68
  -1  -1  11   27.47    0.56
  -1  -1  11   28.92    0.73
   1   1 -10    1.06    0.12
  -1  -1  10    1.23    0.09
  -1  -1  10    1.31    0.12
   1   1  -9    0.37    0.09
  -1  -1   9    0.49    0.06
  -1  -1   9    0.44    0.08
   1   1  -8    0.65    0.08
  -1  -1   8    0.60    0.09
  -1  -1   8    0.53    0.06
   1   1  -7   12.53    0.28
  -1  -1   7   12.78    0.22
  -1  -1   7   12.05    0.30
   1   1  -6    2.17    0.09
  -1  -1   6    2.15    0.07
  -1  -1   6    2.08    0.12
   1   1  -5   24.19    0.36
  -1  -1   5   22.71    0.39
  -1  -1   5   24.34    0.26
   1   1  -4   32.47    0.41
  -1  -1   4   32.92    0.46
  -1  -1   4   32.80    0.29
   1   1  -3  193.16    1.58
  -1  -1   3  195.17    1.79
   1   1  -2    1.91    0.04
   1   1  -2    1.91    0.05
  -1  -1   2    2.03    0.06
   1   1  -1   35.62    0.27
   1   1  -1   36.09    0.32
  -1  -1   1   36.96    0.33
   1   1   0   79.35    0.57
   1   1   0   79.20    0.58
  -1  -1   0   76.73    0.51
   1   1   1   29.90    0.30
  -1  -1  -1   29.84    0.21
  -1  -1  -1   30.10    0.36
   1   1   2    0.02    0.02
  -1  -1  -2    0.05    0.01
  -1  -1  -2    0.05    0.03
   1   1   3   17.99    0.26
  -1  -1  -3   17.81    0.18
  -1  -1  -3   18.39    0.28
   1   1   4    3.50    0.10
  -1  -1  -4    3.16    0.10
  -1  -1  -4    3.26    0.07
   1   1   5    0.04    0.04
   1   1   5    0.06    0.04
  -1  -1  -5    0.27    0.05
   1   1   6    8.82    0.20
   1   1   6    8.97    0.21
  -1  -1  -6    9.49    0.24
   1   1   7    4.74    0.17
   1   1   7    4.60    0.15
  -1  -1  -7    5.08    0.18
   1   1   8    0.04    0.05
   1   1   8    0.07    0.06
  -1  -1  -8    0.09    0.06
   1   1   9    0.05    0.06
   1   1   9    0.09    0.06
  -1  -1  -9   -0.08    0.07
   1   1  10    7.84    0.27
   1   1  10    8.59    0.32
  -1  -1 -10    8.38    0.30
   1   1  11    5.27    0.26
   1   1  11    5.05    0.23
  -1  -1 -11    4.98    0.25
   1   1  12    2.62    0.22
   1   1  12    2.68    0.19
  -1  -1 -12    2.35    0.24
   1   1  13    0.17    0.13
  -1  -1 -13    0.30    0.13
   1   1  14    0.08    0.12
  -1  -1 -14    0.38    0.14
   1   1  15    1.41    0.20
  -1  -1 -15    1.94    0.23
  -1  -1 -16    0.71    0.24
   1   2 -16    1.79    0.25
  -1  -2  16    1.92    0.22
   1   2 -15    1.55    0.22
  -1  -2  15    1.75    0.20
   1   2 -14    1.38    0.19
  -1  -2  14    1.52    0.21
   1   2 -13    1.17    0.17
  -1  -2  13    1.53    0.16
   1   2 -12    1.68    0.17
  -1  -2  12    1.62    0.12
  -1  -2  12    1.40    0.16
   1   2 -11    3.83    0.21
  -1  -2  11    3.56    0.17
  -1  -2  11    3.90    0.25
   1   2 -10   23.08    0.53
  -1  -2  10   23.91    0.45
  -1  -2  10   22.78    0.57
   1   2  -9    4.55    0.18
  -1  -2   9    4.48    0.14
  -1  -2   9    3.73    0.18
   1   2  -8    0.22    0.06
  -1  -2   8    0.04    0.07
  -1  -2   8    0.16    0.05
   1   2  -7   23.45    0.43
  -1  -2   7   22.74    0.48
  -1  -2   7   23.06    0.34
   1   2  -6    2.56    0.11
  -1  -2   6    2.54    0.12
  -1  -2   6    2.48    0.08
   1   2  -5    2.36    0.09
  -1  -2   5    2.21    0.06
  -1  -2   5    2.07    0.09
   1   2  -4   62.75    0.69
   1   2  -4   62.73    0.72
  -1  -2   4   62.90    0.79
   1   2  -3  630.75    4.65
   1   2  -3  633.69    4.53
  -1  -2   3  631.15    5.25
   1   2  -2   25.08    0.30
   1   2  -2   25.66    0.28
  -1  -2   2   25.19    0.32
   1   2  -1  262.76    2.05
   1   2  -1  263.53    1.86
  -1  -2   1  264.57    2.03
   1   2   0 1159.15    7.77
   1   2   0 1159.07    6.56
   1   2   1    8.73    0.15
  -1  -2  -1    8.80    0.13
  -1  -2  -1    8.73    0.17
   1   2   2   12.28    0.20
  -1  -2  -2   11.58    0.20
  -1  -2  -2   11.83    0.16
   1   2   3    7.34    0.15
  -1  -2  -3    6.77    0.16
  -1  -2  -3    7.25    0.13
   1   2   4   26.10    0.42
  -1  -2  -4   25.87    0.41
  -1  -2  -4   25.04    0.33
   1   2   5    7.16    0.18
  -1  -2  -5    6.75    0.18
   1   2   6    0.44    0.09
  -1  -2  -6    0.57    0.05
  -1  -2  -6    0.66    0.09
   1   2   7    0.12    0.07
   1   2   7    0.09    0.07
  -1  -2  -7    0.12    0.06
   1   2   8    7.62    0.25
   1   2   8    7.88    0.24
  -1  -2  -8    8.24    0.26
   1   2   9    1.40    0.12
   1   2   9    1.47    0.14
  -1  -2  -9    1.17    0.13
   1   2  10   26.02    0.62
   1   2  10   24.28    0.62
  -1  -2 -10   24.77    0.63
   1   2  11   19.51    0.55
   1   2  11   21.29    0.62
  -1  -2 -11   20.85    0.64
   1   2  12    7.28    0.35
   1   2  12    6.55    0.30
  -1  -2 -12    6.81    0.33
   1   2  13    0.73    0.18
  -1  -2 -13    0.72    0.16
   1   2  14    1.71    0.20
  -1  -2 -14    1.81    0.22
   1   2  15    0.13    0.11
  -1  -2 -15   -0.11    0.12
   1   3 -16    0.25    0.19
  -1  -3  16    0.65    0.19
   1   3 -15    9.11    0.44
  -1  -3  15    8.96    0.42
   1   3 -14    1.15    0.18
  -1  -3  14    1.26    0.17
   1   3 -13    0.35    0.15
  -1  -3  13    0.25    0.12
   1   3 -12    4.88    0.25
  -1  -3  12    4.59    0.24
  -1  -3  12    3.69    0.19
   1   3 -11   58.50    1.21
  -1  -3  11   58.51    1.00
  -1  -3  11   59.66    1.24
   1   3 -10   12.37    0.38
  -1  -3  10   11.69    0.29
  -1  -3  10   12.01    0.36
   1   3  -9    0.95    0.10
  -1  -3   9    0.77    0.10
  -1  -3   9    0.83    0.08
   1   3  -8    0.73    0.09
  -1  -3   8    0.88    0.07
  -1  -3   8    0.93    0.10
   1   3  -7    4.15    0.14
  -1  -3   7    3.43    0.15
  -1  -3   7    3.65    0.11
   1   3  -6  193.00    2.24
   1   3  -6  192.28    2.32
  -1  -3   6  193.09    2.46
   1   3  -5   11.30    0.23
   1   3  -5   11.56    0.22
  -1  -3   5   11.52    0.25
   1   3  -4    7.80    0.17
   1   3  -4    8.19    0.17
  -1  -3   4    8.52    0.19
   1   3  -3   81.92    0.95
   1   3  -3   79.66    0.82
  -1  -3   3   82.19    0.97
   1   3  -2    1.21    0.06
   1   3  -2    1.28    0.06
  -1  -3   2    1.45    0.06
   1   3  -1  155.11    1.28
   1   3  -1  154.62    1.59
  -1  -3   1  153.66    1.48
   1   3   0  406.56    2.91
   1   3   0  411.17    3.75
  -1  -3   0  411.28    3.35
   1   3   1   22.05    0.35
  -1  -3  -1   21.15    0.28
  -1  -3  -1   21.67    0.33
   1   3   2   25.81    0.40
  -1  -3  -2   26.28    0.40
  -1  -3  -2   25.35    0.35
   1   3   3    0.77    0.07
  -1  -3  -3    0.83    0.06
  -1  -3  -3    0.99    0.07
   1   3   4   12.57    0.27
  -1  -3  -4   12.58    0.23
  -1  -3  -4   12.40    0.26
   1   3   5    0.15    0.06
  -1  -3  -5    0.13    0.05
  -1  -3  -5    0.14    0.05
   1   3   6    5.87    0.19
  -1  -3  -6    5.73    0.16
  -1  -3  -6    6.14    0.19
   1   3   7    0.69    0.10
  -1  -3  -7    0.35    0.09
  -1  -3  -7    0.41    0.06
   1   3   8    3.42    0.19
  -1  -3  -8    3.35    0.17
   1   3   9    6.88    0.27
   1   3   9    6.32    0.24
  -1  -3  -9    6.82    0.26
   1   3  10    9.34    0.37
   1   3  10    9.88    0.35
  -1  -3 -10   11.01    0.37
   1   3  11    1.35    0.15
   1   3  11    0.89    0.17
  -1  -3 -11    1.26    0.19
   1   3  12    0.03    0.13
  -1  -3 -12    0.28    0.12
  -1  -3 -13    1.81    0.25
   1   3  14    0.54    0.19
  -1  -3 -14    0.30    0.16
   1   3  15    1.06    0.24
  -1  -3 -15    1.02    0.22
   1   4 -16    0.37    0.23
  -1  -4  16    0.52    0.16
   1   4 -15   -0.06    0.12
  -1  -4  15    0.13    0.11
   1   4 -14    1.46    0.21
  -1  -4  14    1.40    0.18
   1   4 -13    0.63    0.15
  -1  -4  13    0.43    0.16
   1   4 -12    2.57    0.22
  -1  -4  12    2.20    0.15
  -1  -4  12    2.35    0.19
   1   4 -11   27.27    0.73
  -1  -4  11   24.68    0.64
  -1  -4  11   25.24    0.55
   1   4 -10    0.07    0.08
   1   4 -10    0.06    0.07
  -1  -4  10    0.03    0.08
   1   4  -9    9.96    0.30
   1   4  -9   10.23    0.33
  -1  -4   9   10.06    0.34
   1   4  -8    0.87    0.10
   1   4  -8    0.45    0.10
  -1  -4   8    0.53    0.10
   1   4  -7    0.06    0.05
   1   4  -7    0.13    0.07
  -1  -4   7    0.07    0.07
   1   4  -6   41.68    0.66
   1   4  -6   40.93    0.72
  -1  -4   6   39.68    0.70
   1   4  -5    0.12    0.04
   1   4  -5    0.08    0.06
  -1  -4   5   -0.00    0.05
   1   4  -4   26.83    0.48
   1   4  -4   25.91    0.39
  -1  -4   4   27.54    0.47
   1   4  -3   17.75    0.27
   1   4  -3   17.45    0.33
  -1  -4   3   17.70    0.32
   1   4  -2    7.00    0.13
   1   4  -2    7.31    0.19
  -1  -4   2    7.13    0.18
   1   4  -1    2.00    0.06
   1   4  -1    2.23    0.11
  -1  -4   1    2.01    0.08
   1   4   0    4.85    0.15
  -1  -4   0    5.21    0.14
  -1  -4   0    5.07    0.13
   1   4   1   -0.01    0.04
  -1  -4  -1   -0.00    0.04
  -1  -4  -1    0.00    0.03
   1   4   2    0.32    0.06
  -1  -4  -2    0.22    0.05
  -1  -4  -2    0.26    0.04
   1   4   3    0.49    0.07
  -1  -4  -3    0.63    0.05
  -1  -4  -3    0.51    0.06
   1   4   4    1.51    0.11
  -1  -4  -4    1.58    0.10
  -1  -4  -4    1.50    0.09
   1   4   5    0.63    0.11
  -1  -4  -5    0.72    0.09
  -1  -4  -5    0.81    0.07
   1   4   6   11.15    0.31
  -1  -4  -6   11.00    0.31
  -1  -4  -6   10.62    0.27
   1   4   7    0.23    0.07
  -1  -4  -7    0.09    0.06
  -1  -4  -7   -0.04    0.07
   1   4   8    1.22    0.12
  -1  -4  -8    0.89    0.08
  -1  -4  -8    1.14    0.14
   1   4   9    6.03    0.27
  -1  -4  -9    5.94    0.22
  -1  -4  -9    6.52    0.29
   1   4  10   12.15    0.46
   1   4  10   11.61    0.44
  -1  -4 -10   12.78    0.42
   1   4  11    5.06    0.33
   1   4  11    5.81    0.29
  -1  -4 -11    5.73    0.30
   1   4  12    4.18    0.27
  -1  -4 -12    3.59    0.31
   1   4  13   -0.14    0.11
  -1  -4 -13    0.09    0.11
   1   4  14    0.00    0.13
  -1  -4 -14    0.00    0.11
   1   5 -16    1.07    0.25
  -1  -5  16    0.54    0.24
   1   5 -15   -0.15    0.12
  -1  -5  15    0.20    0.13
   1   5 -14    0.96    0.23
  -1  -5  14    0.91    0.17
   1   5 -13    1.52    0.19
  -1  -5  13    1.78    0.23
   1   5 -12    2.54    0.23
   1   5 -12    2.47    0.25
  -1  -5  12    2.92    0.24
   1   5 -11   19.82    0.55
   1   5 -11   17.75    0.55
  -1  -5  11   18.04    0.56
   1   5 -10    3.12    0.22
   1   5 -10    3.52    0.20
  -1  -5  10    3.33    0.20
   1   5  -9    5.87    0.25
   1   5  -9    6.05    0.27
  -1  -5   9    6.05    0.25
   1   5  -8    3.33    0.17
   1   5  -8    3.53    0.19
  -1  -5   8    3.02    0.18
   1   5  -7   13.60    0.35
   1   5  -7   13.55    0.32
  -1  -5   7   13.97    0.37
   1   5  -6    8.89    0.28
   1   5  -6    8.51    0.23
  -1  -5   6    9.19    0.27
   1   5  -5    9.14    0.21
   1   5  -5    8.76    0.26
  -1  -5   5    9.59    0.26
   1   5  -4    0.13    0.06
   1   5  -4    0.12    0.04
  -1  -5   4    0.29    0.06
   1   5  -3    1.17    0.10
   1   5  -3    1.33    0.06
  -1  -5   3    1.12    0.10
   1   5  -2    3.75    0.10
   1   5  -2    4.00    0.15
  -1  -5   2    3.88    0.14
   1   5  -1    7.83    0.22
   1   5  -1    7.68    0.15
  -1  -5   1    8.07    0.20
   1   5   0    0.35    0.07
  -1  -5   0    0.34    0.06
  -1  -5   0    0.43    0.06
   1   5   1   12.12    0.30
  -1  -5  -1   11.81    0.24
  -1  -5  -1   11.83    0.27
   1   5   2   12.65    0.31
  -1  -5  -2   12.04    0.28
  -1  -5  -2   11.96    0.26
   1   5   3    0.12    0.06
  -1  -5  -3    0.02    0.05
  -1  -5  -3    0.16    0.06
   1   5   4   10.11    0.30
  -1  -5  -4   10.43    0.26
  -1  -5  -4   10.57    0.25
   1   5   5    1.84    0.13
  -1  -5  -5    2.01    0.11
  -1  -5  -5    1.85    0.13
   1   5   6    0.54    0.10
  -1  -5  -6    0.51    0.10
  -1  -5  -6    0.53    0.08
   1   5   7    1.99    0.16
  -1  -5  -7    2.19    0.16
  -1  -5  -7    2.07    0.14
   1   5   8    1.26    0.14
  -1  -5  -8    1.06    0.14
  -1  -5  -8    0.93    0.12
   1   5   9    0.49    0.12
  -1  -5  -9    0.52    0.14
  -1  -5  -9    0.55    0.11
   1   5  10    0.44    0.16
  -1  -5 -10    0.35    0.12
   1   5  11    0.12    0.11
  -1  -5 -11   -0.21    0.10
   1   5  12   -0.00    0.13
  -1  -5 -12    0.10    0.11
   1   5  13    4.90    0.33
  -1  -5 -13    4.48    0.38
   1   6 -15    0.47    0.21
  -1  -6  15    0.31    0.16
   1   6 -14    4.25    0.35
  -1  -6  14    3.98    0.35
   1   6 -13    0.53    0.19
  -1  -6  13    0.67    0.19
   1   6 -12    5.19    0.29
   1   6 -12    5.03    0.32
  -1  -6  12    5.39    0.32
   1   6 -11    0.01    0.10
   1   6 -11    0.27    0.10
  -1  -6  11    0.04    0.11
   1   6 -10   24.95    0.71
   1   6 -10   27.60    0.70
  -1  -6  10   27.49    0.74
   1   6  -9    0.20    0.08
   1   6  -9   -0.07    0.08
  -1  -6   9    0.07    0.09
   1   6  -8    4.87    0.24
   1   6  -8    4.73    0.20
  -1  -6   8    5.14    0.24
   1   6  -7    1.60    0.12
   1   6  -7    1.92    0.17
  -1  -6   7    1.35    0.15
   1   6  -6    2.58    0.16
   1   6  -6    2.83    0.13
  -1  -6   6    3.30    0.19
   1   6  -5    2.73    0.12
   1   6  -5    3.01    0.15
  -1  -6   5    2.77    0.18
   1   6  -4    0.06    0.06
   1   6  -4    0.07    0.04
  -1  -6   4   -0.03    0.06
   1   6  -3   -0.03    0.03
   1   6  -3    0.08    0.05
  -1  -6   3    0.10    0.05
   1   6  -2    6.93    0.22
   1   6  -2    6.35    0.14
  -1  -6   2    7.23    0.22
   1   6  -1    3.78    0.17
  -1  -6   1    3.43    0.14
  -1  -6   1    3.97    0.16
   1   6   0    2.51    0.15
  -1  -6   0    2.92    0.13
  -1  -6   0    2.40    0.10
   1   6   1    5.93    0.22
  -1  -6  -1    5.93    0.21
   1   6   2    0.06    0.08
  -1  -6  -2   -0.01    0.04
  -1  -6  -2   -0.05    0.06
   1   6   3    0.34    0.09
  -1  -6  -3    0.25    0.06
  -1  -6  -3    0.27    0.08
   1   6   4    2.05    0.16
  -1  -6  -4    2.12    0.15
  -1  -6  -4    1.91    0.12
   1   6   5   14.44    0.42
  -1  -6  -5   14.16    0.35
  -1  -6  -5   13.50    0.37
   1   6   6    0.12    0.10
  -1  -6  -6    0.17    0.08
  -1  -6  -6    0.06    0.07
   1   6   7    0.55    0.12
  -1  -6  -7    0.40    0.09
  -1  -6  -7    0.47    0.09
   1   6   8   -0.17    0.09
  -1  -6  -8    0.10    0.08
  -1  -6  -8    0.08    0.07
   1   6   9    0.22    0.15
  -1  -6  -9    0.18    0.09
  -1  -6  -9    0.12    0.10
   1   6  10    6.84    0.35
  -1  -6 -10    6.12    0.34
   1   6  11    1.02    0.22
  -1  -6 -11    1.08    0.17
   1   6  12   -0.10    0.12
  -1  -6 -12    0.18    0.13
   1   7 -15    0.36    0.22
  -1  -7  15    0.84    0.23
   1   7 -14    0.33    0.19
  -1  -7  14    0.38    0.16
   1   7 -13    1.46    0.19
  -1  -7  13    1.52    0.20
   1   7 -12    0.84    0.15
   1   7 -12    0.65    0.18
  -1  -7  12    0.76    0.20
   1   7 -11   14.71    0.53
   1   7 -11   15.31    0.57
  -1  -7  11   15.55    0.53
   1   7 -10   -0.02    0.09
   1   7 -10   -0.05    0.09
  -1  -7  10   -0.13    0.10
   1   7  -9    1.05    0.13
   1   7  -9    0.81    0.14
  -1  -7   9    0.95    0.15
   1   7  -8    3.70    0.24
   1   7  -8    3.24    0.16
  -1  -7   8    4.23    0.26
   1   7  -7    0.48    0.11
   1   7  -7    0.56    0.07
  -1  -7   7    0.34    0.14
   1   7  -6    9.27    0.32
   1   7  -6    8.82    0.25
  -1  -7   6    9.30    0.32
   1   7  -5    0.19    0.05
  -1  -7   5    0.15    0.08
   1   7  -4    0.62    0.12
   1   7  -4    0.64    0.06
  -1  -7   4    0.62    0.10
   1   7  -3    2.51    0.16
   1   7  -3    2.31    0.09
  -1  -7   3    2.97    0.15
   1   7  -2    0.05    0.07
  -1  -7   2    0.08    0.06
   1   7  -1    5.22    0.22
  -1  -7   1    4.38    0.16
  -1  -7   1    5.45    0.21
   1   7   0    0.26    0.08
  -1  -7   0    0.13    0.05
  -1  -7   0   -0.05    0.07
   1   7   1    3.78    0.21
  -1  -7  -1    3.50    0.13
  -1  -7  -1    3.91    0.18
   1   7   2    3.86    0.22
  -1  -7  -2    4.22    0.19
  -1  -7  -2    3.67    0.14
   1   7   3    0.22    0.12
  -1  -7  -3    0.23    0.06
  -1  -7  -3    0.15    0.08
   1   7   4    0.55    0.14
  -1  -7  -4    0.42    0.10
  -1  -7  -4    0.38    0.08
   1   7   5   11.25    0.41
  -1  -7  -5   11.30    0.35
  -1  -7  -5   10.16    0.31
   1   7   6    0.56    0.12
  -1  -7  -6    0.02    0.09
  -1  -7  -6    0.28    0.11
   1   7   7    0.05    0.09
  -1  -7  -7   -0.04    0.09
  -1  -7  -7    0.06    0.08
   1   7   8    0.06    0.13
  -1  -7  -8    0.12    0.09
  -1  -7  -8    0.31    0.10
   1   7   9    0.04    0.11
  -1  -7  -9    0.07    0.10
  -1  -7  -9    0.00    0.08
   1   7  10    0.15    0.16
  -1  -7 -10    0.09    0.12
   1   7  11    0.91    0.20
  -1  -7 -11    0.85    0.16
   1   8 -14    0.15    0.15
  -1  -8  14    0.07    0.17
   1   8 -13    1.66    0.25
  -1  -8  13    2.44    0.28
   1   8 -12    0.10    0.12
   1   8 -12    0.11    0.14
  -1  -8  12    0.18    0.13
   1   8 -11    5.21    0.32
   1   8 -11    5.65    0.32
  -1  -8  11    6.01    0.33
   1   8 -10    1.22    0.17
   1   8 -10    1.73    0.23
  -1  -8  10    1.91    0.19
   1   8  -9    0.17    0.10
   1   8  -9    0.06    0.08
  -1  -8   9   -0.00    0.10
   1   8  -8    1.84    0.14
   1   8  -8    2.08    0.19
  -1  -8   8    2.50    0.24
   1   8  -7    1.18    0.10
   1   8  -7    1.40    0.18
  -1  -8   7    1.36    0.20
   1   8  -6   20.96    0.60
  -1  -8   6   20.87    0.58
   1   8  -5    0.96    0.14
  -1  -8   5    1.18    0.17
   1   8  -4   11.92    0.41
  -1  -8   4   12.92    0.41
   1   8  -3    0.10    0.09
  -1  -8   3    0.24    0.09
   1   8  -2    3.20    0.23
  -1  -8   2    3.61    0.19
   1   8  -1    3.69    0.22
  -1  -8   1    4.06    0.24
   1   8   0    1.25    0.14
  -1  -8   0    0.75    0.13
   1   8   1    0.23    0.10
  -1  -8  -1    0.17    0.09
   1   8   2    0.15    0.12
  -1  -8  -2    0.77    0.14
   1   8   3    1.54    0.16
  -1  -8  -3    1.20    0.14
  -1  -8  -3    1.32    0.10
   1   8   4    2.20    0.24
  -1  -8  -4    2.02    0.13
  -1  -8  -4    2.25    0.18
   1   8   5    2.36    0.21
  -1  -8  -5    1.93    0.14
  -1  -8  -5    2.00    0.20
   1   8   6    0.11    0.12
  -1  -8  -6   -0.10    0.09
  -1  -8  -6    0.03    0.07
   1   8   7    1.39    0.18
  -1  -8  -7    0.83    0.17
  -1  -8  -7    0.95    0.14
   1   8   8    0.44    0.17
  -1  -8  -8    0.03    0.13
  -1  -8  -8    0.18    0.09
   1   8   9    1.36    0.23
  -1  -8  -9    1.10    0.18
   1   8  10   -0.05    0.14
  -1  -9  13    0.04    0.13
  -1  -9  12    1.63    0.23
   1   9 -11    0.06    0.13
  -1  -9  11    0.19    0.13
   1   9 -10    0.04    0.11
  -1  -9  10    0.02    0.12
   1   9  -9    0.34    0.16
  -1  -9   9    0.36    0.13
   1   9  -8    0.18    0.13
  -1  -9   8   -0.05    0.11
   1   9  -7    2.26    0.25
  -1  -9   7    2.12    0.21
   1   9  -6    0.56    0.13
  -1  -9   6    0.54    0.14
   1   9  -5    1.03    0.15
  -1  -9   5    1.11    0.16
   1   9  -4    3.38    0.23
  -1  -9   4    3.39    0.24
   1   9  -3   -0.11    0.10
  -1  -9   3   -0.06    0.10
   1   9  -2    1.78    0.19
  -1  -9   2    1.65    0.16
   1   9  -1    0.51    0.15
  -1  -9   1    0.92    0.13
   1   9   0    5.05    0.28
  -1  -9   0    5.55    0.28
   1   9   1    0.14    0.10
  -1  -9  -1   -0.04    0.11
   1   9   2    0.20    0.12
  -1  -9  -2    0.09    0.13
   1   9   3    0.15    0.15
  -1  -9  -3    0.24    0.14
   1   9   4    0.18    0.13
  -1  -9  -4    0.17    0.14
   1   9   5    1.05    0.19
  -1  -9  -5    0.96    0.16
   1   9   6    1.28    0.25
  -1  -9  -6    1.49    0.20
   1   9   7    1.16    0.21
   1   9   8    0.38    0.17
   1   9   9    0.11    0.19
  -1 -10  12    1.14    0.27
   1  10 -11    0.82    0.24
  -1 -10  11    0.91    0.21
   1  10 -10    0.15    0.14
  -1 -10  10   -0.09    0.12
   1  10  -9    0.18    0.13
  -1 -10   9    0.05    0.17
   1  10  -8   -0.22    0.14
  -1 -10   8    0.03    0.12
   1  10  -7    0.63    0.16
  -1 -10   7    0.70    0.16
   1  10  -6    2.97    0.25
  -1 -10   6    3.18    0.25
   1  10  -5   -0.01    0.17
  -1 -10   5    0.65    0.14
   1  10  -4    0.27    0.13
  -1 -10   4    0.29    0.15
   1  10  -3    0.94    0.19
  -1 -10   3    0.46    0.15
   1  10  -2    0.32    0.14
  -1 -10   2    0.57    0.14
   1  10  -1    0.73    0.15
  -1 -10   1    0.50    0.14
   1  10   0    0.12    0.16
  -1 -10   0    0.36    0.14
   1  10   1    1.11    0.24
  -1 -10  -1    1.19    0.18
   1  10   2    0.32    0.17
  -1 -10  -2    0.09    0.16
   1  10   3    0.06    0.13
  -1 -10  -3    0.02    0.11
   1  10   4    0.69    0.19
  -1 -10  -4    1.04    0.18
   1  10   5    4.77    0.34
  -1 -10  -5    3.62    0.30
   1  10   6    0.23    0.16
  -1 -10  -6    0.18    0.13
   1  10   7    0.04    0.14
   1  11 -10    0.36    0.19
  -1 -11  10    0.10    0.18
   1  11  -9   -0.17    0.17
  -1 -11   9   -0.06    0.15
   1  11  -8    0.85    0.19
  -1 -11   8    0.71    0.20
   1  11  -7    0.04    0.12
  -1 -11   7    0.08    0.14
   1  11  -6    0.16    0.15
  -1 -11   6   -0.05    0.13
   1  11  -5    1.86    0.27
  -1 -11   5    1.48    0.27
   1  11  -4    0.00    0.11
  -1 -11   4   -0.03    0.11
   1  11  -3    0.65    0.18
  -1 -11   3    0.77    0.18
   1  11  -2    2.20    0.25
  -1 -11   2    1.82    0.22
   1  11  -1    0.30    0.13
  -1 -11   1   -0.05    0.13
   1  11   0    2.84    0.33
  -1 -11   0    3.06    0.33
   1  11   1    1.23    0.23
  -1 -11  -1    1.56    0.22
   1  11   2    1.09    0.20
  -1 -11  -2    1.23    0.25
   1  11   3    0.27    0.16
  -1 -11  -3    0.13    0.15
   1  11   4    0.00    0.14
  -1 -11  -4    0.10    0.16
   1  11   5    0.72    0.25
  -1 -11  -5    0.69    0.19
   1  12  -7    0.07    0.17
  -1 -12   7    0.38    0.17
   1  12  -6    2.04    0.26
  -1 -12   6    2.27    0.28
   1  12  -5   -0.03    0.17
  -1 -12   5    0.10    0.13
   1  12  -4    0.07    0.19
  -1 -12   4    0.17    0.16
   1  12  -3    0.06    0.16
   1  12  -2    0.89    0.22
  -1 -12   2    1.42    0.28
   1  12  -1    0.25    0.16
  -1 -12   1    0.08    0.16
   1  12   0    2.33    0.36
  -1 -12   0    2.49    0.29
   1  12   1   -0.31    0.14
  -1 -12  -1    0.18    0.15
   2 -13  -1   -0.21    0.17
  -2  13   1    0.34    0.16
   2 -13   0   -0.01    0.15
  -2  13   0   -0.03    0.16
   2 -13   1    0.54    0.20
  -2  13  -1    0.24    0.21
   2 -13   2    0.19    0.20
  -2  13  -2    0.35    0.20
   2 -13   3    0.03    0.17
  -2  13  -3    0.19    0.17
   2 -13   4    1.00    0.22
  -2  13  -4    0.21    0.28
   2 -13   5    0.27    0.27
  -2  13  -5    0.83    0.23
   2 -13   6    6.06    0.51
  -2  13  -6    5.09    0.59
   2 -12  -5   13.31    0.68
  -2  12   5   13.19    0.70
   2 -12  -4    0.02    0.15
  -2  12   4    0.03    0.15
   2 -12  -3    0.50    0.22
  -2  12   3    0.60    0.20
   2 -12  -2   -0.01    0.18
  -2  12   2    0.39    0.20
   2 -12  -1    0.82    0.22
  -2  12   1    0.72    0.27
   2 -12   0    1.42    0.23
  -2  12   0    1.12    0.30
   2 -12   1    0.34    0.20
  -2  12  -1    1.05    0.26
   2 -12   2    0.13    0.15
  -2  12  -2    0.06    0.16
  -2  12  -3    0.35    0.19
   2 -12   4    4.78    0.35
  -2  12  -4    4.42    0.41
   2 -12   5   18.81    0.75
  -2  12  -5   18.44    0.93
   2 -12   6    0.86    0.20
  -2  12  -6    0.56    0.30
   2 -12   7    2.61    0.30
  -2  12  -7    3.11    0.40
   2 -12   8    2.61    0.29
  -2  12  -8    2.73    0.36
   2 -12   9    2.48    0.32
  -2  12  -9    2.41    0.35
   2 -11  -7    2.78    0.34
  -2  11   7    2.19    0.28
   2 -11  -6    0.66    0.19
  -2  11   6    0.58    0.23
   2 -11  -5    3.40    0.31
  -2  11   5    3.22    0.31
   2 -11  -4    2.72    0.27
  -2  11   4    1.90    0.26
   2 -11  -3    2.73    0.29
  -2  11   3    3.03    0.32
   2 -11  -2    0.15    0.18
  -2  11   2    0.13    0.13
   2 -11  -1   -0.07    0.12
  -2  11   1    0.15    0.13
   2 -11   0    0.22    0.15
  -2  11   0    0.18    0.18
   2 -11   1    3.18    0.27
  -2  11  -1    2.66    0.28
   2 -11   2   -0.10    0.13
  -2  11  -2    0.06    0.11
   2 -11   3    0.15    0.18
  -2  11  -3    0.59    0.21
   2 -11   4    0.99    0.20
  -2  11  -4    1.01    0.22
   2 -11   5    1.95    0.21
  -2  11  -5    1.41    0.27
   2 -11   6    0.73    0.17
  -2  11  -6    1.50    0.22
   2 -11   7    1.54    0.23
  -2  11  -7    2.47    0.29
   2 -11   8    1.34    0.21
  -2  11  -8    1.78    0.27
   2 -11   9    0.66    0.23
  -2  11  -9    1.10    0.30
   2 -11  10    2.03    0.24
  -2  11 -10    2.08    0.34
   2 -11  11   -0.03    0.13
  -2  11 -11   -0.05    0.17
   2 -10  -9    3.74    0.36
  -2  10   9    3.18    0.31
   2 -10  -8    0.27    0.15
  -2  10   8    0.39    0.17
   2 -10  -7    0.52    0.20
  -2  10   7    0.65    0.17
   2 -10  -6    1.93    0.22
  -2  10   6    1.99    0.21
   2 -10  -5    0.79    0.18
  -2  10   5    0.80    0.18
   2 -10  -4    3.28    0.27
  -2  10   4    2.94    0.26
   2 -10  -3    0.14    0.15
  -2  10   3   -0.01    0.14
   2 -10  -2    0.50    0.19
  -2  10   2    0.50    0.16
   2 -10  -1    4.95    0.30
  -2  10   1    4.70    0.29
   2 -10   0    1.01    0.20
  -2  10   0    0.82    0.18
   2 -10   1    0.19    0.12
  -2  10  -1    0.04    0.13
   2 -10   2    0.85    0.19
  -2  10  -2    1.15    0.20
   2 -10   3    0.23    0.11
  -2  10  -3   -0.07    0.15
   2 -10   4    1.23    0.17
  -2  10  -4    1.98    0.26
   2 -10   5    3.38    0.29
  -2  10  -5    2.63    0.31
   2 -10   6    2.70    0.22
  -2  10  -6    2.87    0.34
   2 -10   7    2.61    0.20
  -2  10  -7    2.43    0.29
   2 -10   8    0.31    0.13
  -2  10  -8    0.22    0.19
   2 -10   9    0.39    0.14
  -2  10  -9    0.49    0.24
   2 -10  10    0.64    0.17
  -2  10 -10    0.42    0.22
   2 -10  11    0.07    0.11
  -2  10 -11    0.04    0.16
   2 -10  12   -0.07    0.10
  -2  10 -12    0.14    0.14
   2 -10  13   -0.09    0.15
  -2  10 -13    0.05    0.22
   2  -9 -10   -0.07    0.14
  -2   9  10    0.03    0.11
   2  -9  -9    0.96    0.19
  -2   9   9    0.95    0.18
   2  -9  -8   -0.02    0.10
  -2   9   8    0.05    0.10
   2  -9  -7    0.06    0.12
  -2   9   7    0.23    0.14
   2  -9  -6    2.16    0.23
  -2   9   6    1.30    0.18
   2  -9  -5    0.57    0.14
  -2   9   5    0.25    0.14
   2  -9  -4    1.22    0.21
  -2   9   4    1.36    0.17
   2  -9  -3    0.07    0.08
  -2   9   3   -0.10    0.10
   2  -9  -2   -0.01    0.09
  -2   9   2   -0.03    0.09
   2  -9  -1    3.57    0.24
  -2   9   1    4.18    0.25
   2  -9   0    4.68    0.26
  -2   9   0    4.37    0.27
   2  -9   1    1.11    0.15
  -2   9  -1    1.18    0.17
   2  -9   2   -0.02    0.11
  -2   9  -2    0.08    0.10
   2  -9   3    0.03    0.09
  -2   9  -3    0.18    0.12
   2  -9   4    1.58    0.16
  -2   9  -4    1.37    0.20
   2  -9   5    0.56    0.13
  -2   9  -5    0.63    0.17
   2  -9   6    1.26    0.15
  -2   9  -6    1.24    0.21
   2  -9   7    0.48    0.11
  -2   9  -7    0.08    0.15
   2  -9   8    1.33    0.16
  -2   9  -8    1.17    0.21
   2  -9   9   -0.10    0.09
  -2   9  -9    0.06    0.14
   2  -9  10   10.29    0.45
  -2   9 -10   10.26    0.62
   2  -9  11    2.09    0.25
  -2   9 -11    2.53    0.36
   2  -9  12    0.37    0.18
  -2   9 -12    0.41    0.26
   2  -9  13    0.06    0.11
  -2   9 -13   -0.05    0.17
   2  -9  14    0.55    0.17
  -2   9 -14    0.65    0.31
   2  -8 -11    0.54    0.16
  -2   8  11    0.48    0.16
   2  -8 -10    1.97    0.25
   2  -8 -10    1.52    0.19
  -2   8  10    1.59    0.20
   2  -8  -9   -0.01    0.09
   2  -8  -9    0.12    0.11
  -2   8   9    0.07    0.12
   2  -8  -8    0.01    0.10
   2  -8  -8    0.10    0.08
  -2   8   8    0.06    0.10
   2  -8  -7    0.07    0.06
   2  -8  -7   -0.12    0.11
  -2   8   7   -0.03    0.08
   2  -8  -6    0.77    0.09
   2  -8  -6    1.10    0.17
  -2   8   6    1.00    0.17
   2  -8  -5    0.93    0.14
  -2   8   5    0.81    0.14
   2  -8  -4   -0.02    0.08
  -2   8   4    0.06    0.07
   2  -8  -3    0.21    0.10
  -2   8   3    0.27    0.12
   2  -8  -2    1.93    0.19
  -2   8   2    1.76    0.16
   2  -8  -1    4.69    0.22
  -2   8   1    4.46    0.24
   2  -8   0    3.97    0.21
  -2   8   0    3.98    0.23
   2  -8   1    2.29    0.17
  -2   8  -1    2.10    0.18
   2  -8   2    0.39    0.12
  -2   8  -2    0.30    0.12
   2  -8   3   -0.08    0.07
  -2   8  -3    0.08    0.10
   2  -8   4    0.20    0.08
  -2   8  -4    0.06    0.12
   2  -8   5    4.07    0.20
  -2   8  -5    3.46    0.30
   2  -8   6    0.58    0.11
  -2   8  -6    0.68    0.19
   2  -8   7    5.87    0.27
  -2   8  -7    6.44    0.33
  -2   8  -7    4.96    0.16
   2  -8   8    1.58    0.15
  -2   8  -8    1.59    0.11
  -2   8  -8    1.71    0.23
   2  -8   9   -0.15    0.08
  -2   8  -9    0.02    0.05
  -2   8  -9    0.17    0.10
   2  -8  10    0.61    0.12
  -2   8 -10    0.62    0.24
  -2   8 -10    0.52    0.12
   2  -8  11    7.48    0.33
  -2   8 -11    7.58    0.30
  -2   8 -11    7.54    0.52
   2  -8  12   -0.09    0.08
  -2   8 -12   -0.01    0.16
  -2   8 -12    0.09    0.08
   2  -8  13    0.38    0.15
  -2   8 -13    0.29    0.21
  -2   8 -13    0.12    0.15
   2  -8  14    0.33    0.16
  -2   8 -14    0.17    0.13
  -2   8 -14    0.34    0.21
   2  -7 -13    0.25    0.14
  -2   7  13    0.47    0.22
   2  -7 -12    0.25    0.13
  -2   7  12    0.18    0.13
  -2   7  12    0.31    0.25
   2  -7 -11    1.96    0.19
   2  -7 -11    2.11    0.22
  -2   7  11    2.39    0.24
   2  -7 -10    3.46    0.20
   2  -7 -10    3.41    0.27
  -2   7  10    2.68    0.21
   2  -7  -9    0.89    0.14
   2  -7  -9    0.52    0.13
  -2   7   9    0.79    0.16
   2  -7  -8    3.85    0.23
   2  -7  -8    4.14    0.20
  -2   7   8    3.52    0.25
   2  -7  -7    0.57    0.09
   2  -7  -7    0.45    0.15
  -2   7   7    0.58    0.13
   2  -7  -6    1.41    0.11
   2  -7  -6    1.61    0.18
  -2   7   6    1.83    0.18
   2  -7  -5    2.60    0.11
   2  -7  -5    2.54    0.18
  -2   7   5    2.91    0.18
   2  -7  -4    0.08    0.04
   2  -7  -4    0.04    0.07
  -2   7   4    0.07    0.08
   2  -7  -3    7.40    0.26
   2  -7  -3    6.68    0.13
  -2   7   3    7.67    0.30
   2  -7  -2   -0.03    0.06
  -2   7   2    0.00    0.07
   2  -7  -1    1.29    0.16
  -2   7   1    1.82    0.14
   2  -7   0   29.56    0.63
  -2   7   0   30.14    0.70
   2  -7   1    9.02    0.30
  -2   7  -1    8.85    0.32
   2  -7   2    2.87    0.15
  -2   7  -2    3.26    0.20
   2  -7   3    7.15    0.26
  -2   7  -3    7.13    0.29
   2  -7   4    0.25    0.09
  -2   7  -4    0.37    0.11
   2  -7   5    1.45    0.11
  -2   7  -5    1.18    0.06
  -2   7  -5    1.57    0.16
   2  -7   6    2.20    0.13
  -2   7  -6    1.96    0.10
  -2   7  -6    2.17    0.19
   2  -7   7   11.05    0.32
  -2   7  -7   11.03    0.26
  -2   7  -7   12.15    0.51
   2  -7   8    0.27    0.10
  -2   7  -8    0.39    0.14
  -2   7  -8    0.35    0.08
   2  -7   9    0.64    0.12
  -2   7  -9    0.89    0.21
  -2   7  -9    0.44    0.10
   2  -7  10    0.44    0.09
  -2   7 -10    0.25    0.10
  -2   7 -10   -0.08    0.10
   2  -7  11    2.61    0.21
   2  -7  11    3.38    0.20
  -2   7 -11    3.09    0.18
   2  -7  12    1.98    0.19
   2  -7  12    1.81    0.20
  -2   7 -12    1.47    0.20
   2  -7  13    1.72    0.18
   2  -7  13    1.63    0.20
  -2   7 -13    1.72    0.21
   2  -7  14    1.02    0.18
   2  -7  14    0.75    0.15
  -2   7 -14    0.81    0.20
  -2   7 -15    0.87    0.23
   2  -6 -13   -0.02    0.10
  -2   6  13    0.01    0.18
   2  -6 -12    1.42    0.22
  -2   6  12    1.87    0.34
  -2   6  12    1.67    0.20
   2  -6 -11   17.38    0.60
  -2   6  11   18.69    0.81
  -2   6  11   17.77    0.56
   2  -6 -10    0.02    0.10
   2  -6 -10    0.08    0.12
  -2   6  10    0.18    0.09
   2  -6  -9   -0.02    0.07
   2  -6  -9    0.02    0.08
  -2   6   9    0.10    0.07
   2  -6  -8    1.90    0.15
   2  -6  -8    2.43    0.16
  -2   6   8    1.74    0.14
   2  -6  -7    2.83    0.15
   2  -6  -7    2.78    0.17
  -2   6   7    2.71    0.18
   2  -6  -6    0.50    0.06
   2  -6  -6    0.46    0.10
  -2   6   6    0.36    0.09
   2  -6  -5    3.59    0.18
   2  -6  -5    3.59    0.13
  -2   6   5    3.54    0.17
   2  -6  -4    9.87    0.19
   2  -6  -4    9.81    0.29
  -2   6   4    9.87    0.29
   2  -6  -3    1.90    0.15
   2  -6  -3    1.75    0.06
  -2   6   3    1.92    0.12
   2  -6  -2    2.07    0.13
   2  -6  -2    2.00    0.05
  -2   6   2    1.84    0.12
   2  -6  -1    1.03    0.10
  -2   6   1    1.17    0.13
   2  -6   0   18.26    0.40
  -2   6   0   20.11    0.48
   2  -6   1   11.53    0.29
  -2   6  -1   11.98    0.34
   2  -6   2    8.43    0.22
  -2   6  -2    7.80    0.28
   2  -6   3    1.27    0.09
  -2   6  -3    1.16    0.14
   2  -6   4    1.77    0.11
  -2   6  -4    1.66    0.15
  -2   6  -4    1.60    0.05
   2  -6   5    7.29    0.23
  -2   6  -5    7.24    0.15
  -2   6  -5    7.28    0.31
   2  -6   6    5.14    0.17
  -2   6  -6    4.91    0.14
  -2   6  -6    4.57    0.26
   2  -6   7    1.58    0.11
   2  -6   7    1.86    0.13
  -2   6  -7    1.54    0.11
   2  -6   8    0.88    0.11
   2  -6   8    0.93    0.11
  -2   6  -8    0.62    0.09
   2  -6   9    4.30    0.21
   2  -6   9    4.11    0.20
  -2   6  -9    4.19    0.18
   2  -6  10    0.58    0.12
   2  -6  10    0.80    0.10
  -2   6 -10    0.49    0.12
   2  -6  11    2.90    0.16
   2  -6  11    2.97    0.20
  -2   6 -11    2.16    0.20
   2  -6  12    1.42    0.19
   2  -6  12    1.17    0.16
  -2   6 -12    1.24    0.15
   2  -6  13   -0.08    0.09
   2  -6  13   -0.17    0.11
  -2   6 -13   -0.04    0.10
   2  -6  14    0.77    0.21
   2  -6  14    1.15    0.17
  -2   6 -14    1.03    0.21
   2  -6  15    1.23    0.19
  -2   6 -15    1.07    0.19
   2  -5 -14    0.15    0.14
  -2   5  14    0.19    0.18
   2  -5 -13   -0.17    0.11
  -2   5  13    0.02    0.14
  -2   5  13    0.14    0.09
   2  -5 -12    0.62    0.15
  -2   5  12    0.44    0.20
  -2   5  12    0.56    0.12
   2  -5 -11    1.25    0.15
  -2   5  11    1.57    0.29
  -2   5  11    1.49    0.16
   2  -5 -10    0.13    0.08
  -2   5  10    0.05    0.08
  -2   5  10    0.06    0.14
   2  -5  -9    1.39    0.13
   2  -5  -9    1.34    0.12
  -2   5   9    1.20    0.11
   2  -5  -8   -0.04    0.05
   2  -5  -8    0.02    0.06
  -2   5   8   -0.00    0.05
   2  -5  -7   22.48    0.53
   2  -5  -7   22.47    0.49
  -2   5   7   21.30    0.49
   2  -5  -6    0.83    0.07
   2  -5  -6    1.03    0.11
  -2   5   6    0.81    0.08
   2  -5  -5    5.97    0.16
   2  -5  -5    5.87    0.21
  -2   5   5    6.03    0.21
   2  -5  -4   20.42    0.45
   2  -5  -4   19.80    0.31
  -2   5   4   20.22    0.43
   2  -5  -3    5.71    0.20
   2  -5  -3    5.34    0.11
  -2   5   3    5.29    0.17
   2  -5  -2    1.01    0.08
   2  -5  -2    0.69    0.03
  -2   5   2    0.84    0.08
   2  -5  -1   12.85    0.30
  -2   5   1   13.05    0.31
   2  -5   0   65.16    0.94
  -2   5   0   66.37    1.09
   2  -5   1    1.13    0.08
  -2   5  -1    1.06    0.10
   2  -5   2    0.06    0.04
  -2   5  -2    0.07    0.01
  -2   5  -2    0.06    0.07
   2  -5   3    1.30    0.08
  -2   5  -3    1.37    0.12
  -2   5  -3    1.12    0.04
   2  -5   4    6.95    0.18
  -2   5  -4    7.37    0.14
   2  -5   5   15.29    0.31
   2  -5   5   15.46    0.35
  -2   5  -5   16.04    0.27
   2  -5   6    2.59    0.13
   2  -5   6    2.93    0.11
  -2   5  -6    2.25    0.10
   2  -5   7    5.35    0.20
   2  -5   7    5.03    0.18
  -2   5  -7    4.68    0.17
   2  -5   8    0.04    0.06
   2  -5   8   -0.01    0.04
  -2   5  -8   -0.02    0.04
   2  -5   9    0.41    0.07
   2  -5   9    0.37    0.10
  -2   5  -9    0.34    0.08
   2  -5  10    4.38    0.19
   2  -5  10    4.47    0.21
  -2   5 -10    3.94    0.23
   2  -5  11    3.47    0.19
   2  -5  11    4.10    0.22
  -2   5 -11    4.31    0.22
   2  -5  12   -0.20    0.07
   2  -5  12    0.13    0.05
  -2   5 -12   -0.05    0.07
   2  -5  13    0.08    0.09
   2  -5  13    0.39    0.12
  -2   5 -13    0.42    0.12
   2  -5  14   -0.02    0.11
   2  -5  14   -0.06    0.09
  -2   5 -14    0.03    0.10
   2  -5  15    0.06    0.12
  -2   5 -15   -0.07    0.13
  -2   5 -16    4.77    0.34
   2  -4 -15    0.11    0.14
  -2   4  15    0.03    0.21
   2  -4 -14    2.01    0.23
  -2   4  14    1.82    0.28
   2  -4 -13   -0.08    0.12
  -2   4  13   -0.10    0.12
  -2   4  13    0.05    0.09
   2  -4 -12    1.63    0.21
  -2   4  12    1.58    0.16
  -2   4  12    1.61    0.25
   2  -4 -11    0.22    0.13
  -2   4  11    0.49    0.16
  -2   4  11    0.35    0.08
   2  -4 -10    0.73    0.14
  -2   4  10    0.70    0.11
  -2   4  10    0.71    0.18
   2  -4  -9    0.49    0.09
  -2   4   9    0.35    0.08
  -2   4   9    0.31    0.14
   2  -4  -8    2.27    0.15
   2  -4  -8    2.45    0.14
  -2   4   8    2.17    0.12
   2  -4  -7    0.17    0.08
   2  -4  -7    0.41    0.08
  -2   4   7    0.28    0.07
   2  -4  -6    0.23    0.05
   2  -4  -6    0.11    0.07
  -2   4   6    0.18    0.06
   2  -4  -5    0.16    0.06
   2  -4  -5   -0.07    0.04
  -2   4   5   -0.04    0.04
   2  -4  -4   48.19    0.61
   2  -4  -4   50.37    0.81
  -2   4   4   50.76    0.73
   2  -4  -3    2.01    0.10
   2  -4  -3    1.83    0.06
  -2   4   3    2.14    0.09
   2  -4  -2   27.72    0.47
   2  -4  -2   28.01    0.30
  -2   4   2   28.07    0.48
   2  -4  -1    0.91    0.03
   2  -4  -1    0.94    0.07
  -2   4   1    1.04    0.08
   2  -4   0   23.61    0.37
  -2   4   0   23.59    0.42
   2  -4   1    7.16    0.15
  -2   4  -1    6.63    0.08
  -2   4  -1    7.09    0.21
   2  -4   2   49.89    0.62
  -2   4  -2   49.44    0.84
  -2   4  -2   49.00    0.42
   2  -4   3    1.30    0.07
   2  -4   3    1.23    0.08
  -2   4  -3    1.17    0.05
   2  -4   4   15.47    0.31
   2  -4   4   14.73    0.26
  -2   4  -4   15.67    0.25
   2  -4   5    7.45    0.20
   2  -4   5    6.66    0.15
  -2   4  -5    7.32    0.17
   2  -4   6  107.26    1.29
   2  -4   6  105.43    1.54
  -2   4  -6  107.45    1.34
   2  -4   7    3.74    0.18
   2  -4   7    3.63    0.13
  -2   4  -7    3.53    0.13
   2  -4   8   10.12    0.25
   2  -4   8   10.67    0.30
  -2   4  -8   10.55    0.29
   2  -4   9   14.70    0.39
   2  -4   9   14.89    0.34
  -2   4  -9   14.23    0.39
   2  -4  10    1.17    0.11
   2  -4  10    1.46    0.16
  -2   4 -10    1.21    0.15
   2  -4  11    0.58    0.10
   2  -4  11    0.60    0.12
  -2   4 -11    0.60    0.12
   2  -4  12   -0.04    0.09
   2  -4  12    0.10    0.07
  -2   4 -12   -0.09    0.07
   2  -4  13   11.05    0.41
   2  -4  13   10.84    0.36
  -2   4 -13   10.79    0.43
   2  -4  14    0.41    0.12
   2  -4  14    0.20    0.12
   2  -4  15    0.03    0.12
  -2   4 -15    0.24    0.13
  -2   4 -16    4.69    0.34
   2  -3 -15    0.61    0.18
  -2   3  15    0.51    0.25
   2  -3 -14    1.36    0.22
  -2   3  14    1.76    0.26
   2  -3 -13    0.96    0.20
  -2   3  13    0.99    0.23
   2  -3 -12    2.54    0.23
  -2   3  12    2.16    0.24
  -2   3  12    2.25    0.17
   2  -3 -11    1.01    0.17
  -2   3  11    0.80    0.11
  -2   3  11    1.28    0.23
   2  -3 -10    4.13    0.21
  -2   3  10    4.45    0.32
  -2   3  10    4.75    0.16
   2  -3  -9    0.44    0.09
  -2   3   9    0.32    0.08
  -2   3   9    0.48    0.15
   2  -3  -8    2.44    0.14
  -2   3   8    2.40    0.23
  -2   3   8    2.76    0.12
   2  -3  -7    1.21    0.09
   2  -3  -7    1.23    0.10
  -2   3   7    1.53    0.08
   2  -3  -6    2.83    0.11
   2  -3  -6    3.29    0.13
  -2   3   6    2.71    0.10
   2  -3  -5    6.34    0.18
   2  -3  -5    6.52    0.17
  -2   3   5    6.78    0.16
   2  -3  -4    0.63    0.06
   2  -3  -4    0.50    0.06
  -2   3   4    0.53    0.06
   2  -3  -3    0.07    0.02
   2  -3  -3    0.09    0.04
  -2   3   3    0.05    0.03
   2  -3  -2    8.27    0.13
   2  -3  -2    8.28    0.17
  -2   3   2    7.92    0.16
   2  -3  -1    4.42    0.11
   2  -3  -1    4.41    0.07
  -2   3   1    4.32    0.11
   2  -3   0    0.77    0.03
   2  -3   0    0.72    0.05
  -2   3   0    0.85    0.06
   2  -3   1    1.84    0.07
   2  -3   1    2.07    0.07
  -2   3  -1    2.07    0.05
   2  -3   2    0.47    0.04
   2  -3   2    0.40    0.04
  -2   3  -2    0.26    0.03
   2  -3   3    0.04    0.02
   2  -3   3    0.03    0.03
  -2   3  -3   -0.00    0.03
   2  -3   4   38.83    0.46
   2  -3   4   39.72    0.59
  -2   3  -4   41.19    0.53
   2  -3   5   38.83    0.62
   2  -3   5   40.04    0.49
  -2   3  -5   39.56    0.56
   2  -3   6   10.00    0.18
   2  -3   6   10.10    0.26
  -2   3  -6   10.55    0.23
   2  -3   7    9.21    0.19
   2  -3   7    9.81    0.26
  -2   3  -7    9.40    0.24
   2  -3   8   15.49    0.30
   2  -3   8   15.24    0.37
  -2   3  -8   15.28    0.36
   2  -3   9   16.01    0.33
   2  -3   9   16.97    0.44
  -2   3  -9   16.12    0.43
   2  -3  10    5.28    0.18
   2  -3  10    5.61    0.26
  -2   3 -10    5.57    0.22
   2  -3  11    2.56    0.15
   2  -3  11    3.01    0.18
  -2   3 -11    2.80    0.19
   2  -3  12    3.72    0.25
   2  -3  12    3.83    0.19
  -2   3 -12    3.54    0.22
   2  -3  13   -0.06    0.10
   2  -3  13    0.02    0.07
  -2   3 -13   -0.06    0.11
   2  -3  14    2.20    0.20
  -2   3 -14    2.71    0.28
   2  -3  15    0.18    0.13
  -2   3 -15   -0.07    0.12
  -2   3 -16   -0.02    0.13
   2  -2 -16    1.70    0.31
  -2   2  16    1.63    0.27
   2  -2 -15    1.49    0.22
  -2   2  15    1.20    0.23
   2  -2 -14    0.56    0.15
  -2   2  14    0.36    0.21
   2  -2 -13    0.02    0.11
  -2   2  13    0.18    0.15
   2  -2 -12    1.06    0.15
  -2   2  12    1.62    0.22
  -2   2  12    1.01    0.11
   2  -2 -11   13.20    0.42
  -2   2  11   12.60    0.33
  -2   2  11   13.92    0.50
   2  -2 -10    0.28    0.09
  -2   2  10    0.15    0.07
  -2   2  10    0.30    0.11
   2  -2  -9    8.62    0.26
  -2   2   9    7.72    0.20
  -2   2   9    9.02    0.38
   2  -2  -8    6.83    0.22
  -2   2   8    7.41    0.28
  -2   2   8    6.19    0.16
   2  -2  -7    0.02    0.05
  -2   2   7    0.05    0.04
  -2   2   7    0.05    0.07
   2  -2  -6    5.46    0.16
  -2   2   6    5.87    0.23
  -2   2   6    5.53    0.12
   2  -2  -5  144.43    1.61
   2  -2  -5  141.55    1.69
  -2   2   5  143.39    1.29
   2  -2  -4    0.54    0.05
   2  -2  -4    0.48    0.05
  -2   2   4    0.43    0.04
   2  -2  -3    1.41    0.06
   2  -2  -3    1.51    0.06
  -2   2   3    1.38    0.05
   2  -2  -2    3.40    0.08
   2  -2  -2    3.65    0.10
  -2   2   2    3.72    0.08
   2  -2  -1    0.84    0.04
   2  -2  -1    0.74    0.03
  -2   2   1    0.84    0.05
   2  -2   0   14.72    0.20
   2  -2   0   14.82    0.16
   2  -2   0   14.99    0.21
   2  -2   1   82.74    0.70
   2  -2   1   83.17    0.82
  -2   2  -1   82.52    0.82
   2  -2   2    1.12    0.03
   2  -2   2    1.36    0.07
  -2   2  -2    1.31    0.06
   2  -2   3    2.31    0.05
   2  -2   3    2.48    0.08
  -2   2  -3    2.71    0.08
   2  -2   4    0.15    0.02
   2  -2   4    0.07    0.05
  -2   2  -4    0.15    0.04
   2  -2   5    4.81    0.14
   2  -2   5    4.98    0.09
  -2   2  -5    4.84    0.14
   2  -2   6   28.19    0.35
   2  -2   6   28.33    0.49
  -2   2  -6   27.63    0.50
   2  -2   7    8.33    0.16
   2  -2   7    8.82    0.24
  -2   2  -7    8.65    0.23
   2  -2   8    1.45    0.07
   2  -2   8    1.58    0.13
  -2   2  -8    1.69    0.13
   2  -2   9    0.07    0.05
   2  -2   9   -0.04    0.04
  -2   2  -9   -0.01    0.07
   2  -2  10   16.85    0.35
   2  -2  10   16.00    0.43
  -2   2 -10   16.65    0.44
   2  -2  11    0.13    0.06
   2  -2  11    0.06    0.08
  -2   2 -11    0.01    0.09
   2  -2  12    0.07    0.07
   2  -2  12    0.10    0.09
  -2   2 -12    0.10    0.10
   2  -2  13    1.75    0.22
  -2   2 -13    2.27    0.23
   2  -2  14    0.11    0.11
  -2   2 -14    0.04    0.11
   2  -2  15    6.85    0.37
  -2   2 -15    7.47    0.39
  -2   2 -16    0.02    0.14
   2  -1 -16    0.18    0.17
  -2   1  16    0.26    0.19
   2  -1 -15    0.31    0.17
  -2   1  15    0.34    0.20
   2  -1 -14    1.59    0.19
  -2   1  14    0.83    0.26
   2  -1 -13    0.18    0.12
  -2   1  13    0.23    0.13
   2  -1 -12    3.08    0.21
  -2   1  12    3.17    0.24
  -2   1  12    2.52    0.15
   2  -1 -11    1.28    0.17
  -2   1  11    1.06    0.19
  -2   1  11    1.01    0.09
   2  -1 -10    0.23    0.09
  -2   1  10    0.24    0.05
  -2   1  10    0.16    0.10
   2  -1  -9    4.01    0.18
  -2   1   9    3.66    0.21
  -2   1   9    3.36    0.12
   2  -1  -8   30.23    0.58
  -2   1   8   27.96    0.40
  -2   1   8   30.50    0.70
   2  -1  -7    3.04    0.13
  -2   1   7    2.87    0.08
  -2   1   7    2.87    0.17
   2  -1  -6   19.02    0.36
  -2   1   6   19.81    0.46
  -2   1   6   18.47    0.22
   2  -1  -5    3.76    0.12
  -2   1   5    3.86    0.07
  -2   1   5    3.93    0.16
   2  -1  -4    1.56    0.06
  -2   1   4    1.34    0.10
  -2   1   4    1.40    0.03
   2  -1  -3    3.97    0.10
  -2   1   3    3.81    0.13
   2  -1  -2   20.70    0.26
   2  -1  -2   20.84    0.26
  -2   1   2   20.37    0.19
   2  -1  -1    6.81    0.11
   2  -1  -1    6.78    0.10
   2  -1  -1    6.73    0.08
   2  -1   0   86.64    0.72
   2  -1   0   87.06    0.65
   2  -1   0   87.77    0.71
   2  -1   1    0.17    0.02
   2  -1   1    0.14    0.03
  -2   1  -1    0.15    0.03
   2  -1   2    0.11    0.03
  -2   1  -2    0.03    0.03
   2  -1   3    1.78    0.03
   2  -1   3    1.82    0.07
  -2   1  -3    1.69    0.09
   2  -1   4    1.64    0.08
   2  -1   4    1.77    0.04
  -2   1  -4    1.56    0.08
   2  -1   5   13.24    0.16
   2  -1   5   13.68    0.28
  -2   1  -5   12.94    0.27
   2  -1   6    4.41    0.14
   2  -1   6    4.09    0.09
  -2   1  -6    4.10    0.14
   2  -1   7    5.23    0.19
   2  -1   7    4.46    0.11
  -2   1  -7    4.83    0.17
   2  -1   8    0.07    0.08
   2  -1   8    0.14    0.04
  -2   1  -8    0.26    0.07
   2  -1   9    0.85    0.07
   2  -1   9    0.96    0.11
  -2   1  -9    0.94    0.11
   2  -1  10   36.32    0.79
   2  -1  10   34.08    0.59
  -2   1 -10   35.28    0.78
   2  -1  11   11.74    0.36
   2  -1  11    9.73    0.27
  -2   1 -11   10.90    0.38
   2  -1  12   -0.18    0.09
   2  -1  12    0.06    0.06
  -2   1 -12   -0.04    0.09
   2  -1  13    5.30    0.28
  -2   1 -13    5.64    0.31
   2  -1  14    1.88    0.20
  -2   1 -14    2.33    0.23
   2  -1  15    0.43    0.15
  -2   1 -15    0.60    0.21
  -2   1 -16    0.04    0.13
   2   0 -16    0.09    0.14
  -2   0  16    0.07    0.17
   2   0 -15    3.34    0.29
  -2   0  15    2.89    0.29
   2   0 -14    0.91    0.17
  -2   0  14    0.84    0.19
   2   0 -13    0.32    0.13
  -2   0  13    0.09    0.16
   2   0 -12    4.80    0.25
  -2   0  12    4.19    0.27
   2   0 -11   30.76    0.76
  -2   0  11   32.83    0.85
   2   0 -10   15.48    0.43
  -2   0  10   16.28    0.48
   2   0  -9    0.09    0.07
  -2   0   9   -0.02    0.08
  -2   0   9    0.09    0.04
   2   0  -8   20.96    0.45
  -2   0   8   20.69    0.51
  -2   0   8   20.09    0.29
   2   0  -7    0.07    0.05
  -2   0   7   -0.17    0.07
   2   0  -6   72.95    1.00
  -2   0   6   70.45    0.58
  -2   0   6   72.11    1.16
   2   0  -5   22.62    0.37
  -2   0   5   23.04    0.44
   2   0  -4    0.72    0.05
  -2   0   4    0.85    0.08
   2   0  -3   69.85    0.76
  -2   0   3   70.06    0.89
   2   0  -2   53.23    0.56
   2   0  -2   51.46    0.26
  -2   0   2   53.05    0.64
   2   0  -1    0.48    0.03
   2   0  -1    0.50    0.02
  -2   0   1    0.51    0.04
   2   0   0    0.00    0.02
   2   0   0    0.01    0.02
  -2   0   0    0.02    0.02
   2   0   1    5.29    0.09
  -2   0  -1    5.57    0.06
  -2   0  -1    5.40    0.14
   2   0   2    0.92    0.05
  -2   0  -2    0.81    0.06
   2   0   3    1.59    0.07
  -2   0  -3    1.36    0.08
   2   0   4   11.22    0.22
  -2   0  -4   10.44    0.23
   2   0   5    8.76    0.12
   2   0   5    9.57    0.21
  -2   0  -5    9.43    0.22
   2   0   6    0.13    0.05
   2   0   6    0.21    0.03
  -2   0  -6    0.35    0.06
   2   0   7    0.66    0.05
   2   0   7    0.67    0.10
  -2   0  -7    0.87    0.09
   2   0   8    1.32    0.08
   2   0   8    1.61    0.14
  -2   0  -8    1.56    0.12
   2   0   9    2.74    0.12
   2   0   9    2.85    0.18
  -2   0  -9    2.55    0.20
   2   0  10   10.00    0.26
   2   0  10   11.39    0.35
  -2   0 -10   12.04    0.40
   2   0  11    1.57    0.12
   2   0  11    1.79    0.17
  -2   0 -11    1.89    0.18
   2   0  12    0.54    0.13
  -2   0 -12    0.43    0.14
   2   0  13    0.61    0.18
  -2   0 -13    0.57    0.15
   2   0  14    2.09    0.22
  -2   0 -14    2.38    0.25
   2   0  15    2.35    0.29
  -2   0 -15    2.41    0.32
   2   1 -16    0.14    0.21
  -2  -1  16    0.30    0.15
   2   1 -15    1.01    0.22
  -2  -1  15    0.76    0.19
   2   1 -14    0.14    0.13
  -2  -1  14    0.20    0.13
   2   1 -13    2.08    0.21
  -2  -1  13    1.68    0.20
   2   1 -12   -0.05    0.09
  -2  -1  12    0.14    0.11
   2   1 -11    4.58    0.27
  -2  -1  11    4.35    0.26
   2   1 -10    6.97    0.30
  -2  -1  10    6.46    0.18
  -2  -1  10    8.39    0.34
   2   1  -9    3.30    0.17
  -2  -1   9    3.00    0.10
  -2  -1   9    3.10    0.18
   2   1  -8   -0.05    0.05
  -2  -1   8   -0.01    0.03
  -2  -1   8   -0.02    0.06
   2   1  -7    3.53    0.14
  -2  -1   7    3.40    0.16
   2   1  -6    4.60    0.15
  -2  -1   6    4.38    0.07
  -2  -1   6    4.46    0.16
   2   1  -5    1.87    0.08
  -2  -1   5    2.03    0.12
   2   1  -4    6.59    0.14
  -2  -1   4    6.24    0.16
   2   1  -3    2.32    0.04
   2   1  -3    2.21    0.08
  -2  -1   3    2.45    0.09
   2   1  -2    9.58    0.16
   2   1  -2    9.28    0.10
  -2  -1   2    9.30    0.17
   2   1  -1    0.00    0.02
   2   1  -1    0.02    0.03
  -2  -1   1    0.02    0.02
   2   1   0  115.49    1.07
   2   1   0  116.83    0.98
  -2  -1   0  117.44    0.91
   2   1   1   66.23    0.69
  -2  -1  -1   66.66    0.91
  -2  -1  -1   66.60    0.47
   2   1   2    0.27    0.04
  -2  -1  -2    0.43    0.06
   2   1   3    1.92    0.08
  -2  -1  -3    1.91    0.09
   2   1   4    7.43    0.19
  -2  -1  -4    7.27    0.20
   2   1   5   12.33    0.19
   2   1   5   13.00    0.28
  -2  -1  -5   12.70    0.28
   2   1   6    4.92    0.13
   2   1   6    5.27    0.17
  -2  -1  -6    5.31    0.20
   2   1   7    0.30    0.05
   2   1   7    0.33    0.08
  -2  -1  -7    0.44    0.08
   2   1   8   15.22    0.39
  -2  -1  -8   14.43    0.39
   2   1   9    1.49    0.10
   2   1   9    1.85    0.16
  -2  -1  -9    1.68    0.15
   2   1  10   11.26    0.37
   2   1  10    9.41    0.27
  -2  -1 -10   10.86    0.37
   2   1  11  123.19    2.39
  -2  -1 -11  118.75    2.39
   2   1  12    3.13    0.23
  -2  -1 -12    3.02    0.24
   2   1  13    1.72    0.20
  -2  -1 -13    2.10    0.22
   2   1  14    2.16    0.29
  -2  -1 -14    2.14    0.30
   2   1  15    8.20    0.51
  -2  -1 -15    9.30    0.48
   2   2 -16   10.07    0.52
  -2  -2  16   10.44    0.51
   2   2 -15    0.06    0.15
  -2  -2  15    0.04    0.12
   2   2 -14    0.47    0.15
  -2  -2  14    0.45    0.19
   2   2 -13    0.20    0.12
  -2  -2  13    0.21    0.12
   2   2 -12    6.66    0.31
  -2  -2  12    6.73    0.32
   2   2 -11    1.46    0.15
  -2  -2  11    1.27    0.16
   2   2 -10    2.23    0.16
  -2  -2  10    2.10    0.09
  -2  -2  10    2.43    0.18
   2   2  -9    0.21    0.10
  -2  -2   9    0.39    0.09
  -2  -2   9    0.23    0.04
   2   2  -8   -0.05    0.05
  -2  -2   8    0.02    0.03
  -2  -2   8    0.06    0.06
   2   2  -7    0.88    0.06
   2   2  -7    0.64    0.08
  -2  -2   7    0.59    0.09
   2   2  -6    5.56    0.12
   2   2  -6    6.04    0.17
  -2  -2   6    5.71    0.19
   2   2  -5   45.73    0.65
   2   2  -5   42.50    0.46
  -2  -2   5   44.08    0.73
   2   2  -4    6.79    0.16
   2   2  -4    6.75    0.11
  -2  -2   4    7.00    0.19
   2   2  -3    0.29    0.03
   2   2  -3    0.29    0.04
  -2  -2   3    0.38    0.05
   2   2  -2   11.26    0.16
   2   2  -2   11.80    0.21
  -2  -2   2   11.72    0.21
   2   2  -1   14.24    0.20
   2   2  -1   14.41    0.22
  -2  -2   1   14.99    0.23
   2   2   0  350.04    2.94
   2   2   0  345.13    2.94
  -2  -2   0  347.16    2.67
   2   2   1   -0.01    0.03
  -2  -2  -1    0.03    0.02
  -2  -2  -1    0.05    0.04
   2   2   2    1.13    0.07
  -2  -2  -2    1.04    0.04
  -2  -2  -2    1.33    0.08
   2   2   3    9.36    0.21
  -2  -2  -3   10.15    0.24
  -2  -2  -3    9.85    0.14
   2   2   4    0.06    0.05
  -2  -2  -4    0.07    0.06
   2   2   5    0.24    0.07
  -2  -2  -5    0.22    0.06
  -2  -2  -5    0.23    0.03
   2   2   6    6.77    0.21
  -2  -2  -6    6.60    0.22
  -2  -2  -6    6.24    0.13
   2   2   7    0.12    0.06
   2   2   7    0.08    0.07
  -2  -2  -7    0.16    0.09
   2   2   8   32.35    0.69
   2   2   8   30.28    0.58
  -2  -2  -8   33.73    0.76
   2   2   9    0.74    0.09
   2   2   9    0.92    0.12
  -2  -2  -9    0.68    0.13
   2   2  10    0.05    0.09
  -2  -2 -10    0.04    0.09
   2   2  11   -0.00    0.10
  -2  -2 -11   -0.14    0.11
   2   2  12    4.52    0.27
  -2  -2 -12    4.09    0.27
   2   2  13    0.02    0.11
  -2  -2 -13    0.07    0.12
   2   2  14    0.74    0.17
  -2  -2 -14    0.51    0.21
   2   2  15    1.66    0.24
  -2  -2 -15    1.58    0.25
   2   3 -16    4.80    0.42
  -2  -3  16    3.97    0.39
   2   3 -15    0.71    0.18
  -2  -3  15    0.51    0.18
   2   3 -14    3.31    0.27
  -2  -3  14    3.34    0.26
   2   3 -13    0.24    0.12
  -2  -3  13    0.04    0.14
   2   3 -12    0.03    0.09
  -2  -3  12    0.04    0.10
   2   3 -11   28.43    0.75
  -2  -3  11   26.67    0.71
   2   3 -10    3.33    0.16
   2   3 -10    2.98    0.19
  -2  -3  10    3.18    0.20
   2   3  -9    1.06    0.09
   2   3  -9    1.08    0.14
  -2  -3   9    1.31    0.13
   2   3  -8    0.41    0.07
   2   3  -8    0.25    0.10
  -2  -3   8    0.40    0.09
   2   3  -7   31.64    0.48
   2   3  -7   35.58    0.64
  -2  -3   7   34.54    0.67
   2   3  -6   55.07    0.73
   2   3  -6   57.57    0.87
  -2  -3   6   55.88    0.94
   2   3  -5    0.03    0.04
   2   3  -5    0.27    0.06
  -2  -3   5    0.04    0.06
   2   3  -4    3.00    0.10
   2   3  -4    2.77    0.10
  -2  -3   4    2.84    0.11
   2   3  -3   46.99    0.58
   2   3  -3   47.82    0.63
  -2  -3   3   47.28    0.67
   2   3  -2   10.84    0.20
   2   3  -2   11.41    0.20
  -2  -3   2   11.57    0.22
   2   3  -1    2.38    0.09
   2   3  -1    2.03    0.08
  -2  -3   1    2.12    0.08
   2   3   0    8.20    0.16
   2   3   0    7.78    0.17
  -2  -3   0    8.35    0.16
   2   3   1    4.21    0.14
  -2  -3  -1    4.14    0.11
  -2  -3  -1    4.58    0.15
   2   3   2    7.73    0.19
  -2  -3  -2    7.34    0.14
  -2  -3  -2    7.77    0.21
   2   3   3    2.65    0.11
  -2  -3  -3    2.69    0.12
  -2  -3  -3    2.87    0.08
   2   3   4    0.30    0.06
  -2  -3  -4    0.19    0.04
  -2  -3  -4    0.32    0.06
   2   3   5   12.14    0.31
  -2  -3  -5   12.00    0.30
  -2  -3  -5   12.30    0.23
   2   3   6    2.75    0.15
  -2  -3  -6    2.33    0.14
  -2  -3  -6    2.39    0.10
   2   3   7    5.49    0.22
  -2  -3  -7    5.00    0.21
  -2  -3  -7    4.91    0.15
   2   3   8   11.17    0.36
  -2  -3  -8   10.97    0.37
   2   3   9    6.14    0.27
   2   3   9    7.44    0.33
  -2  -3  -9    7.47    0.30
   2   3  10    0.59    0.13
  -2  -3 -10    0.54    0.13
   2   3  11    4.34    0.27
  -2  -3 -11    4.64    0.31
   2   3  12    2.10    0.22
  -2  -3 -12    1.75    0.21
   2   3  13   -0.09    0.12
  -2  -3 -13   -0.06    0.13
   2   3  14    0.34    0.17
  -2  -3 -14    0.17    0.20
   2   4 -16    1.19    0.24
  -2  -4  16    1.54    0.23
   2   4 -15    0.06    0.16
  -2  -4  15    0.06    0.12
   2   4 -14    0.74    0.18
  -2  -4  14    1.10    0.17
   2   4 -13    1.44    0.19
  -2  -4  13    1.20    0.18
   2   4 -12    0.91    0.18
  -2  -4  12    0.81    0.16
   2   4 -11    0.49    0.11
   2   4 -11    0.79    0.14
  -2  -4  11    1.24    0.17
   2   4 -10    0.36    0.09
   2   4 -10    0.76    0.13
  -2  -4  10    0.76    0.15
   2   4  -9    1.05    0.10
   2   4  -9    1.40    0.13
  -2  -4   9    1.38    0.14
   2   4  -8    0.17    0.07
   2   4  -8    0.33    0.09
  -2  -4   8    0.25    0.09
   2   4  -7    9.65    0.25
   2   4  -7    9.52    0.23
  -2  -4   7    9.94    0.30
   2   4  -6   27.17    0.52
   2   4  -6   26.35    0.45
  -2  -4   6   27.67    0.57
   2   4  -5    0.50    0.08
   2   4  -5    0.59    0.07
  -2  -4   5    0.68    0.08
   2   4  -4    0.22    0.05
   2   4  -4    0.36    0.06
  -2  -4   4    0.33    0.07
   2   4  -3   15.79    0.30
   2   4  -3   16.03    0.31
  -2  -4   3   16.31    0.33
   2   4  -2    0.13    0.05
   2   4  -2    0.16    0.05
  -2  -4   2    0.12    0.05
   2   4  -1   30.28    0.43
   2   4  -1   31.08    0.51
  -2  -4   1   30.55    0.47
   2   4   0   33.97    0.56
  -2  -4   0   34.86    0.51
   2   4   1    7.94    0.21
  -2  -4  -1    8.51    0.25
  -2  -4  -1    7.97    0.18
   2   4   2    0.61    0.09
  -2  -4  -2    0.63    0.09
  -2  -4  -2    0.56    0.05
   2   4   3    0.34    0.08
  -2  -4  -3    0.45    0.06
  -2  -4  -3    0.43    0.09
   2   4   4    2.27    0.14
  -2  -4  -4    2.37    0.11
  -2  -4  -4    2.79    0.15
   2   4   5   13.69    0.36
  -2  -4  -5   14.07    0.35
  -2  -4  -5   13.61    0.31
   2   4   6    0.36    0.09
  -2  -4  -6    0.27    0.06
  -2  -4  -6    0.28    0.08
   2   4   7    0.43    0.10
  -2  -4  -7    0.18    0.06
  -2  -4  -7    0.18    0.10
   2   4   8    6.10    0.26
  -2  -4  -8    5.36    0.19
  -2  -4  -8    6.51    0.26
   2   4   9    0.54    0.13
  -2  -4  -9    0.62    0.13
   2   4  10   16.87    0.55
  -2  -4 -10   16.06    0.53
   2   4  11    2.93    0.24
  -2  -4 -11    2.65    0.23
   2   4  12    2.39    0.29
  -2  -4 -12    2.39    0.23
   2   4  13    1.11    0.23
  -2  -4 -13    0.43    0.22
   2   5 -16    2.81    0.32
  -2  -5  16    2.96    0.30
   2   5 -15    2.16    0.36
  -2  -5  15    3.75    0.34
   2   5 -14    0.90    0.19
  -2  -5  14    0.91    0.17
   2   5 -13    1.03    0.20
  -2  -5  13    1.31    0.18
   2   5 -12    3.76    0.29
  -2  -5  12    3.92    0.26
   2   5 -11   13.21    0.42
   2   5 -11   15.87    0.53
  -2  -5  11   15.56    0.48
   2   5 -10   10.08    0.35
   2   5 -10    8.11    0.30
  -2  -5  10    9.36    0.35
   2   5  -9   31.30    0.67
   2   5  -9   32.40    0.77
  -2  -5   9   32.19    0.82
   2   5  -8   -0.09    0.06
   2   5  -8   -0.00    0.06
  -2  -5   8   -0.01    0.08
   2   5  -7    3.14    0.15
   2   5  -7    3.25    0.14
  -2  -5   7    3.44    0.18
   2   5  -6   48.32    0.84
   2   5  -6   50.09    0.86
  -2  -5   6   51.02    0.95
   2   5  -5    1.70    0.12
   2   5  -5    1.73    0.10
  -2  -5   5    2.03    0.13
   2   5  -4    0.13    0.05
   2   5  -4    0.12    0.06
  -2  -5   4    0.20    0.07
   2   5  -3    7.32    0.23
   2   5  -3    7.23    0.19
  -2  -5   3    7.69    0.21
   2   5  -2    0.14    0.05
   2   5  -2   -0.05    0.04
  -2  -5   2    0.17    0.05
   2   5  -1  166.31    1.86
   2   5  -1  170.86    2.32
  -2  -5   1  173.64    2.21
   2   5   0   90.43    1.39
  -2  -5   0   88.81    1.26
  -2  -5   0   90.94    1.42
   2   5   1   22.70    0.48
  -2  -5  -1   22.45    0.42
  -2  -5  -1   23.87    0.47
   2   5   2    1.10    0.11
  -2  -5  -2    1.18    0.11
  -2  -5  -2    1.07    0.08
   2   5   3    3.35    0.17
  -2  -5  -3    3.35    0.16
  -2  -5  -3    3.18    0.14
   2   5   4    5.77    0.23
  -2  -5  -4    6.48    0.20
  -2  -5  -4    6.46    0.25
   2   5   5    0.05    0.07
  -2  -5  -5    0.01    0.06
  -2  -5  -5    0.05    0.06
   2   5   6    0.63    0.14
  -2  -5  -6    0.58    0.12
  -2  -5  -6    0.48    0.09
   2   5   7    0.81    0.13
  -2  -5  -7    0.60    0.11
  -2  -5  -7    0.65    0.10
   2   5   8    0.31    0.11
  -2  -5  -8    0.17    0.08
  -2  -5  -8    0.30    0.13
   2   5   9    5.08    0.29
  -2  -5  -9    4.99    0.27
   2   5  10    7.33    0.36
  -2  -5 -10    7.38    0.34
   2   5  11    0.11    0.12
  -2  -5 -11    0.09    0.12
   2   5  12    0.54    0.21
  -2  -5 -12    0.32    0.15
   2   5  13   -0.04    0.13
  -2  -5 -13    0.09    0.15
   2   6 -15   -0.10    0.14
  -2  -6  15   -0.02    0.14
   2   6 -14    1.76    0.30
  -2  -6  14    1.86    0.28
   2   6 -13    1.05    0.19
  -2  -6  13    1.36    0.20
   2   6 -12   24.34    0.73
  -2  -6  12   22.59    0.77
   2   6 -11   17.18    0.55
   2   6 -11   19.87    0.65
  -2  -6  11   20.04    0.64
   2   6 -10    0.15    0.10
   2   6 -10   -0.02    0.12
  -2  -6  10    0.32    0.11
   2   6  -9   12.12    0.38
   2   6  -9   11.39    0.36
  -2  -6   9   12.38    0.42
   2   6  -8    0.31    0.08
   2   6  -8    0.60    0.11
  -2  -6   8    0.55    0.12
   2   6  -7   -0.03    0.06
   2   6  -7    0.06    0.06
  -2  -6   7    0.19    0.10
   2   6  -6    0.34    0.07
   2   6  -6    0.28    0.10
  -2  -6   6    0.40    0.10
   2   6  -5    0.12    0.08
   2   6  -5    0.08    0.06
  -2  -6   5    0.16    0.08
   2   6  -4    0.21    0.09
   2   6  -4    0.33    0.05
  -2  -6   4    0.26    0.08
   2   6  -3    0.66    0.09
   2   6  -3    0.75    0.07
  -2  -6   3    0.97    0.10
   2   6  -2    0.56    0.06
   2   6  -2    0.43    0.09
  -2  -6   2    0.39    0.08
   2   6  -1   12.99    0.35
  -2  -6   1   13.47    0.32
  -2  -6   1   11.76    0.31
   2   6   0    4.02    0.21
  -2  -6   0    4.12    0.18
  -2  -6   0    4.41    0.19
   2   6   1    0.08    0.10
  -2  -6  -1    0.15    0.07
  -2  -6  -1    0.25    0.06
   2   6   2    2.04    0.15
  -2  -6  -2    2.24    0.13
  -2  -6  -2    2.28    0.14
   2   6   3    0.45    0.10
  -2  -6  -3    0.36    0.09
  -2  -6  -3    0.44    0.09
   2   6   4    0.41    0.13
  -2  -6  -4    0.44    0.09
  -2  -6  -4    0.31    0.07
   2   6   5    0.86    0.13
  -2  -6  -5    0.94    0.11
  -2  -6  -5    0.77    0.13
   2   6   6    3.03    0.26
  -2  -6  -6    2.98    0.20
  -2  -6  -6    2.62    0.18
   2   6   7    1.57    0.18
  -2  -6  -7    1.50    0.14
  -2  -6  -7    1.35    0.17
   2   6   8    0.10    0.11
  -2  -6  -8    0.13    0.11
  -2  -6  -8   -0.05    0.08
   2   6   9    2.43    0.28
  -2  -6  -9    2.52    0.23
   2   6  10    0.94    0.18
  -2  -6 -10    0.74    0.19
   2   6  11    2.06    0.24
  -2  -6 -11    1.84    0.25
   2   6  12    2.90    0.32
  -2  -6 -12    2.18    0.24
   2   7 -15   -0.05    0.17
  -2  -7  15    0.45    0.16
   2   7 -14    2.38    0.28
  -2  -7  14    3.15    0.28
   2   7 -13    0.27    0.15
  -2  -7  13   -0.10    0.12
   2   7 -12    0.72    0.14
  -2  -7  12    0.40    0.16
   2   7 -11    7.14    0.33
   2   7 -11    8.81    0.36
  -2  -7  11    8.11    0.38
   2   7 -10    0.47    0.13
   2   7 -10    0.67    0.14
  -2  -7  10    0.53    0.15
   2   7  -9    5.29    0.25
   2   7  -9    6.21    0.28
  -2  -7   9    6.70    0.31
   2   7  -8    2.27    0.19
   2   7  -8    2.13    0.16
  -2  -7   8    2.49    0.20
   2   7  -7    0.95    0.11
   2   7  -7    1.08    0.15
  -2  -7   7    1.09    0.14
   2   7  -6    0.14    0.06
   2   7  -6    0.21    0.09
  -2  -7   6    0.06    0.11
   2   7  -5    1.70    0.16
   2   7  -5    1.79    0.12
  -2  -7   5    2.00    0.16
   2   7  -4    0.49    0.12
   2   7  -4    0.44    0.07
  -2  -7   4    0.48    0.10
   2   7  -3    1.28    0.09
   2   7  -3    1.28    0.12
  -2  -7   3    1.35    0.12
   2   7  -2    0.25    0.08
   2   7  -2    0.17    0.05
  -2  -7   2    0.19    0.08
   2   7  -1    1.49    0.15
  -2  -7   1    1.33    0.12
  -2  -7   1    0.90    0.12
   2   7   0    0.41    0.10
  -2  -7   0    0.47    0.08
  -2  -7   0    0.22    0.09
   2   7   1    0.17    0.08
  -2  -7  -1    0.12    0.07
  -2  -7  -1    0.05    0.07
   2   7   2    0.09    0.09
  -2  -7  -2    0.19    0.08
  -2  -7  -2    0.18    0.07
   2   7   3    1.39    0.16
  -2  -7  -3    1.73    0.15
  -2  -7  -3    1.56    0.13
   2   7   4    0.04    0.09
  -2  -7  -4    0.01    0.07
  -2  -7  -4    0.12    0.07
   2   7   5    2.25    0.20
  -2  -7  -5    1.75    0.15
  -2  -7  -5    2.04    0.16
   2   7   6    0.97    0.17
  -2  -7  -6    1.03    0.14
  -2  -7  -6    1.08    0.11
   2   7   7   -0.07    0.14
  -2  -7  -7   -0.05    0.07
  -2  -7  -7   -0.11    0.10
   2   7   8   -0.10    0.12
  -2  -7  -8   -0.04    0.10
   2   7   9    0.33    0.16
  -2  -7  -9    0.22    0.13
   2   7  10    9.79    0.50
  -2  -7 -10    8.36    0.43
   2   7  11    0.18    0.17
  -2  -7 -11   -0.06    0.15
   2   8 -14    0.31    0.18
  -2  -8  14    0.01    0.19
   2   8 -13    0.94    0.19
  -2  -8  13    0.85    0.21
   2   8 -12    0.71    0.18
  -2  -8  12    0.36    0.17
   2   8 -11   12.67    0.46
   2   8 -11   11.21    0.51
  -2  -8  11   14.60    0.55
   2   8 -10    3.79    0.28
   2   8 -10    3.56    0.26
  -2  -8  10    4.87    0.29
   2   8  -9    0.61    0.16
   2   8  -9    0.49    0.13
  -2  -8   9    0.98    0.17
   2   8  -8    0.03    0.08
   2   8  -8    0.01    0.07
  -2  -8   8    0.18    0.10
   2   8  -7   -0.06    0.07
   2   8  -7   -0.05    0.07
  -2  -8   7    0.07    0.09
   2   8  -6    0.01    0.11
   2   8  -6    0.15    0.08
  -2  -8   6    0.21    0.13
   2   8  -5    1.98    0.17
   2   8  -5    1.95    0.13
  -2  -8   5    2.68    0.18
   2   8  -4    0.51    0.08
   2   8  -4    0.82    0.12
  -2  -8   4    0.95    0.13
   2   8  -3    0.73    0.08
   2   8  -3    1.36    0.15
  -2  -8   3    1.10    0.13
   2   8  -2    0.10    0.09
  -2  -8   2    0.08    0.06
  -2  -8   2   -0.14    0.08
   2   8  -1    0.52    0.14
  -2  -8   1    0.42    0.10
  -2  -8   1    0.27    0.09
   2   8   0    0.47    0.13
  -2  -8   0    0.31    0.09
  -2  -8   0    0.45    0.10
   2   8   1    0.36    0.12
  -2  -8  -1    0.43    0.11
  -2  -8  -1    0.37    0.08
   2   8   2    1.04    0.15
  -2  -8  -2    1.07    0.16
  -2  -8  -2    0.77    0.11
   2   8   3    0.31    0.12
  -2  -8  -3    0.27    0.09
  -2  -8  -3    0.31    0.10
   2   8   4    3.45    0.24
  -2  -8  -4    2.84    0.19
  -2  -8  -4    2.63    0.18
   2   8   5    1.01    0.20
  -2  -8  -5    0.81    0.12
  -2  -8  -5    0.80    0.15
   2   8   6    0.16    0.12
  -2  -8  -6    0.15    0.11
  -2  -8  -6    0.08    0.10
   2   8   7    1.81    0.22
  -2  -8  -7    1.13    0.16
  -2  -8  -7    1.38    0.16
   2   8   8    0.15    0.16
  -2  -8  -8    0.20    0.12
   2   8   9    0.17    0.16
  -2  -9  13    1.66    0.25
  -2  -9  12    4.00    0.39
  -2  -9  11    1.20    0.21
   2   9 -10    0.27    0.16
  -2  -9  10    0.80    0.18
   2   9  -9    1.43    0.17
  -2  -9   9    1.54    0.25
   2   9  -8    0.68    0.17
  -2  -9   8    0.73    0.17
   2   9  -7    0.60    0.16
  -2  -9   7    0.52    0.14
   2   9  -6    0.48    0.14
  -2  -9   6    0.44    0.14
   2   9  -5    0.44    0.16
  -2  -9   5    0.67    0.13
   2   9  -4    0.15    0.10
  -2  -9   4    0.20    0.11
   2   9  -3   -0.08    0.11
  -2  -9   3   -0.04    0.10
   2   9  -2    0.31    0.13
  -2  -9   2    0.50    0.12
   2   9  -1    0.22    0.11
  -2  -9   1   -0.01    0.12
   2   9   0    1.31    0.17
  -2  -9   0    0.98    0.14
   2   9   1    0.15    0.12
  -2  -9  -1    0.43    0.14
   2   9   2    0.47    0.17
  -2  -9  -2    0.24    0.15
   2   9   3    0.74    0.18
  -2  -9  -3    0.12    0.12
   2   9   4    3.03    0.31
  -2  -9  -4    3.01    0.26
   2   9   5    3.01    0.33
  -2  -9  -5    3.09    0.23
   2   9   6    0.23    0.16
  -2  -9  -6   -0.05    0.12
   2   9   7    0.86    0.27
   2   9   8    0.07    0.19
  -2 -10  11    4.42    0.45
   2  10 -10    2.77    0.26
  -2 -10  10    4.38    0.35
   2  10  -9    0.92    0.21
  -2 -10   9    0.98    0.21
   2  10  -8    0.28    0.17
  -2 -10   8    0.36    0.19
   2  10  -7    0.67    0.20
  -2 -10   7    0.76    0.21
   2  10  -6    7.51    0.39
  -2 -10   6    8.52    0.48
   2  10  -5    0.47    0.14
  -2 -10   5    0.42    0.16
   2  10  -4    2.93    0.28
  -2 -10   4    3.31    0.26
   2  10  -3   -0.07    0.13
  -2 -10   3   -0.02    0.10
   2  10  -2    0.06    0.12
  -2 -10   2    0.19    0.11
   2  10  -1    0.03    0.14
  -2 -10   1    0.05    0.11
   2  10   0    0.05    0.12
  -2 -10   0    0.19    0.12
   2  10   1   -0.02    0.11
  -2 -10  -1   -0.06    0.13
   2  10   2    0.83    0.21
  -2 -10  -2    0.69    0.17
   2  10   3   -0.04    0.11
  -2 -10  -3   -0.05    0.11
   2  10   4    0.15    0.14
  -2 -10  -4    0.12    0.13
   2  10   5    0.80    0.22
  -2 -10  -5    1.13    0.19
   2  10   6    1.04    0.23
   2  11  -9   -0.05    0.13
  -2 -11   9    0.05    0.12
   2  11  -8    0.06    0.13
  -2 -11   8    0.29    0.16
   2  11  -7    1.81    0.27
  -2 -11   7    1.51    0.31
   2  11  -6    2.86    0.27
  -2 -11   6    2.95    0.31
   2  11  -5    0.04    0.11
  -2 -11   5   -0.03    0.12
   2  11  -4    0.09    0.16
  -2 -11   4    0.17    0.14
   2  11  -3   -0.12    0.13
  -2 -11   3    0.27    0.12
   2  11  -2    0.05    0.14
  -2 -11   2    0.14    0.12
   2  11  -1    0.19    0.14
  -2 -11   1    0.06    0.18
   2  11   0    1.70    0.22
  -2 -11   0    1.60    0.23
   2  11   1    0.22    0.16
  -2 -11  -1    0.64    0.17
   2  11   2    0.06    0.12
  -2 -11  -2   -0.08    0.14
   2  11   3    0.76    0.22
  -2 -11  -3    0.83    0.20
  -2 -12   5    0.53    0.19
   2  12  -4    0.10    0.14
  -2 -12   4   -0.05    0.16
   2  12  -3    0.10    0.14
  -2 -12   3   -0.00    0.14
   2  12  -2    0.23    0.18
  -2 -12   2    0.37    0.18
  -2 -12   1    0.72    0.27
   3 -13  -2    0.26    0.21
  -3  13   2    0.17    0.19
   3 -13  -1   -0.17    0.19
  -3  13   1    0.44    0.18
   3 -13   0    0.11    0.14
  -3  13   0   -0.10    0.13
   3 -13   1    0.25    0.20
  -3  13  -1    0.46    0.25
   3 -13   2    0.25    0.25
  -3  13  -2    0.46    0.22
   3 -13   3   -0.05    0.17
  -3  13  -3    0.28    0.18
   3 -13   4    7.23    0.57
  -3  13  -4    8.20    0.58
   3 -13   5    2.14    0.33
  -3  13  -5    2.78    0.39
   3 -13   6   10.35    0.60
  -3  13  -6   11.81    0.69
   3 -13   7    1.04    0.32
  -3  13  -7    1.27    0.31
   3 -12  -5    2.62    0.33
  -3  12   5    2.69    0.30
   3 -12  -4    0.59    0.21
  -3  12   4    0.36    0.19
   3 -12  -3    0.66    0.28
  -3  12   3    0.88    0.21
   3 -12  -2   -0.10    0.13
  -3  12   2    0.16    0.15
   3 -12  -1    0.17    0.14
  -3  12   1   -0.14    0.14
   3 -12   0    0.11    0.19
  -3  12   0    0.12    0.16
   3 -12   1    0.36    0.21
  -3  12  -1    0.66    0.20
   3 -12   2    1.09    0.26
  -3  12  -2    1.28    0.26
  -3  12  -3    0.07    0.20
   3 -12   4    1.73    0.25
  -3  12  -4    2.30    0.30
   3 -12   5    7.28    0.45
  -3  12  -5    6.89    0.49
   3 -12   6    0.15    0.16
  -3  12  -6    0.05    0.23
   3 -12   7    5.05    0.35
  -3  12  -7    4.67    0.45
   3 -12   8    0.50    0.18
  -3  12  -8    0.52    0.25
   3 -12   9   -0.05    0.13
  -3  12  -9    0.26    0.22
   3 -11  -7    2.09    0.26
  -3  11   7    1.88    0.24
   3 -11  -6    1.29    0.21
  -3  11   6    1.07    0.22
   3 -11  -5    0.15    0.15
  -3  11   5    0.12    0.14
   3 -11  -4    5.09    0.40
  -3  11   4    3.47    0.31
   3 -11  -3    0.92    0.21
  -3  11   3    0.87    0.23
   3 -11  -2    0.10    0.14
  -3  11   2    0.12    0.14
   3 -11  -1    0.75    0.17
  -3  11   1    0.36    0.18
   3 -11   0    1.29    0.21
  -3  11   0    1.09    0.21
   3 -11   1    7.17    0.39
  -3  11  -1    6.96    0.51
   3 -11   2   14.41    0.57
  -3  11  -2   14.61    0.71
   3 -11   3    0.48    0.16
  -3  11  -3    0.56    0.24
   3 -11   4    4.38    0.30
  -3  11  -4    4.30    0.38
   3 -11   5    0.89    0.17
  -3  11  -5    0.74    0.24
   3 -11   6    9.39    0.51
  -3  11  -6   11.10    0.61
   3 -11   7    0.97    0.19
  -3  11  -7    0.21    0.24
   3 -11   8    1.42    0.24
  -3  11  -8    1.48    0.30
   3 -11   9    0.08    0.12
  -3  11  -9   -0.03    0.18
   3 -11  10    0.70    0.17
  -3  11 -10    0.49    0.27
   3 -11  11    0.06    0.13
  -3  11 -11   -0.01    0.19
   3 -10  -9    0.71    0.23
  -3  10   9    0.67    0.18
   3 -10  -8   -0.05    0.15
  -3  10   8    0.07    0.11
   3 -10  -7    1.29    0.25
  -3  10   7    1.14    0.23
   3 -10  -6    7.73    0.48
  -3  10   6    8.29    0.45
   3 -10  -5   11.28    0.58
  -3  10   5   10.90    0.47
   3 -10  -4    0.30    0.18
  -3  10   4    0.34    0.14
   3 -10  -3    0.78    0.20
  -3  10   3    0.26    0.16
   3 -10  -2    5.21    0.36
  -3  10   2    4.11    0.29
   3 -10  -1    0.03    0.10
  -3  10   1   -0.07    0.11
   3 -10   0    0.42    0.15
  -3  10   0    0.65    0.17
   3 -10   1    4.76    0.33
  -3  10  -1    3.84    0.31
   3 -10   2   14.72    0.53
  -3  10  -2   14.38    0.59
   3 -10   3   -0.14    0.10
  -3  10  -3    0.18    0.13
   3 -10   4   -0.01    0.10
  -3  10  -4   -0.06    0.13
   3 -10   5   29.62    0.87
  -3  10  -5   30.42    1.11
   3 -10   6    0.95    0.15
  -3  10  -6    0.81    0.22
   3 -10   7    1.54    0.18
  -3  10  -7    1.44    0.26
   3 -10   8   -0.08    0.09
  -3  10  -8    0.19    0.13
   3 -10   9    0.78    0.15
  -3  10  -9    0.30    0.29
   3 -10  10    0.93    0.18
  -3  10 -10    1.14    0.26
   3 -10  11    4.46    0.31
  -3  10 -11    4.61    0.42
   3 -10  12    0.09    0.13
  -3  10 -12    0.16    0.21
   3  -9 -10    0.64    0.19
  -3   9  10    0.48    0.19
   3  -9  -9    0.50    0.16
  -3   9   9    0.33    0.14
   3  -9  -8    1.28    0.22
  -3   9   8    0.76    0.19
   3  -9  -7    1.90    0.25
  -3   9   7    1.40    0.18
   3  -9  -6   31.57    0.92
  -3   9   6   31.43    0.87
   3  -9  -5    8.95    0.41
  -3   9   5    8.75    0.41
   3  -9  -4    0.91    0.15
  -3   9   4    0.48    0.15
   3  -9  -3    0.99    0.19
  -3   9   3    0.90    0.18
   3  -9  -2    2.96    0.22
  -3   9   2    2.60    0.21
   3  -9  -1    9.67    0.38
  -3   9   1   10.36    0.43
   3  -9   0    0.27    0.12
  -3   9   0    0.32    0.15
   3  -9   1    1.47    0.20
  -3   9  -1    1.13    0.18
   3  -9   2    4.22    0.24
  -3   9  -2    3.97    0.30
   3  -9   3    0.83    0.17
  -3   9  -3    0.71    0.16
   3  -9   4    0.55    0.12
  -3   9  -4    0.35    0.17
   3  -9   5    1.81    0.17
  -3   9  -5    2.38    0.23
   3  -9   6    2.70    0.19
  -3   9  -6    3.46    0.30
   3  -9   7    2.29    0.18
  -3   9  -7    2.33    0.27
   3  -9   8    0.63    0.13
  -3   9  -8    0.50    0.24
   3  -9   9    5.32    0.32
  -3   9  -9    5.10    0.40
   3  -9  10    0.09    0.10
  -3   9 -10    0.05    0.21
   3  -9  11    0.66    0.15
  -3   9 -11    0.45    0.29
   3  -9  12    0.15    0.12
  -3   9 -12    0.23    0.24
   3  -9  13    0.03    0.14
  -3   9 -13    0.19    0.20
  -3   8  12    0.72    0.30
   3  -8 -11   -0.01    0.12
   3  -8 -11    0.13    0.12
  -3   8  11    0.04    0.11
   3  -8 -10    1.73    0.20
   3  -8 -10    2.08    0.26
  -3   8  10    1.82    0.19
   3  -8  -9    0.05    0.13
   3  -8  -9    0.11    0.09
  -3   8   9   -0.10    0.11
   3  -8  -8   -0.11    0.09
   3  -8  -8   -0.02    0.07
  -3   8   8    0.14    0.09
   3  -8  -7    4.90    0.22
   3  -8  -7    5.49    0.29
  -3   8   7    5.82    0.29
   3  -8  -6    0.03    0.06
   3  -8  -6    0.03    0.12
  -3   8   6    0.06    0.09
   3  -8  -5    0.38    0.11
  -3   8   5    0.19    0.10
   3  -8  -4    4.28    0.27
  -3   8   4    3.81    0.22
   3  -8  -3    2.43    0.20
  -3   8   3    2.46    0.18
   3  -8  -2    4.05    0.22
  -3   8   2    3.58    0.23
   3  -8  -1   -0.02    0.07
  -3   8   1    0.02    0.07
   3  -8   0    5.35    0.24
  -3   8   0    5.36    0.31
   3  -8   1    5.82    0.25
  -3   8  -1    5.15    0.28
   3  -8   2    0.14    0.09
  -3   8  -2    0.33    0.12
   3  -8   3    0.15    0.08
  -3   8  -3    0.12    0.12
   3  -8   4    3.20    0.21
  -3   8  -4    3.27    0.31
   3  -8   5    7.66    0.28
  -3   8  -5    7.18    0.37
   3  -8   6    2.22    0.15
  -3   8  -6    2.62    0.30
   3  -8   7    5.25    0.23
  -3   8  -7    4.57    0.33
   3  -8   8    1.80    0.18
  -3   8  -8    1.37    0.11
  -3   8  -8    1.66    0.23
   3  -8   9    1.17    0.17
  -3   8  -9    1.15    0.12
  -3   8  -9    1.25    0.28
   3  -8  10    0.09    0.09
  -3   8 -10    0.18    0.16
  -3   8 -10    0.06    0.09
   3  -8  11    1.99    0.17
  -3   8 -11    1.72    0.17
  -3   8 -11    1.70    0.30
   3  -8  12    0.32    0.12
  -3   8 -12   -0.12    0.14
  -3   8 -12    0.52    0.11
   3  -8  13    0.01    0.12
  -3   8 -13   -0.11    0.10
   3  -8  14   -0.00    0.13
  -3   8 -14   -0.04    0.10
   3  -7 -13    0.34    0.18
  -3   7  13    0.17    0.24
   3  -7 -12    0.90    0.17
  -3   7  12    1.05    0.30
   3  -7 -11    0.27    0.15
  -3   7  11    0.34    0.14
   3  -7 -10    0.82    0.15
   3  -7 -10    0.57    0.14
  -3   7  10    0.33    0.14
   3  -7  -9    0.72    0.15
   3  -7  -9    1.03    0.16
  -3   7   9    0.78    0.15
   3  -7  -8    0.76    0.10
   3  -7  -8    0.82    0.18
  -3   7   8    0.77    0.12
   3  -7  -7    0.09    0.08
   3  -7  -7    0.04    0.07
  -3   7   7   -0.07    0.09
   3  -7  -6   -0.05    0.06
   3  -7  -6   -0.01    0.10
  -3   7   6   -0.08    0.07
   3  -7  -5    1.62    0.14
   3  -7  -5    1.41    0.09
  -3   7   5    1.46    0.14
   3  -7  -4    1.15    0.14
   3  -7  -4    1.23    0.08
  -3   7   4    1.46    0.13
   3  -7  -3    0.22    0.11
   3  -7  -3    0.21    0.04
  -3   7   3    0.30    0.10
   3  -7  -2    8.59    0.30
  -3   7   2    9.57    0.32
   3  -7  -1   10.84    0.33
  -3   7   1   10.25    0.35
   3  -7   0    0.23    0.07
  -3   7   0   -0.05    0.09
   3  -7   1    0.35    0.09
  -3   7  -1    0.67    0.12
   3  -7   2    0.33    0.08
  -3   7  -2    0.31    0.11
   3  -7   3    4.33    0.18
  -3   7  -3    3.76    0.24
   3  -7   4    0.00    0.06
  -3   7  -4    0.18    0.10
   3  -7   5    2.14    0.13
  -3   7  -5    2.78    0.20
  -3   7  -5    2.14    0.08
   3  -7   6    0.57    0.09
  -3   7  -6    0.70    0.15
  -3   7  -6    0.56    0.06
   3  -7   7    2.89    0.15
  -3   7  -7    2.91    0.13
   3  -7   8    5.20    0.28
   3  -7   8    5.52    0.24
  -3   7  -8    5.53    0.20
   3  -7   9    2.24    0.18
   3  -7   9    1.87    0.16
  -3   7  -9    1.97    0.15
   3  -7  10    6.54    0.31
   3  -7  10    6.31    0.25
  -3   7 -10    6.39    0.27
   3  -7  11    0.50    0.14
   3  -7  11    0.50    0.10
  -3   7 -11    0.73    0.14
   3  -7  12    0.07    0.13
   3  -7  12   -0.12    0.08
  -3   7 -12   -0.03    0.09
   3  -7  13    0.58    0.16
   3  -7  13    0.36    0.14
  -3   7 -13    0.65    0.16
   3  -7  14    0.36    0.18
  -3   7 -14    0.19    0.13
   3  -7  15   -0.14    0.13
  -3   7 -15    0.08    0.10
   3  -6 -13    0.19    0.15
  -3   6  13   -0.14    0.18
   3  -6 -12   -0.05    0.10
  -3   6  12    0.22    0.17
  -3   6  12    0.05    0.11
   3  -6 -11   -0.02    0.11
  -3   6  11    0.00    0.07
  -3   6  11    0.28    0.15
   3  -6 -10    3.33    0.24
   3  -6 -10    3.83    0.21
  -3   6  10    3.42    0.21
   3  -6  -9    1.06    0.13
   3  -6  -9    0.99    0.15
  -3   6   9    1.30    0.12
   3  -6  -8   -0.02    0.09
   3  -6  -8    0.32    0.12
  -3   6   8    0.20    0.07
   3  -6  -7    1.03    0.09
   3  -6  -7    0.91    0.13
  -3   6   7    0.97    0.10
   3  -6  -6    0.07    0.06
   3  -6  -6    0.26    0.10
  -3   6   6    0.14    0.08
   3  -6  -5    2.10    0.14
   3  -6  -5    2.19    0.10
  -3   6   5    2.53    0.13
   3  -6  -4    3.37    0.17
   3  -6  -4    3.48    0.12
  -3   6   4    3.88    0.18
   3  -6  -3    2.34    0.15
  -3   6   3    2.61    0.14
   3  -6  -2    1.25    0.12
  -3   6   2    0.91    0.10
   3  -6  -1   33.08    0.65
  -3   6   1   33.68    0.71
   3  -6   0    9.20    0.25
  -3   6   0   10.37    0.34
   3  -6   1    3.29    0.14
  -3   6  -1    3.42    0.19
   3  -6   2    1.19    0.09
  -3   6  -2    1.02    0.03
  -3   6  -2    1.18    0.13
   3  -6   3    1.70    0.10
  -3   6  -3    1.39    0.16
  -3   6  -3    1.51    0.05
   3  -6   4   49.38    0.80
  -3   6  -4   49.74    1.10
  -3   6  -4   47.81    0.56
   3  -6   5    4.54    0.20
   3  -6   5    4.65    0.16
  -3   6  -5    4.64    0.13
   3  -6   6    0.61    0.09
   3  -6   6    0.65    0.09
  -3   6  -6    0.53    0.07
   3  -6   7   11.25    0.30
   3  -6   7   10.82    0.35
  -3   6  -7   10.93    0.28
   3  -6   8    6.97    0.24
   3  -6   8    7.30    0.28
  -3   6  -8    7.17    0.22
   3  -6   9    0.22    0.10
   3  -6   9    0.04    0.06
  -3   6  -9   -0.05    0.06
   3  -6  10    5.95    0.29
   3  -6  10    5.41    0.21
  -3   6 -10    5.63    0.23
   3  -6  11   12.96    0.46
   3  -6  11   11.82    0.37
  -3   6 -11   11.80    0.42
   3  -6  12    0.09    0.09
   3  -6  12   -0.00    0.06
  -3   6 -12   -0.08    0.09
   3  -6  13    0.05    0.11
   3  -6  13    0.11    0.09
  -3   6 -13   -0.07    0.09
   3  -6  14    0.18    0.12
  -3   6 -14   -0.05    0.11
   3  -6  15    0.97    0.20
  -3   6 -15    0.70    0.18
   3  -5 -14    0.38    0.20
  -3   5  14    0.41    0.24
   3  -5 -13   -0.08    0.11
  -3   5  13    0.11    0.16
   3  -5 -12    0.02    0.10
  -3   5  12   -0.07    0.19
  -3   5  12    0.08    0.08
   3  -5 -11    0.04    0.10
  -3   5  11   -0.07    0.16
  -3   5  11   -0.02    0.06
   3  -5 -10    2.56    0.22
  -3   5  10    2.29    0.27
  -3   5  10    2.42    0.14
   3  -5  -9   10.25    0.35
   3  -5  -9    9.59    0.34
  -3   5   9    8.95    0.27
   3  -5  -8    0.09    0.06
   3  -5  -8    0.15    0.10
  -3   5   8   -0.04    0.07
   3  -5  -7    3.91    0.19
   3  -5  -7    4.20    0.16
  -3   5   7    3.72    0.17
   3  -5  -6    0.02    0.05
   3  -5  -6    0.10    0.08
  -3   5   6    0.07    0.06
   3  -5  -5   15.60    0.39
   3  -5  -5   15.90    0.31
  -3   5   5   16.08    0.35
   3  -5  -4    0.18    0.04
   3  -5  -4    0.25    0.07
  -3   5   4    0.01    0.05
   3  -5  -3    9.10    0.25
   3  -5  -3    8.86    0.17
  -3   5   3    8.99    0.24
   3  -5  -2    0.68    0.09
   3  -5  -2    0.87    0.05
  -3   5   2    0.75    0.08
   3  -5  -1   19.65    0.23
   3  -5  -1   20.61    0.41
  -3   5   1   20.16    0.44
   3  -5   0    6.80    0.09
   3  -5   0    7.00    0.19
  -3   5   0    7.30    0.24
   3  -5   1    0.15    0.06
  -3   5  -1    0.18    0.08
  -3   5  -1    0.24    0.03
   3  -5   2    4.30    0.13
  -3   5  -2    4.06    0.19
   3  -5   3    5.80    0.19
   3  -5   3    6.08    0.16
  -3   5  -3    5.93    0.12
   3  -5   4   11.54    0.30
   3  -5   4   11.42    0.23
  -3   5  -4   11.48    0.21
   3  -5   5    6.15    0.22
   3  -5   5    6.48    0.17
  -3   5  -5    6.30    0.15
   3  -5   6    0.67    0.10
   3  -5   6    0.78    0.07
  -3   5  -6    0.81    0.08
   3  -5   7    0.15    0.08
   3  -5   7   -0.01    0.05
  -3   5  -7    0.03    0.06
   3  -5   8    0.30    0.07
   3  -5   8    0.40    0.09
  -3   5  -8    0.20    0.09
   3  -5   9    0.76    0.07
   3  -5   9    0.71    0.12
  -3   5  -9    0.63    0.09
   3  -5  10    1.85    0.16
   3  -5  10    1.62    0.12
  -3   5 -10    1.73    0.15
   3  -5  11    0.29    0.12
   3  -5  11    0.20    0.07
  -3   5 -11    0.32    0.12
   3  -5  12    0.77    0.15
   3  -5  12    0.52    0.11
  -3   5 -12    0.72    0.16
   3  -5  13   -0.01    0.10
   3  -5  13    0.08    0.08
  -3   5 -13   -0.09    0.11
   3  -5  14    0.43    0.15
  -3   5 -14    0.63    0.15
   3  -5  15    4.81    0.38
  -3   5 -15    4.37    0.33
   3  -4 -15    3.40    0.34
  -3   4  15    4.34    0.41
   3  -4 -14    5.46    0.35
  -3   4  14    5.36    0.48
   3  -4 -13    0.17    0.16
  -3   4  13    0.19    0.18
   3  -4 -12    1.81    0.19
  -3   4  12    2.09    0.33
   3  -4 -11   23.48    0.68
  -3   4  11   22.97    0.81
  -3   4  11   20.15    0.50
   3  -4 -10    0.90    0.13
  -3   4  10    1.03    0.18
  -3   4  10    0.72    0.10
   3  -4  -9    2.02    0.17
  -3   4   9    2.13    0.13
  -3   4   9    2.29    0.28
   3  -4  -8    0.77    0.13
   3  -4  -8    0.71    0.10
  -3   4   8    0.74    0.08
   3  -4  -7   13.50    0.34
   3  -4  -7   13.13    0.36
  -3   4   7   13.08    0.27
   3  -4  -6    0.65    0.08
   3  -4  -6    0.53    0.09
  -3   4   6    0.57    0.07
   3  -4  -5   -0.00    0.04
   3  -4  -5    0.02    0.05
  -3   4   5    0.03    0.04
   3  -4  -4    2.26    0.12
   3  -4  -4    2.35    0.09
  -3   4   4    2.07    0.10
   3  -4  -3   35.40    0.59
   3  -4  -3   34.54    0.45
  -3   4   3   35.54    0.57
   3  -4  -2    2.38    0.11
   3  -4  -2    2.58    0.07
  -3   4   2    2.28    0.13
   3  -4  -1   42.49    0.45
   3  -4  -1   42.57    0.64
  -3   4   1   42.91    0.72
   3  -4   0   40.11    0.40
   3  -4   0   41.15    0.60
  -3   4   0   40.45    0.71
   3  -4   1  134.94    1.61
   3  -4   1  135.40    1.51
  -3   4  -1  134.41    1.37
   3  -4   2   10.53    0.20
   3  -4   2   10.75    0.24
  -3   4  -2   10.69    0.20
   3  -4   3   19.99    0.38
   3  -4   3   20.08    0.31
  -3   4  -3   20.19    0.32
   3  -4   4    0.08    0.05
   3  -4   4    0.04    0.04
  -3   4  -4    0.08    0.03
   3  -4   5    3.65    0.17
   3  -4   5    3.38    0.11
  -3   4  -5    3.38    0.11
   3  -4   6    2.86    0.14
   3  -4   6    2.68    0.10
  -3   4  -6    2.29    0.13
   3  -4   7   18.63    0.44
   3  -4   7   17.72    0.30
  -3   4  -7   17.74    0.38
   3  -4   8    4.26    0.19
   3  -4   8    4.28    0.13
  -3   4  -8    4.56    0.20
   3  -4   9    5.97    0.27
   3  -4   9    5.81    0.17
  -3   4  -9    5.56    0.24
   3  -4  10    0.04    0.09
   3  -4  10   -0.00    0.05
  -3   4 -10    0.08    0.09
   3  -4  11    5.63    0.30
   3  -4  11    5.27    0.18
  -3   4 -11    5.68    0.25
   3  -4  12    0.06    0.10
   3  -4  12    0.14    0.07
  -3   4 -12    0.18    0.13
   3  -4  13    2.00    0.23
  -3   4 -13    2.20    0.20
   3  -4  14    1.46    0.23
  -3   4 -14    1.19    0.19
   3  -4  15    1.73    0.29
  -3   4 -15    2.71    0.24
   3  -4  16   -0.10    0.14
   3  -3 -15    2.67    0.28
  -3   3  15    2.49    0.33
   3  -3 -14    0.01    0.12
  -3   3  14    0.26    0.19
   3  -3 -13    0.25    0.16
  -3   3  13    0.13    0.19
   3  -3 -12    0.03    0.10
  -3   3  12    0.17    0.14
   3  -3 -11    2.95    0.20
  -3   3  11    3.71    0.29
  -3   3  11    2.86    0.14
   3  -3 -10    0.09    0.09
  -3   3  10    0.12    0.16
  -3   3  10    0.14    0.06
   3  -3  -9    3.17    0.17
  -3   3   9    2.91    0.24
  -3   3   9    2.76    0.11
   3  -3  -8    0.36    0.08
  -3   3   8    0.44    0.16
  -3   3   8    0.37    0.06
   3  -3  -7   13.55    0.32
  -3   3   7   13.29    0.24
  -3   3   7   13.65    0.45
   3  -3  -6    5.36    0.16
   3  -3  -6    4.95    0.17
  -3   3   6    4.58    0.12
   3  -3  -5   16.90    0.36
   3  -3  -5   16.96    0.31
  -3   3   5   16.54    0.26
   3  -3  -4    0.45    0.07
   3  -3  -4    0.31    0.05
  -3   3   4    0.39    0.05
   3  -3  -3    8.79    0.22
   3  -3  -3    9.36    0.18
  -3   3   3    9.42    0.19
   3  -3  -2    0.23    0.04
   3  -3  -2    0.09    0.04
  -3   3   2    0.10    0.04
   3  -3  -1    3.01    0.11
   3  -3  -1    3.01    0.08
  -3   3   1    3.20    0.11
   3  -3   0   18.58    0.29
   3  -3   0   18.76    0.29
   3  -3   0   19.15    0.24
   3  -3   1    0.21    0.05
   3  -3   1    0.20    0.04
  -3   3  -1    0.33    0.04
   3  -3   2   12.42    0.25
   3  -3   2   12.45    0.19
  -3   3  -2   11.69    0.22
   3  -3   3    5.95    0.17
   3  -3   3    6.33    0.12
  -3   3  -3    6.01    0.16
   3  -3   4   10.61    0.24
   3  -3   4   10.21    0.15
  -3   3  -4   10.52    0.22
   3  -3   5    0.83    0.05
   3  -3   5    0.76    0.08
  -3   3  -5    0.64    0.08
   3  -3   6   12.92    0.20
   3  -3   6   13.32    0.33
  -3   3  -6   13.65    0.31
   3  -3   7    3.67    0.10
   3  -3   7    3.58    0.17
  -3   3  -7    3.98    0.15
   3  -3   8    0.31    0.05
   3  -3   8    0.41    0.09
  -3   3  -8    0.48    0.08
   3  -3   9    0.02    0.04
   3  -3   9    0.06    0.07
  -3   3  -9   -0.03    0.07
   3  -3  10    0.90    0.08
   3  -3  10    1.48    0.16
  -3   3 -10    1.17    0.13
   3  -3  11    0.31    0.10
   3  -3  11    0.16    0.06
  -3   3 -11    0.40    0.10
   3  -3  12    3.10    0.21
  -3   3 -12    2.63    0.22
   3  -3  13    0.05    0.10
  -3   3 -13    0.01    0.12
   3  -3  14    0.59    0.15
  -3   3 -14    0.33    0.15
   3  -3  15    1.18    0.24
  -3   3 -15    0.88    0.20
   3  -3  16    0.60    0.22
   3  -2 -16    0.97    0.26
  -3   2  16    0.87    0.24
   3  -2 -15   -0.02    0.14
  -3   2  15    0.01    0.13
   3  -2 -14    2.68    0.25
  -3   2  14    2.77    0.31
   3  -2 -13    2.10    0.21
  -3   2  13    1.97    0.25
   3  -2 -12    2.46    0.21
  -3   2  12    2.57    0.26
   3  -2 -11    0.85    0.16
  -3   2  11    0.58    0.20
   3  -2 -10    5.08    0.22
  -3   2  10    4.85    0.32
  -3   2  10    4.01    0.13
   3  -2  -9    0.10    0.06
  -3   2   9   -0.19    0.11
  -3   2   9   -0.01    0.03
   3  -2  -8    0.37    0.08
  -3   2   8    0.39    0.14
  -3   2   8    0.24    0.04
   3  -2  -7    9.84    0.26
  -3   2   7   10.17    0.35
  -3   2   7    9.46    0.17
   3  -2  -6    0.10    0.05
  -3   2   6   -0.02    0.07
  -3   2   6    0.06    0.03
   3  -2  -5    7.17    0.18
  -3   2   5    7.32    0.27
  -3   2   5    7.04    0.11
   3  -2  -4   84.36    1.04
   3  -2  -4   84.90    1.11
  -3   2   4   86.29    0.77
   3  -2  -3    0.76    0.06
   3  -2  -3    0.94    0.06
  -3   2   3    0.83    0.04
   3  -2  -2   18.48    0.27
   3  -2  -2   17.93    0.30
  -3   2   2   18.08    0.26
   3  -2  -1   68.50    0.75
   3  -2  -1   67.18    0.73
   3  -2  -1   67.70    0.68
   3  -2   0   54.59    0.62
   3  -2   0   55.20    0.60
   3  -2   0   54.94    0.60
   3  -2   1    2.35    0.07
   3  -2   1    2.09    0.09
   3  -2   1    2.10    0.06
   3  -2   2   27.31    0.29
   3  -2   2   26.26    0.40
  -3   2  -2   26.84    0.44
   3  -2   3    7.28    0.10
   3  -2   3    7.09    0.17
  -3   2  -3    7.81    0.19
   3  -2   4    6.80    0.18
  -3   2  -4    6.78    0.18
   3  -2   5   40.17    0.37
   3  -2   5   40.19    0.66
  -3   2  -5   41.32    0.68
   3  -2   6  123.44    1.01
   3  -2   6  126.36    1.77
  -3   2  -6  128.65    1.78
   3  -2   7    2.07    0.06
   3  -2   7    2.44    0.13
  -3   2  -7    2.53    0.13
   3  -2   8    1.76    0.06
   3  -2   8    1.97    0.13
  -3   2  -8    1.71    0.13
   3  -2   9    1.87    0.07
   3  -2   9    1.93    0.14
  -3   2  -9    2.10    0.14
   3  -2  10    9.52    0.22
   3  -2  10   10.66    0.35
  -3   2 -10   11.49    0.37
   3  -2  11    0.10    0.09
  -3   2 -11   -0.03    0.09
   3  -2  12    1.25    0.16
  -3   2 -12    1.58    0.18
   3  -2  13    3.97    0.30
  -3   2 -13    3.15    0.30
   3  -2  14    0.07    0.11
  -3   2 -14   -0.03    0.11
   3  -2  15    0.75    0.18
  -3   2 -15    0.48    0.19
   3  -1 -16    0.11    0.19
  -3   1  16    0.69    0.20
   3  -1 -15    0.80    0.25
  -3   1  15    1.17    0.26
   3  -1 -14    0.24    0.13
  -3   1  14    0.07    0.16
   3  -1 -13    2.15    0.20
  -3   1  13    2.11    0.25
   3  -1 -12    1.28    0.16
  -3   1  12    1.23    0.20
   3  -1 -11    0.21    0.11
  -3   1  11    0.44    0.16
   3  -1 -10    0.22    0.09
  -3   1  10    0.10    0.12
   3  -1  -9    2.04    0.15
  -3   1   9    1.89    0.23
   3  -1  -8    2.29    0.14
  -3   1   8    2.75    0.18
   3  -1  -7    3.29    0.14
  -3   1   7    3.24    0.19
   3  -1  -6    1.67    0.10
  -3   1   6    1.95    0.14
   3  -1  -5    8.19    0.19
  -3   1   5    8.03    0.26
   3  -1  -4   25.08    0.41
  -3   1   4   24.51    0.53
   3  -1  -3    1.79    0.09
  -3   1   3    1.59    0.10
   3  -1  -2    8.85    0.11
   3  -1  -2    8.87    0.17
  -3   1   2    8.63    0.23
   3  -1  -1    0.50    0.04
   3  -1  -1    0.55    0.03
  -3   1   1    0.36    0.05
   3  -1   0   11.43    0.15
   3  -1   0   11.43    0.18
   3  -1   0   11.30    0.19
   3  -1   1   15.29    0.16
   3  -1   1   15.81    0.24
   3  -1   1   16.38    0.24
   3  -1   2   11.31    0.21
  -3   1  -2   11.50    0.26
   3  -1   3   72.25    0.91
  -3   1  -3   71.07    1.04
   3  -1   4   24.14    0.42
  -3   1  -4   25.04    0.47
   3  -1   5  102.05    1.41
  -3   1  -5  103.73    1.50
   3  -1   6    0.16    0.02
   3  -1   6    0.23    0.06
  -3   1  -6    0.18    0.07
   3  -1   7    4.79    0.18
  -3   1  -7    4.09    0.18
   3  -1   8   16.67    0.42
  -3   1  -8   15.56    0.41
   3  -1   9    1.83    0.15
  -3   1  -9    1.85    0.15
   3  -1  10    4.23    0.26
  -3   1 -10    4.13    0.23
   3  -1  11    2.49    0.20
  -3   1 -11    3.22    0.24
   3  -1  12    4.77    0.28
  -3   1 -12    5.09    0.28
   3  -1  13    4.05    0.31
  -3   1 -13    3.77    0.29
   3  -1  14    0.17    0.16
  -3   1 -14    0.19    0.14
   3  -1  15    0.07    0.18
  -3   1 -15    0.36    0.20
   3   0 -16    0.24    0.18
  -3   0  16    0.15    0.21
   3   0 -15    0.54    0.22
  -3   0  15    0.35    0.18
   3   0 -14    1.78    0.22
  -3   0  14    1.54    0.23
   3   0 -13    0.08    0.12
  -3   0  13    0.14    0.14
   3   0 -12    8.37    0.41
  -3   0  12    8.49    0.41
   3   0 -11    1.43    0.16
  -3   0  11    1.07    0.17
   3   0 -10    0.34    0.10
  -3   0  10    0.19    0.11
   3   0  -9    1.32    0.13
  -3   0   9    1.73    0.16
   3   0  -8   18.17    0.42
  -3   0   8   18.62    0.54
   3   0  -7    0.75    0.08
  -3   0   7    0.68    0.11
   3   0  -6   40.06    0.67
  -3   0   6   41.01    0.80
   3   0  -5   44.84    0.70
  -3   0   5   46.32    0.83
   3   0  -4    0.15    0.05
  -3   0   4    0.19    0.06
   3   0  -3    0.96    0.07
  -3   0   3    0.99    0.08
   3   0  -2    2.80    0.10
   3   0  -2    2.60    0.05
  -3   0   2    2.77    0.10
   3   0  -1    1.14    0.04
   3   0  -1    1.23    0.06
  -3   0   1    1.06    0.07
   3   0   0    2.45    0.07
   3   0   0    2.39    0.08
  -3   0   0    2.57    0.07
   3   0   1    1.52    0.07
   3   0   1    1.74    0.06
  -3   0  -1    1.61    0.05
   3   0   2    0.07    0.04
  -3   0  -2    0.18    0.07
   3   0   3   26.35    0.42
  -3   0  -3   26.62    0.52
   3   0   4    5.03    0.15
  -3   0  -4    4.48    0.17
  -3   0  -5   38.14    0.75
   3   0   6    5.51    0.22
  -3   0  -6    4.74    0.18
   3   0   7   11.25    0.31
  -3   0  -7   10.79    0.32
   3   0   8    4.31    0.20
  -3   0  -8    4.33    0.21
   3   0   9    8.73    0.31
  -3   0  -9    8.50    0.35
   3   0  10    0.53    0.12
  -3   0 -10    0.92    0.14
   3   0  11    1.09    0.15
  -3   0 -11    1.09    0.16
   3   0  12    1.61    0.20
  -3   0 -12    1.50    0.22
   3   0  13    0.22    0.15
  -3   0 -13    0.56    0.15
   3   0  14    0.06    0.16
  -3   0 -14    0.07    0.13
   3   0  15    4.77    0.41
  -3   0 -15    4.26    0.37
   3   1 -16    0.44    0.19
  -3  -1  16    0.25    0.18
   3   1 -15    3.42    0.30
  -3  -1  15    3.51    0.31
   3   1 -14    0.28    0.14
  -3  -1  14    0.04    0.14
   3   1 -13    0.41    0.17
  -3  -1  13    0.20    0.14
   3   1 -12    0.58    0.15
  -3  -1  12    0.66    0.16
   3   1 -11   26.08    0.69
  -3  -1  11   25.99    0.75
   3   1 -10    0.03    0.08
  -3  -1  10    0.17    0.10
   3   1  -9    1.35    0.12
  -3  -1   9    1.39    0.15
   3   1  -8    3.20    0.16
  -3  -1   8    3.85    0.19
   3   1  -7    3.00    0.14
  -3  -1   7    3.03    0.16
   3   1  -6    3.13    0.13
  -3  -1   6    2.87    0.15
   3   1  -5   49.48    0.76
  -3  -1   5   48.58    0.82
   3   1  -4    5.13    0.14
  -3  -1   4    4.77    0.16
   3   1  -3   12.70    0.24
   3   1  -3   12.19    0.13
  -3  -1   3   13.06    0.26
   3   1  -2    0.08    0.02
   3   1  -2    0.09    0.04
  -3  -1   2   -0.03    0.04
   3   1  -1    1.53    0.05
   3   1  -1    1.72    0.07
  -3  -1   1    1.61    0.06
   3   1   0   13.29    0.23
   3   1   0   13.65    0.21
  -3  -1   0   13.75    0.20
   3   1   1    0.97    0.06
   3   1   1    1.20    0.07
  -3  -1  -1    0.85    0.04
   3   1   2    0.04    0.04
  -3  -1  -2    0.06    0.02
  -3  -1  -2    0.02    0.06
   3   1   3   14.73    0.29
  -3  -1  -3   15.48    0.37
   3   1   4    3.70    0.13
  -3  -1  -4    3.52    0.16
   3   1   5   -0.01    0.05
  -3  -1  -5   -0.01    0.06
   3   1   6    0.84    0.10
  -3  -1  -6    0.90    0.11
   3   1   7    0.50    0.09
  -3  -1  -7    0.76    0.13
   3   1   8    0.31    0.10
  -3  -1  -8    0.21    0.10
   3   1   9   10.27    0.39
  -3  -1  -9    9.54    0.35
   3   1  10   28.33    0.77
  -3  -1 -10   28.13    0.79
   3   1  11    0.46    0.15
  -3  -1 -11    0.48    0.14
   3   1  12    0.72    0.18
  -3  -1 -12    1.23    0.17
   3   1  13    0.15    0.12
  -3  -1 -13    0.05    0.14
   3   1  14   -0.09    0.14
  -3  -1 -14    0.05    0.12
   3   1  15    0.24    0.17
  -3  -1 -15    0.18    0.22
   3   2 -16    0.04    0.24
  -3  -2  16    0.60    0.18
   3   2 -15    3.36    0.31
  -3  -2  15    3.49    0.35
   3   2 -14    1.78    0.23
  -3  -2  14    1.84    0.24
   3   2 -13   -0.04    0.12
  -3  -2  13    0.24    0.13
   3   2 -12    0.60    0.12
  -3  -2  12    0.06    0.13
   3   2 -11   16.63    0.51
  -3  -2  11   16.88    0.55
   3   2 -10    8.70    0.31
  -3  -2  10    8.41    0.35
   3   2  -9    0.54    0.10
  -3  -2   9    0.69    0.15
   3   2  -8    1.30    0.13
  -3  -2   8    1.39    0.14
   3   2  -7    2.85    0.15
  -3  -2   7    2.44    0.15
   3   2  -6   42.37    0.39
   3   2  -6   45.60    0.79
  -3  -2   6   43.97    0.80
   3   2  -5    1.51    0.04
   3   2  -5    1.68    0.10
  -3  -2   5    1.84    0.12
   3   2  -4    0.07    0.05
  -3  -2   4   -0.00    0.05
   3   2  -3    0.47    0.04
   3   2  -3    0.38    0.06
  -3  -2   3    0.47    0.06
   3   2  -2    4.91    0.11
   3   2  -2    4.57    0.14
  -3  -2   2    5.23    0.13
   3   2  -1    0.53    0.05
   3   2  -1    0.47    0.05
  -3  -2   1    0.55    0.05
   3   2   0   28.68    0.44
   3   2   0   28.31    0.41
  -3  -2   0   27.90    0.35
   3   2   1    3.21    0.11
  -3  -2  -1    2.62    0.07
  -3  -2  -1    3.02    0.14
   3   2   2    0.25    0.05
  -3  -2  -2    0.28    0.08
  -3  -2  -2    0.17    0.03
   3   2   3    1.86    0.10
  -3  -2  -3    1.57    0.12
   3   2   4    3.34    0.14
  -3  -2  -4    2.98    0.07
  -3  -2  -4    2.92    0.16
   3   2   5    1.07    0.12
  -3  -2  -5    0.84    0.04
  -3  -2  -5    1.18    0.11
   3   2   6    1.56    0.12
  -3  -2  -6    1.62    0.14
   3   2   7    0.70    0.11
  -3  -2  -7    0.52    0.14
   3   2   8    9.95    0.34
  -3  -2  -8    9.27    0.35
   3   2   9   -0.05    0.08
  -3  -2  -9    0.02    0.09
   3   2  10   17.00    0.57
  -3  -2 -10   16.81    0.56
   3   2  11    1.14    0.22
  -3  -2 -11    1.29    0.20
   3   2  12    1.30    0.20
  -3  -2 -12    1.23    0.19
   3   2  13    1.75    0.24
  -3  -2 -13    2.09    0.23
   3   2  14   -0.03    0.17
  -3  -2 -14   -0.05    0.14
   3   3 -16   -0.03    0.15
  -3  -3  16   -0.00    0.13
   3   3 -15    0.57    0.26
  -3  -3  15    1.01    0.24
   3   3 -14    1.02    0.25
  -3  -3  14    1.19    0.20
   3   3 -13    5.37    0.32
  -3  -3  13    4.59    0.29
   3   3 -12    0.23    0.12
  -3  -3  12    0.09    0.16
   3   3 -11   12.60    0.44
  -3  -3  11   11.46    0.44
   3   3 -10    4.78    0.24
  -3  -3  10    4.64    0.24
   3   3  -9    0.14    0.07
  -3  -3   9   -0.09    0.09
   3   3  -8    5.70    0.13
   3   3  -8    6.56    0.23
  -3  -3   8    6.57    0.24
   3   3  -7    5.03    0.19
   3   3  -7    4.56    0.11
  -3  -3   7    5.68    0.21
   3   3  -6    5.74    0.12
   3   3  -6    6.00    0.22
  -3  -3   6    6.40    0.22
   3   3  -5    6.11    0.13
   3   3  -5    6.13    0.19
  -3  -3   5    6.08    0.21
   3   3  -4    2.57    0.09
   3   3  -4    2.59    0.11
  -3  -3   4    2.77    0.13
   3   3  -3    4.39    0.14
   3   3  -3    4.19    0.12
  -3  -3   3    4.70    0.16
   3   3  -2    0.25    0.04
   3   3  -2    0.25    0.05
  -3  -3   2    0.19    0.06
   3   3  -1    5.77    0.16
   3   3  -1    5.58    0.17
  -3  -3   1    5.47    0.14
   3   3   0    9.95    0.22
   3   3   0    9.73    0.21
  -3  -3   0    9.26    0.18
   3   3   1   21.29    0.40
  -3  -3  -1   20.23    0.31
  -3  -3  -1   21.87    0.52
   3   3   2    3.98    0.17
  -3  -3  -2    4.30    0.11
  -3  -3  -2    4.53    0.19
   3   3   3    1.41    0.10
  -3  -3  -3    1.56    0.12
  -3  -3  -3    1.12    0.06
   3   3   4   -0.00    0.06
  -3  -3  -4    0.06    0.04
  -3  -3  -4   -0.01    0.06
   3   3   5    2.64    0.15
  -3  -3  -5    2.16    0.09
  -3  -3  -5    2.61    0.17
   3   3   6    0.09    0.07
  -3  -3  -6   -0.09    0.06
  -3  -3  -6    0.01    0.04
   3   3   7    0.05    0.07
  -3  -3  -7   -0.00    0.08
   3   3   8   38.44    0.92
  -3  -3  -8   38.75    0.94
   3   3   9    5.44    0.29
  -3  -3  -9    6.31    0.31
   3   3  10   29.91    0.84
  -3  -3 -10   28.75    0.84
   3   3  11   26.23    0.87
  -3  -3 -11   25.00    0.78
   3   3  12    3.54    0.34
  -3  -3 -12    3.37    0.28
   3   3  13    0.06    0.15
  -3  -3 -13    0.15    0.14
   3   3  14    1.06    0.21
  -3  -3 -14    0.48    0.21
   3   4 -16    0.54    0.24
  -3  -4  16    0.39    0.23
   3   4 -15    0.34    0.17
  -3  -4  15   -0.00    0.15
   3   4 -14    1.38    0.27
  -3  -4  14    1.27    0.26
   3   4 -13    0.02    0.12
  -3  -4  13    0.19    0.13
   3   4 -12    1.49    0.24
  -3  -4  12    2.01    0.21
   3   4 -11   -0.00    0.13
  -3  -4  11    0.63    0.13
   3   4 -10   18.16    0.57
  -3  -4  10   16.21    0.53
   3   4  -9   -0.04    0.05
   3   4  -9    0.19    0.09
  -3  -4   9    0.16    0.10
   3   4  -8    4.26    0.14
   3   4  -8    4.12    0.23
  -3  -4   8    4.69    0.22
   3   4  -7    0.18    0.05
   3   4  -7    0.29    0.09
  -3  -4   7    0.44    0.12
   3   4  -6    0.52    0.06
   3   4  -6    0.54    0.09
  -3  -4   6    0.71    0.10
   3   4  -5    5.52    0.15
   3   4  -5    5.88    0.19
  -3  -4   5    5.72    0.21
   3   4  -4   17.26    0.32
   3   4  -4   17.26    0.37
  -3  -4   4   17.65    0.39
   3   4  -3   12.29    0.26
   3   4  -3   12.37    0.28
  -3  -4   3   12.45    0.29
   3   4  -2   23.03    0.44
   3   4  -2   22.50    0.43
  -3  -4   2   23.15    0.43
   3   4  -1   20.00    0.39
   3   4  -1   19.86    0.39
  -3  -4   1   19.63    0.37
   3   4   0  144.09    1.83
   3   4   0  146.20    1.94
  -3  -4   0  136.15    1.68
   3   4   1    0.44    0.08
  -3  -4  -1    0.50    0.06
  -3  -4  -1    0.43    0.10
   3   4   2    2.00    0.14
  -3  -4  -2    1.77    0.09
  -3  -4  -2    2.11    0.16
   3   4   3    0.06    0.06
  -3  -4  -3   -0.01    0.06
  -3  -4  -3   -0.01    0.04
   3   4   4    0.13    0.07
  -3  -4  -4    0.02    0.05
  -3  -4  -4    0.01    0.09
   3   4   5   52.81    1.06
  -3  -4  -5   49.84    0.78
  -3  -4  -5   54.15    1.15
   3   4   6    0.22    0.11
  -3  -4  -6   -0.00    0.10
  -3  -4  -6    0.02    0.06
   3   4   7    2.09    0.22
  -3  -4  -7    1.84    0.17
   3   4   8   13.68    0.52
  -3  -4  -8   13.65    0.46
   3   4   9    1.74    0.25
  -3  -4  -9    1.97    0.19
   3   4  10    8.83    0.45
  -3  -4 -10    8.68    0.47
   3   4  11   13.68    0.56
  -3  -4 -11   13.25    0.52
   3   4  12    0.73    0.20
  -3  -4 -12    1.04    0.20
   3   4  13    1.96    0.29
  -3  -4 -13    2.68    0.27
   3   5 -15    1.23    0.28
  -3  -5  15    0.70    0.22
   3   5 -14    3.88    0.32
  -3  -5  14    3.37    0.30
   3   5 -13    1.16    0.24
  -3  -5  13    1.36    0.21
   3   5 -12   -0.01    0.12
  -3  -5  12   -0.03    0.11
   3   5 -11   12.10    0.45
  -3  -5  11   10.98    0.43
   3   5 -10    3.46    0.22
  -3  -5  10    3.97    0.24
   3   5  -9    1.51    0.11
   3   5  -9    2.11    0.19
  -3  -5   9    2.04    0.19
   3   5  -8    2.80    0.13
   3   5  -8    2.72    0.17
  -3  -5   8    3.44    0.20
   3   5  -7    0.53    0.08
   3   5  -7    0.32    0.07
  -3  -5   7    0.28    0.14
   3   5  -6    8.37    0.26
   3   5  -6    7.96    0.22
  -3  -5   6    8.68    0.33
   3   5  -5    0.08    0.06
   3   5  -5    0.09    0.07
  -3  -5   5   -0.03    0.08
   3   5  -4    1.23    0.08
   3   5  -4    1.17    0.09
  -3  -5   4    1.50    0.11
   3   5  -3    0.53    0.09
   3   5  -3    0.58    0.08
  -3  -5   3    0.67    0.09
   3   5  -2    8.85    0.25
   3   5  -2    9.24    0.24
  -3  -5   2    9.11    0.25
   3   5  -1    4.94    0.16
   3   5  -1    4.93    0.18
  -3  -5   1    5.33    0.19
   3   5   0   36.03    0.69
  -3  -5   0   36.26    0.81
  -3  -5   0   35.56    0.63
   3   5   1   11.16    0.32
  -3  -5  -1   11.89    0.27
  -3  -5  -1   11.28    0.35
   3   5   2   15.94    0.41
  -3  -5  -2   15.94    0.35
  -3  -5  -2   15.71    0.44
   3   5   3    0.46    0.10
  -3  -5  -3    0.47    0.08
  -3  -5  -3    0.18    0.10
   3   5   4    1.35    0.16
  -3  -5  -4    0.89    0.09
  -3  -5  -4    0.85    0.13
   3   5   5   21.84    0.59
  -3  -5  -5   19.46    0.45
  -3  -5  -5   21.66    0.61
   3   5   6    7.95    0.33
  -3  -5  -6    7.55    0.33
  -3  -5  -6    6.86    0.24
   3   5   7    4.31    0.28
  -3  -5  -7    4.51    0.27
   3   5   8    1.38    0.16
  -3  -5  -8    0.15    0.17
   3   5   9    1.01    0.18
  -3  -5  -9    1.08    0.16
   3   5  10   -0.05    0.11
  -3  -5 -10    0.11    0.11
   3   5  11    1.22    0.21
  -3  -5 -11    1.14    0.18
   3   5  12    0.08    0.15
  -3  -5 -12    0.10    0.13
   3   6 -15   -0.06    0.14
  -3  -6  15    0.04    0.16
   3   6 -14    0.07    0.16
  -3  -6  14    0.02    0.13
   3   6 -13    1.50    0.26
  -3  -6  13    1.22    0.21
   3   6 -12    0.12    0.13
  -3  -6  12    0.23    0.13
   3   6 -11    5.36    0.33
  -3  -6  11    5.15    0.31
   3   6 -10    0.07    0.10
  -3  -6  10    0.32    0.13
   3   6  -9    2.99    0.15
   3   6  -9    3.22    0.20
  -3  -6   9    3.35    0.25
   3   6  -8   -0.11    0.08
   3   6  -8    0.04    0.06
  -3  -6   8    0.15    0.09
   3   6  -7    0.01    0.07
   3   6  -7   -0.00    0.07
  -3  -6   7    0.20    0.09
   3   6  -6    0.11    0.07
   3   6  -6    0.10    0.08
  -3  -6   6    0.06    0.09
   3   6  -5    0.48    0.09
   3   6  -5    0.63    0.09
  -3  -6   5    0.57    0.11
   3   6  -4    0.85    0.11
   3   6  -4    1.01    0.10
  -3  -6   4    1.14    0.11
   3   6  -3    0.84    0.11
   3   6  -3    0.48    0.08
  -3  -6   3    0.80    0.12
   3   6  -2    0.27    0.05
   3   6  -2    0.11    0.07
  -3  -6   2    0.15    0.07
   3   6  -1    5.43    0.21
  -3  -6   1    5.22    0.20
   3   6   0   -0.15    0.07
  -3  -6   0   -0.03    0.06
  -3  -6   0   -0.04    0.09
   3   6   1    0.02    0.09
  -3  -6  -1    0.16    0.06
  -3  -6  -1    0.22    0.09
   3   6   2   11.09    0.39
  -3  -6  -2   10.84    0.38
  -3  -6  -2   10.14    0.31
   3   6   3    0.54    0.15
  -3  -6  -3    0.56    0.10
  -3  -6  -3    0.72    0.11
   3   6   4    1.64    0.16
  -3  -6  -4    1.37    0.13
  -3  -6  -4    1.16    0.16
   3   6   5    5.78    0.28
  -3  -6  -5    5.15    0.24
  -3  -6  -5    5.03    0.20
   3   6   6    1.01    0.16
  -3  -6  -6    0.92    0.16
  -3  -6  -6    0.80    0.12
   3   6   7    0.16    0.12
  -3  -6  -7    0.10    0.12
   3   6   8    0.08    0.13
  -3  -6  -8    0.19    0.13
   3   6   9    0.01    0.11
  -3  -6  -9    0.02    0.10
   3   6  10    6.24    0.40
  -3  -6 -10    6.02    0.38
   3   6  11    1.50    0.25
  -3  -6 -11    1.49    0.26
   3   7 -14    0.12    0.17
  -3  -7  14    0.32    0.17
   3   7 -13    3.18    0.28
  -3  -7  13    3.47    0.30
   3   7 -12   -0.06    0.12
  -3  -7  12    0.06    0.11
   3   7 -11    1.89    0.24
  -3  -7  11    2.04    0.23
   3   7 -10    0.24    0.12
  -3  -7  10   -0.01    0.13
   3   7  -9    6.93    0.34
   3   7  -9    6.29    0.25
  -3  -7   9    8.27    0.36
   3   7  -8   -0.14    0.08
   3   7  -8    0.00    0.07
  -3  -7   8    0.00    0.10
   3   7  -7    0.49    0.10
   3   7  -7    0.60    0.12
  -3  -7   7    0.80    0.16
   3   7  -6    0.04    0.09
   3   7  -6    0.09    0.08
  -3  -7   6    0.21    0.10
   3   7  -5   -0.04    0.07
   3   7  -5    0.04    0.07
  -3  -7   5   -0.14    0.08
   3   7  -4    2.50    0.17
   3   7  -4    2.18    0.14
  -3  -7   4    2.33    0.20
   3   7  -3    4.52    0.16
   3   7  -3    4.85    0.22
  -3  -7   3    4.95    0.23
   3   7  -2   -0.02    0.05
   3   7  -2   -0.02    0.07
  -3  -7   2    0.04    0.06
   3   7  -1   26.11    0.65
  -3  -7   1   26.50    0.63
  -3  -7   1   25.87    0.70
   3   7   0    3.42    0.21
  -3  -7   0    3.47    0.22
  -3  -7   0    3.25    0.18
   3   7   1   16.68    0.51
  -3  -7  -1   16.45    0.49
  -3  -7  -1   16.98    0.45
   3   7   2    0.62    0.12
  -3  -7  -2    0.53    0.10
  -3  -7  -2    0.44    0.12
   3   7   3    2.46    0.21
  -3  -7  -3    2.58    0.20
  -3  -7  -3    2.10    0.18
   3   7   4    0.20    0.10
  -3  -7  -4    0.10    0.09
  -3  -7  -4   -0.10    0.10
   3   7   5    0.73    0.18
  -3  -7  -5    0.50    0.11
  -3  -7  -5    0.56    0.12
   3   7   6    0.08    0.13
  -3  -7  -6    0.04    0.09
  -3  -7  -6    0.02    0.10
   3   7   7    0.78    0.21
  -3  -7  -7    0.70    0.16
   3   7   8    0.39    0.21
  -3  -7  -8    0.35    0.13
   3   7   9    1.71    0.24
  -3  -7  -9    1.11    0.22
   3   7  10    1.21    0.23
  -3  -7 -10    1.12    0.24
   3   8 -13   -0.09    0.12
  -3  -8  13    0.17    0.13
   3   8 -12   20.06    0.77
  -3  -8  12   22.95    0.85
   3   8 -11    4.49    0.34
  -3  -8  11    6.01    0.36
   3   8 -10    0.79    0.17
  -3  -8  10    1.12    0.19
   3   8  -9    0.51    0.13
   3   8  -9    0.44    0.13
  -3  -8   9    0.67    0.19
   3   8  -8    0.14    0.09
   3   8  -8   -0.10    0.08
  -3  -8   8    0.02    0.10
   3   8  -7    1.24    0.14
   3   8  -7    1.04    0.14
  -3  -8   7    1.40    0.17
   3   8  -6    2.95    0.19
   3   8  -6    2.67    0.17
  -3  -8   6    3.60    0.24
   3   8  -5    0.34    0.12
   3   8  -5    0.17    0.09
  -3  -8   5    0.37    0.14
   3   8  -4    0.33    0.09
   3   8  -4    0.34    0.12
  -3  -8   4    0.51    0.15
   3   8  -3    0.28    0.09
   3   8  -3    0.29    0.11
  -3  -8   3    0.66    0.12
   3   8  -2    5.69    0.28
  -3  -8   2    5.83    0.26
  -3  -8   2    5.32    0.29
   3   8  -1   14.86    0.47
  -3  -8   1   13.33    0.48
  -3  -8   1   14.95    0.47
   3   8   0    2.80    0.21
  -3  -8   0    3.02    0.19
  -3  -8   0    2.68    0.21
   3   8   1    0.98    0.15
  -3  -8  -1    0.85    0.13
  -3  -8  -1    0.72    0.12
   3   8   2    1.33    0.20
  -3  -8  -2    0.91    0.17
  -3  -8  -2    0.85    0.14
   3   8   3    0.08    0.10
  -3  -8  -3    0.03    0.10
  -3  -8  -3   -0.12    0.08
   3   8   4   -0.03    0.13
  -3  -8  -4    0.49    0.11
  -3  -8  -4    0.28    0.11
   3   8   5    1.45    0.21
  -3  -8  -5    1.03    0.17
  -3  -8  -5    1.22    0.17
   3   8   6    0.09    0.13
  -3  -8  -6    0.04    0.10
   3   8   7    0.41    0.17
  -3  -8  -7    0.25    0.14
   3   8   8    0.00    0.16
  -3  -9  12    0.63    0.21
  -3  -9  11    3.46    0.32
  -3  -9  10    0.93    0.21
   3   9  -9    0.21    0.13
  -3  -9   9    0.25    0.15
   3   9  -8   -0.02    0.09
  -3  -9   8   -0.11    0.12
   3   9  -7    0.13    0.12
  -3  -9   7    0.28    0.15
   3   9  -6    2.50    0.19
  -3  -9   6    2.54    0.23
   3   9  -5    0.22    0.11
  -3  -9   5    0.24    0.13
   3   9  -4    0.09    0.11
  -3  -9   4    0.27    0.12
   3   9  -3   -0.13    0.12
  -3  -9   3    0.19    0.12
   3   9  -2    0.24    0.13
  -3  -9   2    0.63    0.13
   3   9  -1    0.62    0.14
  -3  -9   1    0.31    0.13
   3   9   0    0.30    0.14
  -3  -9   0    0.78    0.16
   3   9   1   -0.09    0.10
  -3  -9  -1    0.08    0.11
   3   9   2    0.26    0.14
  -3  -9  -2    0.26    0.14
   3   9   3    0.06    0.14
  -3  -9  -3    0.07    0.12
   3   9   4    0.14    0.13
  -3  -9  -4    0.05    0.12
   3   9   5    3.27    0.30
   3   9   6   -0.02    0.15
   3   9   7    2.83    0.33
  -3 -10  10   -0.14    0.20
  -3 -10   9    0.11    0.15
   3  10  -8   -0.13    0.12
  -3 -10   8    0.24    0.13
   3  10  -7   -0.14    0.14
  -3 -10   7   -0.04    0.13
   3  10  -6    0.10    0.11
  -3 -10   6    0.17    0.13
   3  10  -5    0.27    0.12
  -3 -10   5    0.08    0.14
   3  10  -4   -0.03    0.11
  -3 -10   4    0.27    0.15
   3  10  -3    0.18    0.13
  -3 -10   3    0.24    0.13
   3  10  -2    0.06    0.10
  -3 -10   2   -0.02    0.10
   3  10  -1    0.32    0.14
  -3 -10   1    0.30    0.14
   3  10   0    0.36    0.17
  -3 -10   0    0.18    0.14
   3  10   1    0.06    0.13
  -3 -10  -1    0.14    0.15
   3  10   2   -0.04    0.16
  -3 -10  -2    0.10    0.11
   3  10   3    0.10    0.15
  -3 -10  -3    0.12    0.13
   3  10   4    0.65    0.25
   3  10   5    0.13    0.17
   3  11  -7    0.29    0.15
  -3 -11   7    0.17    0.21
   3  11  -6    0.63    0.19
  -3 -11   6   -0.02    0.21
   3  11  -5    0.14    0.12
  -3 -11   5    0.01    0.14
   3  11  -4   -0.06    0.11
  -3 -11   4    0.05    0.11
   3  11  -3    0.21    0.17
  -3 -11   3    0.19    0.19
   3  11  -2    0.03    0.16
  -3 -11   2    0.16    0.14
   3  11  -1    0.18    0.14
  -3 -11   1    0.09    0.19
   3  11   0   -0.00    0.13
  -3 -11   0    0.12    0.14
   3  11   1    0.68    0.19
  -3 -11  -1    0.35    0.22
   4 -13  -2    0.86    0.24
  -4  13   2    0.51    0.28
   4 -13  -1    0.79    0.22
  -4  13   1    0.03    0.27
   4 -13   0    1.05    0.26
  -4  13   0    1.43    0.28
   4 -13   1    0.26    0.19
  -4  13  -1    0.09    0.23
   4 -13   2    0.56    0.26
  -4  13  -2    0.63    0.25
   4 -13   3    3.10    0.35
  -4  13  -3    2.82    0.40
   4 -13   4    7.35    0.48
  -4  13  -4    7.57    0.58
   4 -13   5    2.06    0.34
  -4  13  -5    1.88    0.34
   4 -13   6    0.04    0.22
  -4  13  -6    0.41    0.23
   4 -13   7    2.37    0.32
  -4  13  -7    3.23    0.41
   4 -12  -5    0.57    0.23
  -4  12   5    1.38    0.28
   4 -12  -4    3.99    0.43
  -4  12   4    3.90    0.35
   4 -12  -3    0.22    0.18
  -4  12   3    0.29    0.17
   4 -12  -2   -0.08    0.13
  -4  12   2    0.09    0.15
   4 -12  -1    0.01    0.13
  -4  12   1    0.00    0.13
   4 -12   0    0.02    0.15
  -4  12   0    0.28    0.17
   4 -12   1    0.29    0.18
  -4  12  -1    0.51    0.20
   4 -12   2    0.15    0.15
  -4  12  -2    0.08    0.17
  -4  12  -3    3.87    0.37
   4 -12   4    0.34    0.17
  -4  12  -4    0.12    0.22
   4 -12   5    5.15    0.42
  -4  12  -5    5.10    0.45
   4 -12   6    0.04    0.19
  -4  12  -6    0.20    0.20
   4 -12   7    4.69    0.35
  -4  12  -7    4.73    0.55
   4 -12   8    0.34    0.17
  -4  12  -8    0.02    0.23
   4 -12   9    0.06    0.19
  -4  12  -9    0.09    0.20
   4 -11  -7    0.33    0.17
  -4  11   7    0.16    0.18
   4 -11  -6    1.26    0.27
  -4  11   6    1.01    0.24
   4 -11  -5    4.46    0.36
  -4  11   5    4.36    0.33
   4 -11  -4   11.25    0.54
  -4  11   4    9.85    0.49
   4 -11  -3   -0.04    0.13
  -4  11   3    0.00    0.12
   4 -11  -2    0.27    0.16
  -4  11   2    0.43    0.20
   4 -11  -1    0.28    0.17
  -4  11   1    0.46    0.16
   4 -11   0    0.30    0.17
  -4  11   0    0.39    0.17
   4 -11   1    0.86    0.23
  -4  11  -1    1.06    0.22
   4 -11   2    0.90    0.20
  -4  11  -2    1.08    0.22
   4 -11   3    0.10    0.14
  -4  11  -3    0.46    0.19
   4 -11   4    5.49    0.34
  -4  11  -4    5.41    0.44
   4 -11   5   16.56    0.64
  -4  11  -5   18.42    0.82
   4 -11   6   14.33    0.61
  -4  11  -6   14.67    0.81
   4 -11   7    0.39    0.19
  -4  11  -7    0.66    0.27
   4 -11   8    0.02    0.12
  -4  11  -8   -0.22    0.17
   4 -11   9    0.49    0.19
  -4  11  -9    0.36    0.23
   4 -11  10    1.63    0.22
  -4  11 -10    1.64    0.34
   4 -11  11    0.46    0.17
  -4  11 -11    0.74    0.29
   4 -10  -9    0.85    0.20
  -4  10   9    0.32    0.19
   4 -10  -8   -0.07    0.19
  -4  10   8    0.28    0.12
   4 -10  -7    8.03    0.43
  -4  10   7    7.46    0.40
   4 -10  -6    0.62    0.18
  -4  10   6    0.75    0.16
   4 -10  -5    9.43    0.45
  -4  10   5    9.34    0.44
   4 -10  -4    0.15    0.13
  -4  10   4   -0.07    0.10
   4 -10  -3    2.03    0.22
  -4  10   3    1.70    0.27
   4 -10  -2    3.61    0.28
  -4  10   2    3.25    0.30
   4 -10  -1    2.37    0.28
  -4  10   1    2.48    0.25
   4 -10   0    2.88    0.24
  -4  10   0    3.21    0.32
   4 -10   1    2.15    0.21
  -4  10  -1    2.70    0.29
   4 -10   2   10.75    0.50
  -4  10  -2   10.78    0.59
   4 -10   3    1.83    0.23
  -4  10  -3    1.36    0.26
   4 -10   4   10.15    0.43
  -4  10  -4   12.41    0.57
   4 -10   5    1.76    0.20
  -4  10  -5    2.37    0.28
   4 -10   6    0.75    0.16
  -4  10  -6    0.88    0.23
   4 -10   7    4.40    0.30
  -4  10  -7    4.86    0.42
   4 -10   8    4.38    0.26
  -4  10  -8    4.61    0.47
   4 -10   9    1.23    0.17
  -4  10  -9    1.08    0.27
   4 -10  10    0.19    0.12
  -4  10 -10   -0.04    0.20
   4 -10  11   -0.03    0.10
  -4  10 -11    0.13    0.17
   4 -10  12    0.11    0.14
  -4  10 -12    0.41    0.24
   4  -9 -11    0.65    0.19
   4  -9 -10    0.16    0.17
  -4   9  10    0.04    0.10
   4  -9  -9    0.00    0.15
  -4   9   9    0.06    0.10
   4  -9  -8    2.15    0.24
  -4   9   8    2.38    0.20
   4  -9  -7   10.06    0.44
  -4   9   7    9.03    0.40
   4  -9  -6    0.19    0.12
  -4   9   6    0.01    0.10
   4  -9  -5   -0.07    0.11
  -4   9   5   -0.09    0.12
   4  -9  -4    6.98    0.35
  -4   9   4    7.09    0.36
   4  -9  -3    2.32    0.21
  -4   9   3    2.76    0.21
   4  -9  -2   11.71    0.45
  -4   9   2   10.94    0.45
   4  -9  -1   22.77    0.72
  -4   9   1   23.78    0.76
   4  -9   0    1.15    0.16
  -4   9   0    1.39    0.20
   4  -9   1    2.94    0.20
  -4   9  -1    1.97    0.25
   4  -9   2   32.22    0.82
  -4   9  -2   32.26    1.05
   4  -9   3    0.68    0.17
  -4   9  -3    1.10    0.17
   4  -9   4    3.41    0.24
  -4   9  -4    3.59    0.31
   4  -9   5    1.85    0.21
  -4   9  -5    2.10    0.25
   4  -9   6    9.20    0.35
  -4   9  -6   10.18    0.52
   4  -9   7    7.58    0.31
  -4   9  -7    7.82    0.54
   4  -9   8    1.32    0.16
  -4   9  -8    1.75    0.29
   4  -9   9    1.47    0.16
  -4   9  -9    1.69    0.29
   4  -9  10    0.35    0.14
  -4   9 -10    0.28    0.21
   4  -9  11    1.06    0.18
  -4   9 -11    1.14    0.28
   4  -9  12    0.09    0.14
  -4   9 -12    0.11    0.25
  -4   9 -13    1.69    0.36
  -4   8  12    0.20    0.24
   4  -8 -11    0.18    0.12
   4  -8 -11    0.08    0.15
   4  -8 -10    0.22    0.15
   4  -8 -10    0.16    0.13
  -4   8  10    0.26    0.13
   4  -8  -9    0.18    0.11
   4  -8  -9    0.11    0.16
  -4   8   9    0.25    0.13
   4  -8  -8    0.02    0.07
   4  -8  -8    0.02    0.14
  -4   8   8    0.16    0.08
   4  -8  -7    6.93    0.27
   4  -8  -7    6.74    0.38
  -4   8   7    7.19    0.34
   4  -8  -6   13.29    0.35
   4  -8  -6   15.41    0.57
  -4   8   6   14.81    0.45
   4  -8  -5    0.96    0.09
   4  -8  -5    0.74    0.19
  -4   8   5    0.86    0.16
   4  -8  -4   13.96    0.46
  -4   8   4   13.75    0.44
   4  -8  -3    0.14    0.09
  -4   8   3    0.02    0.09
   4  -8  -2   10.25    0.37
  -4   8   2   10.39    0.42
   4  -8  -1   21.88    0.60
  -4   8   1   23.82    0.73
   4  -8   0    0.20    0.10
  -4   8   0    0.27    0.13
   4  -8   1    0.26    0.10
  -4   8  -1    0.24    0.12
   4  -8   2    1.39    0.16
  -4   8  -2    1.43    0.19
   4  -8   3    0.91    0.11
  -4   8  -3    0.83    0.18
   4  -8   4    0.14    0.10
  -4   8  -4    0.17    0.14
   4  -8   5   13.42    0.39
  -4   8  -5   12.41    0.54
   4  -8   6    3.83    0.21
  -4   8  -6    4.28    0.37
  -4   8  -6    3.16    0.13
   4  -8   7    4.06    0.19
  -4   8  -7    4.43    0.32
  -4   8  -7    3.57    0.15
   4  -8   8    0.72    0.11
  -4   8  -8    0.74    0.10
   4  -8   9    0.05    0.11
   4  -8   9    0.10    0.07
  -4   8  -9   -0.02    0.07
   4  -8  10    9.21    0.41
   4  -8  10    8.69    0.35
  -4   8 -10    7.74    0.31
   4  -8  11    4.18    0.25
   4  -8  11    4.51    0.29
  -4   8 -11    3.62    0.21
   4  -8  12    0.12    0.14
   4  -8  12    0.85    0.16
  -4   8 -12    0.24    0.14
   4  -8  13    1.39    0.28
  -4   8 -13    1.22    0.17
   4  -8  14   -0.23    0.19
  -4   8 -14   -0.02    0.14
   4  -7 -13    0.29    0.17
  -4   7  13   -0.11    0.23
   4  -7 -12    0.36    0.17
  -4   7  12    0.50    0.27
   4  -7 -11    4.25    0.32
  -4   7  11    5.24    0.44
  -4   7  11    4.31    0.27
   4  -7 -10    0.93    0.15
   4  -7 -10    0.71    0.15
  -4   7  10    0.49    0.11
   4  -7  -9    1.90    0.20
   4  -7  -9    1.38    0.18
  -4   7   9    1.56    0.16
   4  -7  -8    0.24    0.09
   4  -7  -8    0.67    0.14
  -4   7   8    0.55    0.11
   4  -7  -7    2.27    0.16
   4  -7  -7    2.46    0.21
  -4   7   7    2.38    0.16
   4  -7  -6   42.24    0.77
   4  -7  -6   41.71    0.98
  -4   7   6   41.70    0.87
   4  -7  -5   21.09    0.58
  -4   7   5   21.91    0.55
   4  -7  -4   17.57    0.32
   4  -7  -4   18.60    0.54
  -4   7   4   18.19    0.50
   4  -7  -3    0.11    0.09
   4  -7  -3    0.12    0.04
  -4   7   3    0.09    0.11
   4  -7  -2    1.85    0.15
   4  -7  -2    1.78    0.07
  -4   7   2    2.21    0.18
   4  -7  -1   17.96    0.50
  -4   7   1   18.54    0.54
   4  -7   0    0.93    0.11
  -4   7   0    1.01    0.16
   4  -7   1    0.13    0.07
  -4   7  -1    0.23    0.13
   4  -7   2    1.08    0.11
  -4   7  -2    1.18    0.16
   4  -7   3    0.24    0.07
  -4   7  -3    0.14    0.12
  -4   7  -3    0.19    0.03
   4  -7   4    1.45    0.11
  -4   7  -4    1.57    0.18
  -4   7  -4    1.37    0.07
   4  -7   5    5.28    0.24
   4  -7   5    6.22    0.24
  -4   7  -5    5.41    0.15
   4  -7   6    4.54    0.23
   4  -7   6    4.22    0.17
  -4   7  -6    4.40    0.15
   4  -7   7    1.91    0.15
   4  -7   7    2.91    0.22
  -4   7  -7    2.13    0.13
   4  -7   8    2.48    0.20
   4  -7   8    2.09    0.13
  -4   7  -8    2.32    0.15
   4  -7   9    2.75    0.23
   4  -7   9    2.08    0.14
  -4   7  -9    2.22    0.16
   4  -7  10    3.38    0.28
   4  -7  10    2.85    0.19
  -4   7 -10    2.70    0.19
   4  -7  11    0.72    0.16
   4  -7  11    0.44    0.10
  -4   7 -11    0.54    0.14
   4  -7  12    1.77    0.18
   4  -7  12    1.91    0.28
  -4   7 -12    1.54    0.19
   4  -7  13    0.93    0.25
  -4   7 -13    0.94    0.19
   4  -7  14   -0.13    0.13
  -4   7 -14    0.08    0.13
   4  -6 -13    1.16    0.25
  -4   6  13    1.83    0.39
   4  -6 -12    1.26    0.19
  -4   6  12    0.92    0.29
   4  -6 -11    0.79    0.14
  -4   6  11    0.65    0.30
  -4   6  11    0.46    0.13
   4  -6 -10    1.00    0.15
  -4   6  10    0.07    0.16
  -4   6  10    0.73    0.12
   4  -6  -9    0.08    0.10
   4  -6  -9    0.11    0.10
  -4   6   9   -0.00    0.06
   4  -6  -8    8.32    0.30
   4  -6  -8    7.48    0.32
  -4   6   8    7.06    0.25
   4  -6  -7    0.12    0.07
   4  -6  -7    0.04    0.08
  -4   6   7   -0.10    0.07
   4  -6  -6   16.79    0.48
   4  -6  -6   17.29    0.39
  -4   6   6   16.23    0.42
   4  -6  -5    0.24    0.10
   4  -6  -5    0.32    0.07
  -4   6   5    0.33    0.09
   4  -6  -4    1.78    0.10
   4  -6  -4    1.91    0.17
  -4   6   4    1.52    0.12
   4  -6  -3    9.95    0.21
   4  -6  -3   10.41    0.31
  -4   6   3   10.39    0.31
   4  -6  -2    2.03    0.17
   4  -6  -2    2.15    0.08
  -4   6   2    1.92    0.14
   4  -6  -1    0.72    0.10
   4  -6  -1    0.89    0.05
  -4   6   1    1.17    0.12
   4  -6   0   12.05    0.31
  -4   6   0   12.59    0.39
   4  -6   1    5.43    0.18
  -4   6  -1    4.71    0.11
  -4   6  -1    5.24    0.24
   4  -6   2    0.35    0.06
  -4   6  -2    0.14    0.04
  -4   6  -2    0.05    0.10
   4  -6   3    0.03    0.05
   4  -6   3    0.03    0.04
  -4   6  -3   -0.03    0.03
   4  -6   4    2.43    0.14
   4  -6   4    2.66    0.12
  -4   6  -4    2.42    0.09
   4  -6   5    0.68    0.08
   4  -6   5    0.90    0.10
  -4   6  -5    0.49    0.07
   4  -6   6    0.27    0.10
   4  -6   6    0.22    0.07
  -4   6  -6    0.24    0.07
   4  -6   7    5.45    0.24
   4  -6   7    4.89    0.16
  -4   6  -7    5.31    0.20
   4  -6   8    6.58    0.28
   4  -6   8    6.23    0.22
  -4   6  -8    6.37    0.23
   4  -6   9    2.90    0.23
   4  -6   9    2.55    0.13
  -4   6  -9    2.31    0.15
   4  -6  10    0.50    0.13
   4  -6  10    0.40    0.09
  -4   6 -10    0.26    0.10
   4  -6  11    0.71    0.19
   4  -6  11    0.48    0.10
  -4   6 -11    0.68    0.12
   4  -6  12    1.14    0.18
   4  -6  12    0.71    0.10
  -4   6 -12    0.97    0.17
   4  -6  13    0.08    0.19
  -4   6 -13    0.33    0.13
   4  -6  14    0.40    0.18
  -4   6 -14    0.56    0.15
   4  -6  15    1.12    0.27
  -4   6 -15    0.88    0.19
   4  -5 -14    0.71    0.19
  -4   5  14    0.51    0.27
   4  -5 -13    0.21    0.15
  -4   5  13    0.38    0.21
   4  -5 -12    0.05    0.13
  -4   5  12   -0.02    0.21
   4  -5 -11    0.40    0.16
  -4   5  11    0.64    0.21
   4  -5 -10    5.26    0.25
  -4   5  10    4.49    0.44
  -4   5  10    4.59    0.20
   4  -5  -9    2.60    0.18
  -4   5   9    3.02    0.15
   4  -5  -8    0.06    0.06
   4  -5  -8   -0.12    0.07
  -4   5   8    0.06    0.06
   4  -5  -7    1.13    0.10
   4  -5  -7    1.10    0.13
  -4   5   7    1.18    0.09
   4  -5  -6   -0.05    0.06
   4  -5  -6   -0.07    0.07
  -4   5   6    0.00    0.06
   4  -5  -5    1.39    0.10
   4  -5  -5    1.61    0.13
  -4   5   5    1.54    0.09
   4  -5  -4    7.42    0.20
   4  -5  -4    7.18    0.25
  -4   5   4    7.34    0.23
   4  -5  -3    0.06    0.04
   4  -5  -3    0.00    0.06
  -4   5   3    0.11    0.06
   4  -5  -2   27.87    0.55
   4  -5  -2   27.54    0.40
  -4   5   2   27.75    0.59
   4  -5  -1    2.73    0.13
   4  -5  -1    3.16    0.09
  -4   5   1    2.94    0.15
   4  -5   0   39.27    0.48
   4  -5   0   41.44    0.70
  -4   5   0   39.71    0.79
   4  -5   1    6.49    0.18
  -4   5  -1    6.14    0.17
   4  -5   2    0.32    0.07
   4  -5   2    0.34    0.05
  -4   5  -2    0.24    0.05
   4  -5   3    5.16    0.15
   4  -5   3    5.26    0.19
  -4   5  -3    5.35    0.15
   4  -5   4    8.17    0.25
   4  -5   4    8.17    0.19
  -4   5  -4    7.99    0.20
   4  -5   5   19.98    0.47
   4  -5   5   20.63    0.37
  -4   5  -5   18.93    0.38
   4  -5   6    0.58    0.10
   4  -5   6    0.32    0.06
  -4   5  -6    0.49    0.08
   4  -5   7    0.24    0.05
   4  -5   7    0.28    0.10
  -4   5  -7    0.34    0.08
   4  -5   8    3.91    0.22
   4  -5   8    3.56    0.14
  -4   5  -8    3.77    0.20
   4  -5   9    0.84    0.13
   4  -5   9    0.53    0.08
  -4   5  -9    0.69    0.13
   4  -5  10    0.38    0.12
   4  -5  10    0.18    0.07
  -4   5 -10    0.18    0.11
   4  -5  11    0.52    0.08
   4  -5  11    0.31    0.13
  -4   5 -11    0.24    0.14
   4  -5  12    0.99    0.18
  -4   5 -12    1.10    0.16
   4  -5  13    0.29    0.18
  -4   5 -13    0.39    0.16
   4  -5  14    0.26    0.15
  -4   5 -14    0.18    0.13
   4  -5  15    0.84    0.21
  -4   5 -15    0.93    0.23
   4  -4 -15    1.38    0.30
  -4   4  15    1.46    0.31
   4  -4 -14    0.08    0.13
  -4   4  14   -0.02    0.16
   4  -4 -13    0.27    0.18
  -4   4  13    0.38    0.26
   4  -4 -12    5.64    0.36
  -4   4  12    6.41    0.53
   4  -4 -11    0.26    0.14
  -4   4  11    0.28    0.18
   4  -4 -10    2.39    0.19
  -4   4  10    2.83    0.28
  -4   4  10    2.47    0.13
   4  -4  -9    0.07    0.07
  -4   4   9    0.16    0.14
  -4   4   9    0.01    0.05
   4  -4  -8    6.34    0.24
  -4   4   8    6.62    0.36
  -4   4   8    5.96    0.17
   4  -4  -7    0.54    0.11
   4  -4  -7    0.58    0.10
  -4   4   7    0.76    0.07
   4  -4  -6    7.83    0.26
   4  -4  -6    8.03    0.25
  -4   4   6    7.63    0.19
   4  -4  -5    0.77    0.09
   4  -4  -5    0.74    0.10
  -4   4   5    0.79    0.07
   4  -4  -4    5.75    0.17
   4  -4  -4    5.63    0.21
  -4   4   4    5.86    0.17
   4  -4  -3    0.01    0.04
   4  -4  -3   -0.01    0.05
  -4   4   3    0.13    0.05
   4  -4  -2   17.43    0.37
   4  -4  -2   17.44    0.29
  -4   4   2   17.45    0.38
   4  -4  -1   13.65    0.30
   4  -4  -1   13.84    0.24
  -4   4   1   14.26    0.34
   4  -4   0   12.26    0.21
   4  -4   0   11.72    0.25
   4  -4   0   11.94    0.25
   4  -4   1   13.11    0.30
   4  -4   1   13.99    0.28
  -4   4  -1   13.04    0.28
   4  -4   2    8.06    0.21
   4  -4   2    7.77    0.18
  -4   4  -2    7.96    0.20
   4  -4   3    9.44    0.25
   4  -4   3    9.14    0.20
  -4   4  -3    9.26    0.22
   4  -4   4   52.82    0.90
   4  -4   4   51.29    0.66
  -4   4  -4   51.77    0.83
   4  -4   5    2.27    0.13
   4  -4   5    1.86    0.08
  -4   4  -5    1.90    0.11
   4  -4   6    1.14    0.11
   4  -4   6    1.09    0.06
  -4   4  -6    1.23    0.11
   4  -4   7    0.06    0.07
   4  -4   7    0.01    0.03
  -4   4  -7    0.03    0.06
   4  -4   8   15.57    0.29
   4  -4   8   16.33    0.46
  -4   4  -8   16.45    0.43
   4  -4   9    0.49    0.11
   4  -4   9    0.30    0.06
  -4   4  -9    0.25    0.10
   4  -4  10   11.42    0.45
   4  -4  10   10.52    0.24
  -4   4 -10   12.05    0.39
   4  -4  11    7.35    0.33
  -4   4 -11    6.93    0.35
   4  -4  12    1.22    0.20
  -4   4 -12    0.99    0.16
   4  -4  13    0.57    0.17
  -4   4 -13    0.74    0.15
   4  -4  14   -0.02    0.12
  -4   4 -14   -0.10    0.14
   4  -4  15    4.40    0.41
  -4   4 -15    4.69    0.35
   4  -3 -15    2.14    0.33
  -4   3  15    2.45    0.41
   4  -3 -14    0.32    0.17
  -4   3  14    0.41    0.20
   4  -3 -13    0.28    0.13
  -4   3  13    0.10    0.17
   4  -3 -12    0.77    0.16
  -4   3  12    0.80    0.22
   4  -3 -11    1.53    0.17
  -4   3  11    1.28    0.23
   4  -3 -10    0.42    0.14
  -4   3  10    0.59    0.18
   4  -3  -9    3.84    0.23
  -4   3   9    3.76    0.30
   4  -3  -8    0.99    0.11
  -4   3   8    0.82    0.17
  -4   3   8    0.82    0.06
   4  -3  -7    4.84    0.19
  -4   3   7    4.71    0.27
  -4   3   7    4.43    0.11
   4  -3  -6    0.35    0.09
  -4   3   6    0.41    0.04
  -4   3   6    0.43    0.09
   4  -3  -5   13.89    0.30
   4  -3  -5   13.64    0.32
  -4   3   5   13.40    0.23
   4  -3  -4    0.59    0.07
   4  -3  -4    0.41    0.07
  -4   3   4    0.53    0.05
   4  -3  -3    5.19    0.16
   4  -3  -3    5.01    0.15
  -4   3   3    5.18    0.14
   4  -3  -2   56.51    0.80
   4  -3  -2   56.24    0.77
  -4   3   2   56.17    0.84
   4  -3  -1   38.10    0.53
   4  -3  -1   38.20    0.55
   4  -3  -1   38.53    0.53
   4  -3   0   10.71    0.21
   4  -3   0   10.13    0.20
   4  -3   0   10.25    0.20
   4  -3   1   34.05    0.53
   4  -3   1   35.03    0.48
   4  -3   1   35.25    0.48
   4  -3   2    6.07    0.17
   4  -3   2    6.31    0.14
  -4   3  -2    6.15    0.19
   4  -3   3    1.08    0.06
   4  -3   3    1.19    0.11
  -4   3  -3    1.11    0.09
   4  -3   4    3.43    0.08
   4  -3   4    3.82    0.15
  -4   3  -4    3.42    0.14
   4  -3   5    8.02    0.14
   4  -3   5    8.08    0.25
  -4   3  -5    8.15    0.24
   4  -3   6    0.48    0.04
   4  -3   6    0.52    0.09
  -4   3  -6    0.63    0.09
   4  -3   7    7.10    0.25
  -4   3  -7    6.72    0.24
   4  -3   8    0.02    0.08
  -4   3  -8    0.05    0.07
   4  -3   9    0.45    0.12
  -4   3  -9    0.61    0.11
   4  -3  10    1.70    0.20
  -4   3 -10    1.67    0.16
   4  -3  11    3.57    0.24
  -4   3 -11    3.51    0.23
   4  -3  12    0.21    0.12
  -4   3 -12    0.12    0.12
   4  -3  13    1.53    0.21
  -4   3 -13    1.44    0.19
   4  -3  14    1.28    0.24
  -4   3 -14    0.91    0.20
   4  -3  15    0.57    0.19
  -4   3 -15    0.60    0.17
   4  -2 -15    0.60    0.19
  -4   2  15    0.62    0.28
   4  -2 -14    3.84    0.30
  -4   2  14    4.06    0.37
   4  -2 -13    0.26    0.16
  -4   2  13    0.12    0.20
   4  -2 -12    3.92    0.29
  -4   2  12    4.35    0.34
   4  -2 -11    5.93    0.30
  -4   2  11    5.95    0.36
   4  -2 -10    4.09    0.25
  -4   2  10    4.61    0.31
   4  -2  -9    8.97    0.31
  -4   2   9    8.40    0.39
   4  -2  -8    1.11    0.11
  -4   2   8    1.11    0.21
   4  -2  -7   19.91    0.45
  -4   2   7   20.82    0.59
   4  -2  -6   14.47    0.32
  -4   2   6   13.92    0.44
   4  -2  -5    0.42    0.08
  -4   2   5    0.44    0.11
   4  -2  -4    0.20    0.06
  -4   2   4    0.15    0.10
  -4   2   4    0.13    0.03
   4  -2  -3   52.46    0.75
  -4   2   3   52.55    0.64
   4  -2  -2   48.71    0.55
   4  -2  -2   48.99    0.66
   4  -2  -2   49.98    0.68
   4  -2  -1   69.60    0.78
   4  -2  -1   69.70    0.89
   4  -2  -1   70.16    0.84
   4  -2   0    1.44    0.06
   4  -2   0    1.40    0.07
   4  -2   0    1.22    0.08
   4  -2   1   90.66    1.08
   4  -2   1   90.27    0.89
   4  -2   1   89.74    1.11
   4  -2   2    1.93    0.06
   4  -2   2    2.01    0.09
  -4   2  -2    1.76    0.11
   4  -2   3    8.02    0.11
   4  -2   3    7.62    0.21
  -4   2  -3    7.63    0.24
   4  -2   4   13.95    0.16
   4  -2   4   14.50    0.32
  -4   2  -4   14.94    0.38
   4  -2   5    2.22    0.05
   4  -2   5    2.50    0.12
  -4   2  -5    2.30    0.16
   4  -2   6    0.08    0.07
  -4   2  -6    0.07    0.07
   4  -2   7    8.71    0.28
  -4   2  -7    8.02    0.29
   4  -2   8    0.16    0.08
  -4   2  -8    0.13    0.08
   4  -2   9    0.31    0.11
  -4   2  -9    0.47    0.10
   4  -2  10    3.83    0.22
  -4   2 -10    3.40    0.21
   4  -2  11    6.42    0.31
  -4   2 -11    6.25    0.32
   4  -2  12    1.61    0.20
  -4   2 -12    1.71    0.19
   4  -2  13    0.52    0.20
  -4   2 -13    0.66    0.16
   4  -2  14    0.42    0.17
  -4   2 -14    0.50    0.17
   4  -2  15    3.23    0.30
  -4   2 -15    2.34    0.30
   4  -1 -16    0.12    0.19
  -4   1  16   -0.05    0.20
   4  -1 -15    3.15    0.30
  -4   1  15    3.31    0.34
   4  -1 -14    1.21    0.21
  -4   1  14    1.72    0.30
   4  -1 -13    0.44    0.17
  -4   1  13    0.12    0.21
   4  -1 -12    7.04    0.35
  -4   1  12    8.17    0.42
   4  -1 -11    6.44    0.32
  -4   1  11    6.87    0.37
   4  -1 -10    0.11    0.09
  -4   1  10    0.13    0.12
   4  -1  -9    0.01    0.06
  -4   1   9   -0.02    0.08
   4  -1  -8    0.53    0.09
  -4   1   8    0.44    0.13
   4  -1  -7    0.70    0.09
  -4   1   7    0.52    0.13
   4  -1  -6   10.51    0.28
  -4   1   6   11.00    0.37
   4  -1  -5    2.49    0.12
  -4   1   5    2.56    0.16
   4  -1  -4    0.15    0.05
  -4   1   4    0.12    0.07
  -4   1   4    0.08    0.02
   4  -1  -3    5.80    0.16
   4  -1  -3    6.05    0.09
  -4   1   3    6.22    0.20
   4  -1  -2    5.27    0.14
   4  -1  -2    5.16    0.10
  -4   1   2    5.74    0.19
   4  -1  -1   18.54    0.33
   4  -1  -1   18.41    0.25
  -4   1   1   19.19    0.36
   4  -1   0    5.80    0.15
   4  -1   0    6.04    0.13
  -4   1   0    6.36    0.16
   4  -1   1    3.77    0.11
   4  -1   1    3.58    0.11
  -4   1  -1    3.42    0.10
   4  -1   2    2.52    0.10
  -4   1  -2    2.36    0.06
  -4   1  -2    2.61    0.14
   4  -1   3   37.04    0.59
  -4   1  -3   37.33    0.71
   4  -1   4   10.39    0.26
  -4   1  -4   10.72    0.31
   4  -1   5    6.57    0.21
  -4   1  -5    7.30    0.25
   4  -1   6   12.53    0.33
  -4   1  -6   11.97    0.35
   4  -1   7   17.75    0.48
  -4   1  -7   16.57    0.45
   4  -1   8    0.87    0.12
  -4   1  -8    0.59    0.14
   4  -1   9    6.46    0.29
  -4   1  -9    6.20    0.33
   4  -1  10    0.31    0.13
  -4   1 -10    0.53    0.12
   4  -1  11    0.07    0.10
  -4   1 -11    0.00    0.10
   4  -1  12    2.67    0.28
  -4   1 -12    2.63    0.24
   4  -1  13    0.21    0.15
  -4   1 -13    0.24    0.14
   4  -1  14    0.07    0.15
  -4   1 -14    0.18    0.15
   4  -1  15    0.56    0.19
  -4   1 -15    0.40    0.20
   4   0 -16    0.96    0.31
  -4   0  16    0.86    0.31
   4   0 -15    0.27    0.18
  -4   0  15    0.34    0.21
   4   0 -14    1.48    0.22
  -4   0  14    1.66    0.30
   4   0 -13    7.12    0.37
  -4   0  13    7.12    0.47
   4   0 -12    0.11    0.11
  -4   0  12    0.01    0.13
   4   0 -11   -0.05    0.10
  -4   0  11    0.01    0.11
   4   0 -10    0.74    0.13
  -4   0  10    0.66    0.15
   4   0  -9    2.07    0.16
  -4   0   9    1.93    0.18
   4   0  -8    0.47    0.10
  -4   0   8    0.57    0.15
   4   0  -7   18.25    0.43
  -4   0   7   18.46    0.50
   4   0  -6    8.93    0.25
  -4   0   6    8.82    0.29
   4   0  -5    1.16    0.09
  -4   0   5    0.94    0.11
   4   0  -4    5.43    0.17
  -4   0   4    5.91    0.20
   4   0  -3    7.71    0.19
  -4   0   3    7.70    0.23
   4   0  -2    1.81    0.09
   4   0  -2    1.58    0.05
  -4   0   2    1.95    0.10
   4   0  -1   61.03    0.68
   4   0  -1   61.08    0.84
  -4   0   1   61.27    0.81
   4   0   0    0.48    0.05
   4   0   0    0.45    0.05
  -4   0   0    0.32    0.05
   4   0   1   17.13    0.32
   4   0   1   16.99    0.30
  -4   0  -1   17.57    0.23
   4   0   2    1.32    0.10
  -4   0  -2    1.31    0.03
  -4   0  -2    1.28    0.12
   4   0   3   42.37    0.68
  -4   0  -3   42.48    0.87
   4   0   4    9.82    0.27
  -4   0  -4    9.43    0.30
   4   0   5    4.47    0.18
  -4   0  -5    4.41    0.20
   4   0   6   13.45    0.37
  -4   0  -6   13.68    0.41
   4   0   7    0.21    0.09
  -4   0  -7    0.06    0.09
   4   0   8    2.51    0.18
  -4   0  -8    2.57    0.22
   4   0   9    1.76    0.20
  -4   0  -9    1.50    0.17
   4   0  10    2.90    0.21
  -4   0 -10    2.54    0.25
   4   0  11   -0.08    0.12
  -4   0 -11   -0.09    0.12
   4   0  12    0.06    0.11
  -4   0 -12   -0.08    0.11
   4   0  13    0.70    0.18
  -4   0 -13    0.43    0.22
   4   0  14    1.33    0.27
  -4   0 -14    1.05    0.27
   4   1 -16    0.12    0.18
  -4  -1  16    0.19    0.18
   4   1 -15    1.03    0.22
  -4  -1  15    1.55    0.24
   4   1 -14    1.14    0.22
  -4  -1  14    1.49    0.28
   4   1 -13    0.07    0.13
  -4  -1  13    0.20    0.14
   4   1 -12    1.13    0.22
  -4  -1  12    0.97    0.22
   4   1 -11    0.35    0.12
  -4  -1  11    0.08    0.14
   4   1 -10    3.98    0.27
  -4  -1  10    4.37    0.27
   4   1  -9    1.62    0.14
  -4  -1   9    1.85    0.18
   4   1  -8    2.70    0.16
  -4  -1   8    2.62    0.19
   4   1  -7    0.39    0.08
  -4  -1   7    0.48    0.10
   4   1  -6    4.95    0.18
  -4  -1   6    5.05    0.21
   4   1  -5   18.14    0.39
  -4  -1   5   17.55    0.42
   4   1  -4   34.67    0.61
  -4  -1   4   36.09    0.66
   4   1  -3   -0.02    0.04
   4   1  -3    0.01    0.02
  -4  -1   3    0.02    0.05
   4   1  -2    0.43    0.04
   4   1  -2    0.41    0.06
  -4  -1   2    0.44    0.07
   4   1  -1    9.18    0.18
   4   1  -1    9.48    0.22
  -4  -1   1    8.98    0.19
   4   1   0   87.60    1.18
   4   1   0   86.77    1.02
  -4  -1   0   84.66    0.93
   4   1   1    8.86    0.21
   4   1   1    8.66    0.19
  -4  -1  -1    8.50    0.14
   4   1   2    6.39    0.17
  -4  -1  -2    6.75    0.25
   4   1   3   38.41    0.66
  -4  -1  -3   38.32    0.81
   4   1   4    9.35    0.28
  -4  -1  -4    8.34    0.32
   4   1   5   75.07    1.29
  -4  -1  -5   72.70    1.43
   4   1   6   14.35    0.40
  -4  -1  -6   15.63    0.51
   4   1   7    2.85    0.19
  -4  -1  -7    3.11    0.21
  -4  -1  -8    8.80    0.35
   4   1   9    1.25    0.15
  -4  -1  -9    0.92    0.16
   4   1  10    0.40    0.14
  -4  -1 -10    0.46    0.14
   4   1  11    1.03    0.19
  -4  -1 -11    1.19    0.19
   4   1  12    7.24    0.45
  -4  -1 -12    7.53    0.42
   4   1  13    0.15    0.14
  -4  -1 -13    0.01    0.13
   4   1  14    0.02    0.16
  -4  -1 -14   -0.17    0.16
   4   2 -16    0.19    0.17
  -4  -2  16    0.10    0.20
   4   2 -15    0.18    0.14
  -4  -2  15   -0.13    0.16
   4   2 -14    0.28    0.16
  -4  -2  14    0.30    0.21
   4   2 -13    0.20    0.13
  -4  -2  13    0.15    0.15
   4   2 -12    2.82    0.23
  -4  -2  12    2.22    0.24
   4   2 -11    0.30    0.12
  -4  -2  11    0.16    0.13
   4   2 -10    1.38    0.19
  -4  -2  10    1.36    0.18
   4   2  -9    0.01    0.09
  -4  -2   9    0.02    0.09
   4   2  -8    1.00    0.12
  -4  -2   8    0.90    0.13
   4   2  -7    0.16    0.09
  -4  -2   7    0.21    0.09
   4   2  -6   21.80    0.48
  -4  -2   6   20.76    0.51
   4   2  -5    9.72    0.14
   4   2  -5   10.50    0.28
  -4  -2   5   10.87    0.30
   4   2  -4    0.03    0.06
  -4  -2   4   -0.07    0.06
   4   2  -3    7.40    0.14
   4   2  -3    7.61    0.21
  -4  -2   3    7.75    0.21
   4   2  -2    7.13    0.16
   4   2  -2    6.83    0.21
  -4  -2   2    7.04    0.19
   4   2  -1    0.88    0.06
   4   2  -1    0.68    0.09
  -4  -2   1    0.76    0.07
   4   2   0   10.39    0.25
   4   2   0   10.45    0.22
  -4  -2   0    9.56    0.18
   4   2   1    2.54    0.13
  -4  -2  -1    2.54    0.17
  -4  -2  -1    2.74    0.08
   4   2   2    0.36    0.08
  -4  -2  -2    0.37    0.03
  -4  -2  -2    0.49    0.10
   4   2   3    0.32    0.07
  -4  -2  -3    0.51    0.12
   4   2   4    0.17    0.08
  -4  -2  -4    0.18    0.09
   4   2   5   16.06    0.42
  -4  -2  -5   16.74    0.52
   4   2   6    2.36    0.18
  -4  -2  -6    1.91    0.18
   4   2   7    0.67    0.13
  -4  -2  -7    0.62    0.13
   4   2   8   -0.05    0.08
  -4  -2  -8    0.10    0.11
   4   2   9    0.97    0.16
  -4  -2  -9    0.96    0.20
   4   2  10    5.63    0.33
  -4  -2 -10    5.65    0.32
   4   2  11    1.17    0.20
  -4  -2 -11    1.08    0.19
   4   2  12    0.08    0.17
  -4  -2 -12    0.08    0.14
   4   2  13    0.32    0.18
  -4  -2 -13    0.38    0.20
   4   3 -16    0.47    0.20
  -4  -3  16    0.48    0.21
   4   3 -15    3.79    0.36
  -4  -3  15    4.37    0.42
   4   3 -14    2.10    0.31
  -4  -3  14    2.05    0.30
   4   3 -13    0.33    0.16
  -4  -3  13    0.43    0.20
   4   3 -12    3.94    0.28
  -4  -3  12    4.17    0.30
   4   3 -11   14.60    0.51
  -4  -3  11   13.60    0.57
   4   3 -10    0.10    0.08
  -4  -3  10   -0.06    0.10
   4   3  -9    0.02    0.08
  -4  -3   9    0.11    0.09
   4   3  -8    1.30    0.14
  -4  -3   8    1.49    0.18
   4   3  -7    0.22    0.08
   4   3  -7    0.13    0.03
  -4  -3   7    0.22    0.09
   4   3  -6   19.53    0.46
   4   3  -6   18.25    0.27
  -4  -3   6   19.95    0.52
   4   3  -5    9.08    0.17
   4   3  -5    9.46    0.28
  -4  -3   5    9.82    0.28
   4   3  -4    1.21    0.07
   4   3  -4    1.11    0.10
  -4  -3   4    1.25    0.11
   4   3  -3    6.66    0.16
   4   3  -3    6.85    0.23
  -4  -3   3    6.56    0.20
   4   3  -2    1.46    0.09
   4   3  -2    1.52    0.10
  -4  -3   2    1.65    0.09
   4   3  -1    2.97    0.13
   4   3  -1    2.87    0.11
  -4  -3   1    2.82    0.12
   4   3   0   10.43    0.27
   4   3   0   11.53    0.26
  -4  -3   0   10.45    0.22
   4   3   1    2.39    0.12
  -4  -3  -1    2.29    0.09
  -4  -3  -1    2.84    0.20
   4   3   2    0.37    0.07
  -4  -3  -2    0.10    0.10
  -4  -3  -2    0.12    0.04
   4   3   3    0.46    0.08
  -4  -3  -3    0.10    0.03
  -4  -3  -3    0.10    0.09
   4   3   4    1.48    0.13
  -4  -3  -4    1.59    0.16
  -4  -3  -4    1.29    0.06
   4   3   5    3.19    0.22
  -4  -3  -5    3.33    0.21
   4   3   6    1.06    0.14
  -4  -3  -6    0.88    0.14
   4   3   7    1.29    0.19
  -4  -3  -7    1.55    0.16
   4   3   8   -0.07    0.10
  -4  -3  -8   -0.03    0.10
   4   3   9   15.63    0.62
  -4  -3  -9   15.31    0.59
   4   3  10    1.71    0.19
  -4  -3 -10    0.68    0.18
   4   3  11    2.55    0.32
  -4  -3 -11    2.92    0.27
   4   3  12   -0.07    0.12
  -4  -3 -12    0.06    0.11
   4   3  13    0.98    0.24
  -4  -3 -13    0.85    0.22
   4   4 -15   -0.00    0.14
  -4  -4  15   -0.05    0.18
   4   4 -14    2.02    0.31
  -4  -4  14    1.65    0.31
   4   4 -13    0.79    0.19
  -4  -4  13    0.86    0.19
   4   4 -12   -0.05    0.11
  -4  -4  12    0.23    0.15
   4   4 -11    0.11    0.11
  -4  -4  11    0.05    0.11
   4   4 -10    4.14    0.25
  -4  -4  10    4.09    0.31
   4   4  -9    2.23    0.18
  -4  -4   9    2.57    0.20
   4   4  -8    3.73    0.24
  -4  -4   8    4.17    0.23
   4   4  -7    1.64    0.16
   4   4  -7    1.25    0.07
  -4  -4   7    1.36    0.15
   4   4  -6    0.39    0.09
  -4  -4   6    0.42    0.11
   4   4  -5    4.02    0.13
   4   4  -5    4.06    0.18
  -4  -4   5    3.82    0.19
   4   4  -4    0.01    0.05
   4   4  -4    0.09    0.06
  -4  -4   4    0.14    0.08
   4   4  -3    8.94    0.22
   4   4  -3    9.31    0.28
  -4  -4   3    9.34    0.26
   4   4  -2    1.87    0.10
   4   4  -2    1.82    0.13
  -4  -4   2    2.06    0.11
   4   4  -1   -0.03    0.06
   4   4  -1   -0.05    0.06
  -4  -4   1    0.00    0.05
   4   4   0    9.02    0.25
   4   4   0    8.28    0.26
  -4  -4   0    7.63    0.20
   4   4   1    1.65    0.12
  -4  -4  -1    1.63    0.09
  -4  -4  -1    1.50    0.18
   4   4   2    0.62    0.10
  -4  -4  -2    0.60    0.12
  -4  -4  -2    0.55    0.07
   4   4   3    0.20    0.10
  -4  -4  -3    0.20    0.11
  -4  -4  -3    0.10    0.05
   4   4   4    0.54    0.11
  -4  -4  -4    0.70    0.12
  -4  -4  -4    0.38    0.06
   4   4   5    3.44    0.22
  -4  -4  -5    4.07    0.24
   4   4   6    0.13    0.12
  -4  -4  -6    0.18    0.13
   4   4   7    0.38    0.13
  -4  -4  -7    0.33    0.12
   4   4   8    3.42    0.26
  -4  -4  -8    3.76    0.25
   4   4   9    8.19    0.40
  -4  -4  -9    7.25    0.39
   4   4  10    6.73    0.40
  -4  -4 -10    6.82    0.39
   4   4  11    0.14    0.15
  -4  -4 -11   -0.12    0.16
   4   4  12    0.58    0.20
  -4  -4 -12    0.44    0.24
   4   5 -15    0.98    0.23
  -4  -5  15    0.79    0.22
   4   5 -14   -0.02    0.12
  -4  -5  14    0.02    0.15
   4   5 -13    2.84    0.26
  -4  -5  13    2.52    0.28
   4   5 -12    0.87    0.18
  -4  -5  12    0.89    0.20
   4   5 -11   15.95    0.58
  -4  -5  11   16.03    0.59
   4   5 -10    1.93    0.18
  -4  -5  10    1.83    0.19
   4   5  -9    0.57    0.13
  -4  -5   9    0.58    0.15
   4   5  -8    2.13    0.11
   4   5  -8    2.31    0.20
  -4  -5   8    2.41    0.19
   4   5  -7   13.41    0.30
   4   5  -7   14.44    0.44
  -4  -5   7   13.15    0.46
   4   5  -6    2.19    0.17
  -4  -5   6    2.80    0.22
   4   5  -5    0.45    0.08
   4   5  -5    0.44    0.09
  -4  -5   5    0.44    0.10
   4   5  -4    3.62    0.14
   4   5  -4    4.03    0.20
  -4  -5   4    4.35    0.20
   4   5  -3    0.17    0.07
   4   5  -3    0.06    0.07
  -4  -5   3    0.14    0.07
   4   5  -2    2.81    0.16
   4   5  -2    2.75    0.16
  -4  -5   2    2.75    0.15
   4   5  -1    0.02    0.05
   4   5  -1   -0.01    0.06
  -4  -5   1   -0.07    0.06
   4   5   0    0.60    0.10
  -4  -5   0    0.59    0.13
  -4  -5   0    0.75    0.09
   4   5   1    0.54    0.11
  -4  -5  -1    0.56    0.12
  -4  -5  -1    0.50    0.08
   4   5   2    3.49    0.19
  -4  -5  -2    3.33    0.15
  -4  -5  -2    3.38    0.22
   4   5   3    1.57    0.16
  -4  -5  -3    1.24    0.19
  -4  -5  -3    1.34    0.10
   4   5   4   -0.12    0.11
  -4  -5  -4   -0.06    0.10
  -4  -5  -4   -0.01    0.05
   4   5   5   15.12    0.50
  -4  -5  -5   16.60    0.60
   4   5   6    1.59    0.21
  -4  -5  -6    2.31    0.23
   4   5   7    0.91    0.19
  -4  -5  -7    0.67    0.15
   4   5   8    0.80    0.16
  -4  -5  -8    0.66    0.16
   4   5   9   -0.08    0.13
  -4  -5  -9   -0.05    0.12
   4   5  10    6.82    0.48
  -4  -5 -10    6.39    0.38
   4   5  11    1.27    0.24
  -4  -5 -11    1.10    0.22
   4   6 -14   -0.09    0.18
  -4  -6  14   -0.02    0.14
   4   6 -13    0.99    0.25
  -4  -6  13    1.11    0.21
   4   6 -12    3.74    0.29
  -4  -6  12    2.87    0.28
   4   6 -11    1.45    0.20
  -4  -6  11    1.79    0.22
   4   6 -10    6.69    0.32
  -4  -6  10    5.63    0.34
   4   6  -9    0.33    0.12
  -4  -6   9    0.56    0.13
   4   6  -8    1.21    0.11
   4   6  -8    1.35    0.17
  -4  -6   8    1.35    0.17
   4   6  -7    0.50    0.10
   4   6  -7    0.67    0.11
  -4  -6   7    0.67    0.14
   4   6  -6    0.94    0.11
   4   6  -6    0.85    0.12
  -4  -6   6    1.09    0.14
   4   6  -5    2.12    0.14
   4   6  -5    2.06    0.14
  -4  -6   5    1.91    0.19
   4   6  -4    0.03    0.06
   4   6  -4    0.07    0.08
  -4  -6   4    0.10    0.10
   4   6  -3    0.49    0.10
   4   6  -3    0.32    0.11
  -4  -6   3    0.80    0.10
   4   6  -2    0.15    0.08
   4   6  -2    0.22    0.08
  -4  -6   2    0.11    0.09
   4   6  -1    6.00    0.28
  -4  -6   1    6.01    0.21
   4   6   0   17.89    0.49
  -4  -6   0   18.01    0.44
  -4  -6   0   16.73    0.61
   4   6   1    0.73    0.13
  -4  -6  -1    0.93    0.14
  -4  -6  -1    0.78    0.12
   4   6   2   29.24    0.74
  -4  -6  -2   28.42    0.82
  -4  -6  -2   27.81    0.63
   4   6   3    2.04    0.20
  -4  -6  -3    1.97    0.22
  -4  -6  -3    2.05    0.13
   4   6   4    4.07    0.25
  -4  -6  -4    4.13    0.25
  -4  -6  -4    3.36    0.18
   4   6   5   12.11    0.46
  -4  -6  -5   11.32    0.45
   4   6   6    1.18    0.19
  -4  -6  -6    1.11    0.16
   4   6   7   -0.09    0.10
  -4  -6  -7    0.07    0.09
   4   6   8    0.20    0.15
  -4  -6  -8    0.23    0.13
   4   6   9    0.15    0.13
  -4  -6  -9   -0.11    0.14
   4   6  10   23.87    0.93
  -4  -6 -10   23.91    0.87
   4   7 -13    1.49    0.23
  -4  -7  13    1.55    0.25
   4   7 -12    1.89    0.23
  -4  -7  12    1.59    0.23
   4   7 -11    1.35    0.20
  -4  -7  11    1.84    0.28
   4   7 -10    1.73    0.18
  -4  -7  10    1.11    0.21
   4   7  -9   -0.11    0.12
  -4  -7   9   -0.05    0.12
   4   7  -8   -0.00    0.07
   4   7  -8   -0.17    0.09
  -4  -7   8    0.13    0.10
   4   7  -7    0.04    0.06
   4   7  -7   -0.01    0.07
  -4  -7   7   -0.07    0.11
   4   7  -6    1.06    0.12
   4   7  -6    0.79    0.12
  -4  -7   6    0.95    0.15
   4   7  -5    0.56    0.09
   4   7  -5    0.23    0.09
  -4  -7   5    0.20    0.11
   4   7  -4    0.10    0.08
   4   7  -4    0.08    0.07
  -4  -7   4    0.09    0.09
   4   7  -3    0.89    0.12
   4   7  -3    0.98    0.12
  -4  -7   3    1.08    0.13
   4   7  -2    8.49    0.31
   4   7  -2    8.11    0.35
  -4  -7   2    8.08    0.31
   4   7  -1   64.64    1.35
  -4  -7   1   64.21    1.65
  -4  -7   1   65.74    1.39
   4   7   0    9.50    0.38
  -4  -7   0    9.40    0.45
  -4  -7   0   11.06    0.38
   4   7   1    1.76    0.18
  -4  -7  -1    1.78    0.17
  -4  -7  -1    2.00    0.21
   4   7   2   18.82    0.59
  -4  -7  -2   18.30    0.64
  -4  -7  -2   20.03    0.57
   4   7   3    2.35    0.23
  -4  -7  -3    3.13    0.20
  -4  -7  -3    2.94    0.24
   4   7   4    0.16    0.15
  -4  -7  -4    0.52    0.14
  -4  -7  -4    0.17    0.10
   4   7   5    0.31    0.13
  -4  -7  -5    0.07    0.10
   4   7   6    1.04    0.19
  -4  -7  -6    0.77    0.18
   4   7   7    0.50    0.18
  -4  -7  -7    0.41    0.18
   4   7   8    0.76    0.21
  -4  -7  -8    0.64    0.20
   4   7   9    0.29    0.18
  -4  -7  -9    0.26    0.15
   4   8 -12    1.08    0.19
  -4  -8  12    1.61    0.25
   4   8 -11    4.57    0.34
  -4  -8  11    5.11    0.43
   4   8 -10    0.76    0.18
  -4  -8  10    0.94    0.24
   4   8  -9    0.04    0.09
  -4  -8   9   -0.15    0.13
   4   8  -8    0.32    0.12
   4   8  -8    0.35    0.13
  -4  -8   8    0.36    0.15
   4   8  -7   -0.04    0.08
   4   8  -7    0.10    0.08
  -4  -8   7    0.06    0.10
   4   8  -6    0.43    0.13
   4   8  -6    0.11    0.12
  -4  -8   6    0.58    0.13
   4   8  -5    0.03    0.08
   4   8  -5   -0.04    0.10
  -4  -8   5   -0.11    0.11
   4   8  -4    0.64    0.12
   4   8  -4    0.75    0.15
  -4  -8   4    0.73    0.17
   4   8  -3    0.33    0.12
   4   8  -3    0.23    0.10
  -4  -8   3    0.15    0.11
   4   8  -2    1.21    0.20
  -4  -8   2    1.53    0.15
  -4  -8   2    0.90    0.21
   4   8  -1    1.96    0.19
  -4  -8   1    1.74    0.19
  -4  -8   1    2.72    0.19
   4   8   0    1.60    0.18
  -4  -8   0    1.50    0.15
  -4  -8   0    1.66    0.21
   4   8   1    4.15    0.31
  -4  -8  -1    4.18    0.28
  -4  -8  -1    3.78    0.22
   4   8   2    1.22    0.18
  -4  -8  -2    1.30    0.18
  -4  -8  -2    1.13    0.15
   4   8   3   -0.08    0.11
  -4  -8  -3    0.19    0.11
  -4  -8  -3    0.05    0.12
   4   8   4   -0.10    0.12
  -4  -8  -4    0.04    0.11
   4   8   5   -0.04    0.13
  -4  -8  -5   -0.02    0.11
   4   8   6    0.66    0.18
  -4  -8  -6    0.28    0.14
   4   8   7   -0.01    0.17
  -4  -9  11   -0.00    0.13
  -4  -9  10   -0.05    0.14
  -4  -9   9   -0.12    0.19
   4   9  -8   -0.04    0.10
  -4  -9   8   -0.03    0.12
   4   9  -7    0.02    0.11
  -4  -9   7    0.11    0.12
   4   9  -6    0.55    0.13
  -4  -9   6    0.38    0.16
   4   9  -5    0.44    0.14
  -4  -9   5    0.34    0.17
   4   9  -4    0.23    0.12
  -4  -9   4    0.46    0.17
   4   9  -3    0.19    0.10
  -4  -9   3   -0.07    0.13
   4   9  -2    0.29    0.14
  -4  -9   2    0.49    0.14
   4   9  -1    1.68    0.20
  -4  -9   1    1.59    0.19
   4   9   0    0.36    0.19
  -4  -9   0    0.57    0.17
   4   9   1    1.10    0.24
  -4  -9  -1    1.27    0.21
   4   9   2    0.09    0.14
  -4  -9  -2    0.26    0.14
   4   9   3    0.05    0.12
  -4  -9  -3   -0.08    0.11
   4   9   4    0.74    0.20
   4   9   5    0.01    0.13
  -4 -10   9    0.16    0.17
  -4 -10   8    0.02    0.16
   4  10  -7    0.31    0.13
  -4 -10   7    0.16    0.20
   4  10  -6    0.69    0.18
  -4 -10   6    1.22    0.24
   4  10  -5    1.92    0.21
  -4 -10   5    2.36    0.25
   4  10  -4    0.82    0.20
  -4 -10   4    0.79    0.18
   4  10  -3    0.91    0.18
  -4 -10   3    1.02    0.20
   4  10  -2    2.78    0.26
  -4 -10   2    2.92    0.31
   4  10  -1    8.62    0.48
  -4 -10   1    8.63    0.46
   4  10   0   -0.03    0.13
  -4 -10   0    0.14    0.14
   4  10   1    0.78    0.19
  -4 -10  -1    0.71    0.18
   4  10   2    0.88    0.21
   4  10   3    0.56    0.25
   5 -13  -2    2.87    0.40
  -5  13   2    2.33    0.34
   5 -13  -1    1.06    0.26
  -5  13   1    0.73    0.25
   5 -13   0    1.24    0.26
  -5  13   0    1.22    0.26
   5 -13   1    0.37    0.20
  -5  13  -1    0.32    0.24
   5 -13   2    0.06    0.15
  -5  13  -2    0.01    0.17
   5 -13   3   -0.32    0.25
  -5  13  -3   -0.27    0.29
   5 -13   4   -0.17    0.16
  -5  13  -4    0.05    0.19
   5 -13   5    0.75    0.24
  -5  13  -5    1.08    0.31
   5 -13   6    0.36    0.18
  -5  13  -6    0.01    0.23
   5 -12  -5   -0.14    0.20
  -5  12   5    0.14    0.14
   5 -12  -4   -0.01    0.15
  -5  12   4   -0.06    0.14
   5 -12  -3    3.32    0.34
  -5  12   3    3.34    0.40
   5 -12  -2    0.51    0.20
  -5  12   2    0.55    0.19
   5 -12  -1    0.30    0.17
  -5  12   1    0.12    0.21
   5 -12   0    0.76    0.22
  -5  12   0    1.13    0.25
   5 -12   1    0.09    0.20
  -5  12  -1    1.05    0.22
   5 -12   2    0.23    0.15
  -5  12  -2   -0.08    0.17
  -5  12  -3    1.51    0.29
   5 -12   4    1.47    0.23
  -5  12  -4    1.41    0.27
   5 -12   5    0.09    0.15
  -5  12  -5    0.00    0.23
   5 -12   6    1.14    0.22
  -5  12  -6    1.11    0.37
   5 -12   7    0.04    0.13
  -5  12  -7    0.07    0.23
   5 -12   8    0.05    0.17
  -5  12  -8    0.08    0.20
   5 -12   9    0.22    0.16
  -5  12  -9   -0.05    0.27
   5 -11  -7    1.61    0.32
  -5  11   7    1.44    0.27
   5 -11  -6    4.54    0.36
  -5  11   6    4.28    0.32
   5 -11  -5   -0.01    0.16
  -5  11   5    0.07    0.12
   5 -11  -4    2.25    0.28
  -5  11   4    2.09    0.29
   5 -11  -3    0.96    0.22
  -5  11   3    1.13    0.24
   5 -11  -2    1.37    0.23
  -5  11   2    1.27    0.26
   5 -11  -1    0.41    0.23
  -5  11   1    0.75    0.20
   5 -11   0    4.60    0.38
  -5  11   0    3.89    0.35
   5 -11   1    3.34    0.30
  -5  11  -1    4.11    0.35
   5 -11   2    0.85    0.19
  -5  11  -2    1.06    0.23
   5 -11   3    0.00    0.12
  -5  11  -3    0.13    0.16
   5 -11   4   20.34    0.71
  -5  11  -4   19.84    0.90
   5 -11   5    0.40    0.18
  -5  11  -5    2.00    0.29
   5 -11   6    0.70    0.16
  -5  11  -6    0.31    0.27
   5 -11   7    0.75    0.22
  -5  11  -7    1.34    0.33
   5 -11   8    0.52    0.16
  -5  11  -8    0.29    0.24
   5 -11   9    0.34    0.15
  -5  11  -9    0.28    0.30
   5 -11  10   -0.01    0.12
  -5  11 -10    0.17    0.20
   5 -11  11    0.46    0.16
  -5  11 -11   -0.14    0.32
   5 -10  -9   -0.05    0.15
  -5  10   9    0.13    0.11
   5 -10  -8    0.85    0.20
  -5  10   8    0.62    0.16
   5 -10  -7    3.81    0.31
  -5  10   7    3.00    0.26
   5 -10  -6    1.07    0.21
  -5  10   6    1.02    0.17
   5 -10  -5    1.54    0.21
  -5  10   5    1.47    0.23
   5 -10  -4    0.40    0.15
  -5  10   4    0.42    0.15
   5 -10  -3    5.05    0.31
  -5  10   3    3.90    0.35
   5 -10  -2    0.23    0.14
  -5  10   2    0.35    0.15
   5 -10  -1    1.29    0.20
  -5  10   1    1.05    0.20
   5 -10   0    0.22    0.16
  -5  10   0    0.36    0.16
   5 -10   1    0.47    0.15
  -5  10  -1    0.47    0.22
   5 -10   2   -0.10    0.10
  -5  10  -2    0.19    0.13
   5 -10   3   11.32    0.50
  -5  10  -3   11.71    0.59
   5 -10   4   14.34    0.51
  -5  10  -4   13.86    0.66
   5 -10   5    3.29    0.24
  -5  10  -5    3.45    0.43
   5 -10   6    0.53    0.15
  -5  10  -6    1.05    0.24
   5 -10   7   14.40    0.51
  -5  10  -7   13.11    0.70
   5 -10   8    1.11    0.17
  -5  10  -8    1.29    0.34
   5 -10   9    1.01    0.19
  -5  10  -9    0.64    0.26
   5 -10  10    0.15    0.15
  -5  10 -10    0.12    0.22
   5 -10  11   -0.10    0.14
  -5  10 -11   -0.05    0.22
  -5  10 -12    0.10    0.28
   5  -9 -10    0.57    0.19
   5  -9  -9    1.56    0.23
  -5   9   9    1.93    0.22
   5  -9  -8    0.08    0.12
  -5   9   8    0.03    0.09
   5  -9  -7    4.17    0.35
  -5   9   7    3.53    0.24
   5  -9  -6    0.57    0.15
  -5   9   6    0.40    0.15
   5  -9  -5    6.59    0.34
  -5   9   5    6.46    0.32
   5  -9  -4   11.55    0.47
  -5   9   4   11.75    0.43
   5  -9  -3    0.28    0.12
  -5   9   3    0.25    0.13
   5  -9  -2    0.11    0.11
  -5   9   2    0.01    0.12
   5  -9  -1    0.03    0.09
  -5   9   1   -0.01    0.10
   5  -9   0    0.05    0.08
  -5   9   0   -0.08    0.12
   5  -9   1    0.34    0.13
  -5   9  -1   -0.08    0.17
   5  -9   2    0.38    0.12
  -5   9  -2    0.39    0.16
   5  -9   3    0.50    0.12
  -5   9  -3    0.63    0.22
   5  -9   4    0.62    0.12
  -5   9  -4    0.42    0.23
   5  -9   5   12.73    0.46
  -5   9  -5   12.78    0.62
   5  -9   6    7.07    0.30
  -5   9  -6    8.23    0.54
   5  -9   7   -0.03    0.08
  -5   9  -7   -0.08    0.19
   5  -9   8    2.44    0.19
  -5   9  -8    2.11    0.32
   5  -9   9    3.39    0.25
  -5   9  -9    2.92    0.37
   5  -9  10    0.06    0.09
   5  -9  11   -0.13    0.11
   5  -9  11    0.06    0.08
   5  -9  12    1.21    0.24
   5  -9  13    5.94    0.43
  -5   8  12    0.01    0.19
   5  -8 -11    0.11    0.13
  -5   8  11   -0.01    0.14
   5  -8 -10    1.05    0.19
   5  -8 -10    1.88    0.23
  -5   8  10    1.22    0.18
   5  -8  -9    0.33    0.13
   5  -8  -9    0.23    0.15
  -5   8   9    0.31    0.12
   5  -8  -8    2.42    0.18
   5  -8  -8    2.07    0.22
  -5   8   8    2.05    0.19
   5  -8  -7    0.73    0.12
   5  -8  -7    1.05    0.20
  -5   8   7    0.88    0.12
   5  -8  -6    3.26    0.25
   5  -8  -6    3.18    0.17
  -5   8   6    3.58    0.20
   5  -8  -5   42.51    1.02
   5  -8  -5   38.03    0.72
  -5   8   5   40.00    0.93
   5  -8  -4   -0.10    0.10
  -5   8   4    0.04    0.07
   5  -8  -3    6.83    0.31
  -5   8   3    7.29    0.32
   5  -8  -2   11.00    0.39
  -5   8   2   11.75    0.45
   5  -8  -1   29.11    0.72
  -5   8   1   30.28    0.84
   5  -8   0    2.28    0.18
  -5   8   0    2.88    0.27
   5  -8   1    0.71    0.12
  -5   8  -1    0.73    0.16
   5  -8   2    0.93    0.12
  -5   8  -2    1.09    0.17
   5  -8   3    1.93    0.16
  -5   8  -3    2.51    0.28
   5  -8   4    0.67    0.12
  -5   8  -4    1.27    0.20
   5  -8   5   66.48    1.25
  -5   8  -5   65.65    1.72
  -5   8  -5   60.03    0.93
   5  -8   6    2.05    0.20
   5  -8   6    2.38    0.18
  -5   8  -6    1.88    0.11
   5  -8   7    1.36    0.18
   5  -8   7    1.50    0.14
  -5   8  -7    1.32    0.11
   5  -8   8    0.77    0.16
   5  -8   8    0.70    0.12
  -5   8  -8    0.82    0.09
   5  -8   9    0.89    0.21
   5  -8   9    0.63    0.14
  -5   8  -9    0.92    0.13
   5  -8  10   10.00    0.48
   5  -8  10    8.74    0.36
  -5   8 -10    8.49    0.34
   5  -8  11    0.24    0.16
   5  -8  11    0.21    0.12
  -5   8 -11    0.37    0.13
   5  -8  12   -0.02    0.17
  -5   8 -12   -0.07    0.12
   5  -8  13    1.77    0.33
  -5   8 -13    2.10    0.20
   5  -7 -12   -0.00    0.16
  -5   7  12   -0.29    0.25
   5  -7 -11    3.63    0.26
  -5   7  11    3.88    0.45
   5  -7 -10    0.65    0.17
   5  -7 -10    0.60    0.13
  -5   7  10    0.42    0.10
   5  -7  -9    2.02    0.20
   5  -7  -9    2.28    0.22
  -5   7   9    2.19    0.17
   5  -7  -8    1.47    0.19
   5  -7  -8    1.39    0.16
  -5   7   8    1.33    0.13
   5  -7  -7   12.85    0.38
   5  -7  -7   12.99    0.46
  -5   7   7   12.69    0.39
   5  -7  -6   35.33    0.92
   5  -7  -6   33.63    0.69
  -5   7   6   34.63    0.78
   5  -7  -5    5.02    0.19
   5  -7  -5    4.99    0.26
  -5   7   5    5.02    0.22
   5  -7  -4    1.99    0.17
   5  -7  -4    1.96    0.11
  -5   7   4    2.38    0.16
   5  -7  -3    2.07    0.17
   5  -7  -3    2.08    0.10
  -5   7   3    2.92    0.17
   5  -7  -2    0.88    0.11
   5  -7  -2    0.60    0.06
  -5   7   2    0.67    0.13
   5  -7  -1   13.45    0.25
   5  -7  -1   14.79    0.41
  -5   7   1   14.16    0.45
   5  -7   0    0.11    0.09
  -5   7   0    0.03    0.05
  -5   7   0    0.11    0.10
   5  -7   1    0.12    0.08
  -5   7  -1    0.17    0.10
  -5   7  -1    0.12    0.05
   5  -7   2    0.07    0.06
  -5   7  -2    0.13    0.11
  -5   7  -2    0.09    0.04
   5  -7   3    2.44    0.14
  -5   7  -3    2.46    0.23
  -5   7  -3    2.30    0.10
   5  -7   4   18.50    0.50
   5  -7   4   18.57    0.43
  -5   7  -4   16.92    0.33
   5  -7   5    0.47    0.11
   5  -7   5    0.43    0.09
  -5   7  -5    0.26    0.06
   5  -7   6   25.08    0.68
   5  -7   6   24.19    0.54
  -5   7  -6   22.28    0.47
   5  -7   7    0.80    0.15
   5  -7   7    1.15    0.10
  -5   7  -7    1.00    0.10
   5  -7   8    5.82    0.32
   5  -7   8    5.38    0.24
  -5   7  -8    5.78    0.24
   5  -7   9    9.68    0.42
   5  -7   9    8.91    0.30
  -5   7  -9    9.05    0.32
   5  -7  10    7.90    0.38
   5  -7  10    6.76    0.25
  -5   7 -10    6.62    0.28
   5  -7  11   -0.11    0.12
   5  -7  11    0.06    0.08
  -5   7 -11    0.10    0.11
   5  -7  12    1.24    0.21
  -5   7 -12    0.88    0.15
   5  -7  13    0.34    0.16
  -5   7 -13    0.16    0.16
   5  -7  14    0.22    0.19
  -5   7 -14    0.32    0.14
   5  -6 -13    0.28    0.17
  -5   6  13    0.67    0.27
   5  -6 -12    0.14    0.16
  -5   6  12    0.13    0.25
   5  -6 -11    0.36    0.13
  -5   6  11    0.16    0.22
   5  -6 -10    0.09    0.10
  -5   6  10    0.21    0.18
   5  -6  -9    0.76    0.15
   5  -6  -9    0.57    0.18
  -5   6   9    0.73    0.11
   5  -6  -8   10.33    0.35
   5  -6  -8    9.96    0.39
  -5   6   8    9.48    0.30
   5  -6  -7   56.24    1.05
   5  -6  -7   55.72    1.25
  -5   6   7   54.15    0.99
   5  -6  -6    2.09    0.14
   5  -6  -6    1.95    0.17
  -5   6   6    1.98    0.15
   5  -6  -5    2.75    0.15
   5  -6  -5    2.57    0.18
  -5   6   5    2.68    0.16
   5  -6  -4   66.21    1.27
   5  -6  -4   66.64    1.00
  -5   6   4   67.83    1.21
   5  -6  -3    1.39    0.15
   5  -6  -3    1.43    0.09
  -5   6   3    1.57    0.15
   5  -6  -2    2.44    0.18
   5  -6  -2    2.33    0.10
  -5   6   2    2.24    0.19
   5  -6  -1    0.55    0.11
   5  -6  -1    0.57    0.06
  -5   6   1    0.65    0.11
   5  -6   0    2.74    0.17
  -5   6   0    3.11    0.19
   5  -6   1    8.30    0.27
  -5   6  -1    7.92    0.33
  -5   6  -1    7.98    0.23
   5  -6   2    9.35    0.29
   5  -6   2    9.66    0.26
  -5   6  -2    8.69    0.23
   5  -6   3    1.42    0.12
   5  -6   3    1.23    0.09
  -5   6  -3    0.91    0.09
   5  -6   4    1.32    0.13
   5  -6   4    1.38    0.11
  -5   6  -4    1.39    0.11
   5  -6   5   21.13    0.54
   5  -6   5   20.22    0.43
  -5   6  -5   19.28    0.41
   5  -6   6    3.94    0.23
   5  -6   6    3.99    0.17
  -5   6  -6    4.08    0.16
   5  -6   7    1.05    0.18
   5  -6   7    0.79    0.10
  -5   6  -7    0.98    0.12
   5  -6   8    1.39    0.16
   5  -6   8    1.19    0.11
  -5   6  -8    0.95    0.11
   5  -6   9    5.96    0.36
   5  -6   9    5.04    0.19
  -5   6  -9    5.77    0.28
   5  -6  10    5.12    0.30
   5  -6  10    4.64    0.19
  -5   6 -10    4.92    0.24
   5  -6  11    0.11    0.12
  -5   6 -11    0.07    0.12
   5  -6  12    0.37    0.15
  -5   6 -12    0.14    0.14
   5  -6  13    0.16    0.13
  -5   6 -13   -0.05    0.10
   5  -6  14    0.45    0.21
  -5   6 -14    0.11    0.18
   5  -5 -14    1.74    0.24
  -5   5  14    1.46    0.35
   5  -5 -13    0.11    0.14
  -5   5  13    0.17    0.21
   5  -5 -12    2.37    0.24
  -5   5  12    2.14    0.34
   5  -5 -11    0.20    0.14
  -5   5  11    0.21    0.19
   5  -5 -10    0.71    0.17
  -5   5  10    0.47    0.27
   5  -5  -9   -0.11    0.08
  -5   5   9   -0.05    0.15
  -5   5   9   -0.01    0.06
   5  -5  -8   11.09    0.35
   5  -5  -8   11.75    0.39
  -5   5   8   10.03    0.27
   5  -5  -7    0.72    0.12
   5  -5  -7    1.42    0.14
  -5   5   7    0.80    0.09
   5  -5  -6   25.48    0.54
   5  -5  -6   26.00    0.62
  -5   5   6   25.31    0.50
   5  -5  -5    0.02    0.06
   5  -5  -5   -0.02    0.08
  -5   5   5    0.33    0.07
   5  -5  -4    8.89    0.28
   5  -5  -4    7.97    0.22
  -5   5   4    8.35    0.25
   5  -5  -3    4.34    0.18
   5  -5  -3    4.90    0.17
  -5   5   3    4.86    0.18
   5  -5  -2    1.52    0.08
   5  -5  -2    1.26    0.10
  -5   5   2    1.30    0.11
   5  -5  -1    2.36    0.13
   5  -5  -1    2.66    0.11
  -5   5   1    2.47    0.17
   5  -5   0    0.70    0.07
   5  -5   0    0.92    0.08
   5  -5   0    0.68    0.08
   5  -5   1    4.44    0.18
   5  -5   1    3.98    0.15
  -5   5  -1    4.17    0.18
   5  -5   2    2.81    0.15
   5  -5   2    3.21    0.14
  -5   5  -2    3.04    0.15
   5  -5   3    1.18    0.11
   5  -5   3    1.22    0.08
  -5   5  -3    1.33    0.11
   5  -5   4    0.26    0.08
   5  -5   4    0.12    0.06
  -5   5  -4    0.11    0.06
   5  -5   5    1.94    0.15
   5  -5   5    1.96    0.10
  -5   5  -5    1.85    0.13
   5  -5   6    7.95    0.32
   5  -5   6    7.41    0.19
  -5   5  -6    7.08    0.23
   5  -5   7    2.39    0.18
   5  -5   7    2.28    0.11
  -5   5  -7    2.53    0.16
   5  -5   8    1.74    0.17
   5  -5   8    1.40    0.09
  -5   5  -8    1.94    0.14
   5  -5   9    0.80    0.15
   5  -5   9    0.70    0.07
  -5   5  -9    0.90    0.12
   5  -5  10   11.37    0.50
  -5   5 -10   10.95    0.39
   5  -5  11   -0.01    0.14
  -5   5 -11   -0.08    0.11
   5  -5  12    0.94    0.19
  -5   5 -12    1.03    0.20
   5  -5  13    0.35    0.17
  -5   5 -13    0.35    0.15
   5  -5  14    0.00    0.14
  -5   5 -14    0.10    0.13
   5  -4 -14    0.15    0.18
  -5   4  14    0.03    0.25
   5  -4 -13    0.32    0.21
  -5   4  13    0.70    0.29
   5  -4 -12    3.53    0.26
  -5   4  12    3.06    0.36
   5  -4 -11    8.16    0.41
  -5   4  11    7.69    0.51
   5  -4 -10    5.80    0.32
  -5   4  10    6.30    0.42
   5  -4  -9    0.09    0.09
  -5   4   9    0.16    0.14
   5  -4  -8    1.58    0.13
  -5   4   8    1.50    0.08
  -5   4   8    1.99    0.23
   5  -4  -7   26.73    0.62
  -5   4   7   26.79    0.84
  -5   4   7   25.82    0.43
   5  -4  -6   48.47    0.88
   5  -4  -6   48.54    0.96
  -5   4   6   47.39    0.68
   5  -4  -5   -0.01    0.06
   5  -4  -5    0.06    0.07
  -5   4   5    0.08    0.05
   5  -4  -4    5.98    0.18
   5  -4  -4    5.70    0.21
  -5   4   4    5.66    0.18
   5  -4  -3    1.64    0.11
   5  -4  -3    1.98    0.10
  -5   4   3    1.67    0.12
   5  -4  -2    7.63    0.22
   5  -4  -2    8.22    0.20
  -5   4   2    8.29    0.26
   5  -4  -1    1.86    0.09
   5  -4  -1    1.78    0.10
   5  -4  -1    1.88    0.09
   5  -4   0    2.32    0.10
   5  -4   0    2.09    0.11
   5  -4   0    2.14    0.10
   5  -4   1    2.73    0.12
   5  -4   1    2.67    0.11
   5  -4   1    2.58    0.12
   5  -4   2    0.02    0.05
   5  -4   2    0.02    0.04
  -5   4  -2    0.06    0.07
   5  -4   3    3.16    0.17
   5  -4   3    3.16    0.12
  -5   4  -3    3.35    0.15
   5  -4   4    0.20    0.08
   5  -4   4    0.10    0.05
  -5   4  -4    0.37    0.07
   5  -4   5    4.88    0.21
   5  -4   5    4.90    0.12
  -5   4  -5    4.46    0.22
   5  -4   6    0.07    0.09
   5  -4   6    0.01    0.03
  -5   4  -6    0.03    0.06
   5  -4   7    0.51    0.06
   5  -4   7    0.62    0.15
  -5   4  -7    0.67    0.10
   5  -4   8    2.46    0.18
  -5   4  -8    2.35    0.20
   5  -4   9    2.64    0.20
  -5   4  -9    2.34    0.20
   5  -4  10    1.64    0.19
  -5   4 -10    1.72    0.17
   5  -4  11    0.46    0.15
  -5   4 -11    0.54    0.14
   5  -4  12    1.09    0.18
  -5   4 -12    0.67    0.16
   5  -4  13    0.50    0.17
  -5   4 -13    0.22    0.14
   5  -4  14   -0.03    0.14
  -5   4 -14   -0.08    0.13
   5  -3 -15    0.87    0.24
  -5   3  15    1.10    0.29
   5  -3 -14    0.17    0.15
  -5   3  14    0.05    0.18
   5  -3 -13   -0.18    0.13
  -5   3  13    0.14    0.17
   5  -3 -12    0.00    0.10
  -5   3  12    0.01    0.14
   5  -3 -11    0.64    0.15
  -5   3  11    0.76    0.26
   5  -3 -10    5.17    0.26
  -5   3  10    5.02    0.38
   5  -3  -9    1.89    0.20
  -5   3   9    2.61    0.25
   5  -3  -8    3.51    0.21
  -5   3   8    3.76    0.34
   5  -3  -7    3.09    0.20
  -5   3   7    3.58    0.26
   5  -3  -6    0.04    0.06
  -5   3   6   -0.22    0.10
  -5   3   6    0.06    0.03
   5  -3  -5    0.86    0.09
  -5   3   5    0.97    0.15
  -5   3   5    0.92    0.06
   5  -3  -4    2.49    0.13
   5  -3  -4    2.01    0.11
   5  -3  -3   14.56    0.32
   5  -3  -3   14.28    0.31
  -5   3   3   14.64    0.30
   5  -3  -2   38.11    0.54
   5  -3  -2   38.19    0.62
   5  -3  -2   38.78    0.63
   5  -3  -1   13.69    0.27
   5  -3  -1   14.01    0.28
   5  -3  -1   13.95    0.30
   5  -3   0   36.94    0.60
   5  -3   0   36.15    0.58
   5  -3   0   37.35    0.55
   5  -3   1   11.18    0.27
   5  -3   1   11.38    0.26
   5  -3   1   11.36    0.22
   5  -3   2    8.77    0.18
   5  -3   2    8.80    0.25
  -5   3  -2    9.46    0.29
   5  -3   3    0.90    0.06
   5  -3   3    1.28    0.11
  -5   3  -3    0.93    0.13
   5  -3   4    6.79    0.24
  -5   3  -4    6.63    0.24
   5  -3   5   17.85    0.25
   5  -3   5   18.69    0.46
  -5   3  -5   17.92    0.49
   5  -3   6    1.17    0.12
  -5   3  -6    0.80    0.12
   5  -3   7    0.77    0.12
  -5   3  -7    0.94    0.15
   5  -3   8    1.41    0.15
  -5   3  -8    0.91    0.13
   5  -3   9    1.32    0.16
  -5   3  -9    1.19    0.15
   5  -3  10    0.97    0.21
  -5   3 -10    1.14    0.15
   5  -3  11   -0.02    0.11
  -5   3 -11    0.10    0.10
   5  -3  12    5.13    0.34
  -5   3 -12    5.93    0.34
   5  -3  13    0.08    0.12
  -5   3 -13   -0.05    0.10
   5  -3  14    1.36    0.27
  -5   3 -14    0.77    0.19
   5  -2 -15    7.94    0.55
  -5   2  15    8.12    0.56
   5  -2 -14    0.22    0.20
  -5   2  14    0.27    0.25
   5  -2 -13    2.86    0.28
  -5   2  13    3.16    0.33
   5  -2 -12    2.61    0.24
  -5   2  12    2.06    0.31
   5  -2 -11    6.71    0.34
  -5   2  11    7.01    0.47
   5  -2 -10    0.02    0.10
  -5   2  10    0.16    0.13
   5  -2  -9    2.97    0.20
  -5   2   9    2.67    0.26
   5  -2  -8    3.28    0.18
  -5   2   8    3.43    0.26
   5  -2  -7    0.37    0.09
  -5   2   7    0.32    0.13
   5  -2  -6    0.19    0.09
  -5   2   6    0.25    0.13
   5  -2  -5    0.29    0.06
  -5   2   5    0.12    0.10
  -5   2   5    0.09    0.03
   5  -2  -4    4.55    0.16
  -5   2   4    4.10    0.22
   5  -2  -3    7.10    0.14
   5  -2  -3    7.44    0.21
  -5   2   3    7.25    0.26
   5  -2  -2    4.89    0.12
   5  -2  -2    4.97    0.16
  -5   2   2    4.81    0.20
   5  -2  -1    1.41    0.08
   5  -2  -1    1.39    0.09
  -5   2   1    1.37    0.12
   5  -2   0   12.69    0.29
   5  -2   0   12.70    0.27
   5  -2   1    0.12    0.04
   5  -2   1    0.24    0.05
   5  -2   1    0.25    0.05
   5  -2   2   22.93    0.44
   5  -2   2   23.67    0.30
  -5   2  -2   23.66    0.57
   5  -2   3    6.58    0.10
   5  -2   3    6.29    0.20
  -5   2  -3    6.80    0.26
   5  -2   4    6.66    0.22
  -5   2  -4    6.71    0.25
   5  -2   5    5.07    0.19
  -5   2  -5    4.85    0.21
   5  -2   6    0.37    0.09
  -5   2  -6    0.12    0.12
   5  -2   7    2.54    0.18
  -5   2  -7    2.51    0.19
   5  -2   8    7.70    0.32
  -5   2  -8    7.83    0.30
   5  -2   9    0.43    0.13
  -5   2  -9    0.41    0.15
   5  -2  10    4.48    0.28
  -5   2 -10    4.32    0.30
   5  -2  11    0.64    0.17
  -5   2 -11    0.68    0.15
   5  -2  12    1.44    0.25
  -5   2 -12    2.10    0.27
   5  -2  13    0.24    0.15
  -5   2 -13    0.06    0.14
   5  -2  14    0.40    0.20
  -5   2 -14    0.09    0.15
   5  -1 -15    1.03    0.30
  -5   1  15    1.57    0.29
   5  -1 -14    0.02    0.18
  -5   1  14    0.11    0.17
   5  -1 -13    1.27    0.20
  -5   1  13    1.11    0.24
   5  -1 -12    0.33    0.14
  -5   1  12    0.33    0.19
   5  -1 -11    0.86    0.16
  -5   1  11    0.85    0.19
   5  -1 -10    2.99    0.23
  -5   1  10    2.93    0.26
   5  -1  -9    3.10    0.20
  -5   1   9    3.59    0.25
   5  -1  -8    0.24    0.10
  -5   1   8    0.46    0.13
   5  -1  -7    1.16    0.12
  -5   1   7    0.88    0.15
   5  -1  -6    7.14    0.26
  -5   1   6    7.62    0.32
   5  -1  -5   39.41    0.74
  -5   1   5   41.23    0.90
   5  -1  -4    0.05    0.06
  -5   1   4    0.08    0.07
   5  -1  -3    0.16    0.06
  -5   1   3    0.06    0.09
   5  -1  -2   96.00    1.38
   5  -1  -2   94.75    1.05
  -5   1   2   96.76    1.47
   5  -1  -1   20.13    0.33
   5  -1  -1   19.06    0.39
  -5   1   1   19.15    0.40
   5  -1   0   23.95    0.44
   5  -1   0   25.63    0.42
  -5   1   0   23.86    0.43
   5  -1   1    5.72    0.17
   5  -1   1    6.38    0.17
  -5   1  -1    5.99    0.15
   5  -1   2   14.16    0.31
  -5   1  -2   13.19    0.20
  -5   1  -2   13.65    0.44
   5  -1   3    0.08    0.06
  -5   1  -3    0.03    0.08
   5  -1   4   24.39    0.51
  -5   1  -4   24.33    0.62
   5  -1   5    6.67    0.24
  -5   1  -5    6.67    0.27
   5  -1   6    0.50    0.13
  -5   1  -6    0.38    0.11
   5  -1   7    2.11    0.18
  -5   1  -7    2.25    0.21
   5  -1   8    3.07    0.20
  -5   1  -8    2.64    0.20
   5  -1   9    0.42    0.13
  -5   1  -9    0.38    0.16
   5  -1  10   14.20    0.58
  -5   1 -10   14.54    0.59
   5  -1  11    2.54    0.25
  -5   1 -11    2.91    0.24
   5  -1  12    0.08    0.14
  -5   1 -12   -0.04    0.14
   5  -1  13    0.45    0.18
  -5   1 -13    0.33    0.18
   5  -1  14    0.06    0.16
  -5   1 -14    0.16    0.15
   5   0 -16    1.34    0.27
  -5   0  16    1.35    0.36
   5   0 -15    2.22    0.32
  -5   0  15    2.90    0.39
   5   0 -14   -0.04    0.12
  -5   0  14    0.03    0.14
   5   0 -13    0.06    0.15
  -5   0  13    0.36    0.16
   5   0 -12    1.36    0.20
  -5   0  12    1.59    0.23
   5   0 -11    0.71    0.15
  -5   0  11    0.66    0.18
   5   0 -10    6.24    0.33
  -5   0  10    5.80    0.34
   5   0  -9    0.19    0.13
  -5   0   9    0.45    0.14
   5   0  -8    3.23    0.18
  -5   0   8    3.08    0.24
   5   0  -7    7.86    0.28
  -5   0   7    7.68    0.33
   5   0  -6   27.31    0.60
  -5   0   6   28.84    0.70
   5   0  -5    4.63    0.19
  -5   0   5    4.91    0.22
   5   0  -4    1.95    0.12
   5   0  -4    1.71    0.05
  -5   0   4    1.74    0.13
   5   0  -3    0.86    0.10
   5   0  -3    0.87    0.05
  -5   0   3    0.63    0.11
   5   0  -2   10.00    0.18
   5   0  -2    9.63    0.26
  -5   0   2   10.35    0.26
   5   0  -1   26.98    0.41
   5   0  -1   26.32    0.49
  -5   0   1   26.34    0.46
   5   0   0    0.82    0.08
   5   0   0    1.08    0.08
  -5   0   0    1.30    0.07
   5   0   1    5.99    0.18
   5   0   1    5.81    0.16
  -5   0  -1    5.85    0.13
   5   0   2    4.70    0.17
  -5   0  -2    4.76    0.09
  -5   0  -2    4.77    0.23
   5   0   3    0.09    0.07
  -5   0  -3    0.32    0.10
   5   0   4    3.89    0.17
  -5   0  -4    3.85    0.22
   5   0   5    0.47    0.12
  -5   0  -5    0.53    0.11
   5   0   6    3.82    0.21
  -5   0  -6    3.94    0.23
   5   0   7    0.58    0.12
  -5   0  -7    0.73    0.13
   5   0   8    1.59    0.17
  -5   0  -8    1.11    0.16
   5   0   9    3.97    0.26
  -5   0  -9    3.69    0.26
   5   0  10    0.19    0.13
  -5   0 -10    0.21    0.14
   5   0  11    0.20    0.15
  -5   0 -11    0.39    0.18
   5   0  12   -0.06    0.14
  -5   0 -12    0.15    0.13
   5   0  13    0.85    0.22
  -5   0 -13    0.88    0.21
   5   0  14    3.62    0.37
  -5   0 -14    4.00    0.42
   5   1 -16   -0.06    0.20
  -5  -1  16    0.10    0.17
   5   1 -15    0.25    0.20
  -5  -1  15    0.03    0.18
   5   1 -14    1.63    0.25
  -5  -1  14    1.41    0.31
   5   1 -13    0.65    0.17
  -5  -1  13    0.53    0.19
   5   1 -12    6.89    0.37
  -5  -1  12    7.05    0.39
   5   1 -11    2.32    0.21
  -5  -1  11    2.29    0.25
   5   1 -10    3.24    0.23
  -5  -1  10    4.02    0.28
   5   1  -9    1.26    0.16
  -5  -1   9    1.68    0.18
   5   1  -8    0.20    0.09
  -5  -1   8    0.14    0.11
   5   1  -7    1.97    0.15
  -5  -1   7    1.97    0.17
   5   1  -6    1.27    0.12
  -5  -1   6    1.53    0.14
   5   1  -5    0.14    0.07
  -5  -1   5    0.13    0.08
   5   1  -4    3.17    0.16
   5   1  -4    3.52    0.08
  -5  -1   4    3.21    0.16
   5   1  -3   10.51    0.18
   5   1  -3   10.83    0.31
  -5  -1   3   10.81    0.29
   5   1  -2    0.11    0.04
   5   1  -2   -0.06    0.06
  -5  -1   2    0.14    0.05
   5   1  -1   13.11    0.26
   5   1  -1   13.44    0.31
  -5  -1   1   13.14    0.27
   5   1   0   19.36    0.40
   5   1   0   20.43    0.39
  -5  -1   0   19.58    0.33
   5   1   1    3.66    0.17
   5   1   1    3.63    0.14
  -5  -1  -1    3.36    0.09
   5   1   2   -0.10    0.06
  -5  -1  -2    0.00    0.02
  -5  -1  -2    0.16    0.07
   5   1   3    8.18    0.28
  -5  -1  -3    8.08    0.33
   5   1   4   17.16    0.43
  -5  -1  -4   17.84    0.53
   5   1   5    7.07    0.27
  -5  -1  -5    6.84    0.32
   5   1   6    0.76    0.12
  -5  -1  -6    0.50    0.14
   5   1   7   11.59    0.40
  -5  -1  -7   10.90    0.42
   5   1   8    0.47    0.14
  -5  -1  -8    0.43    0.14
   5   1   9    2.13    0.22
  -5  -1  -9    2.69    0.23
   5   1  10    1.87    0.22
  -5  -1 -10    1.48    0.22
   5   1  11    1.50    0.23
  -5  -1 -11    1.75    0.26
   5   1  12    0.10    0.16
  -5  -1 -12    0.35    0.17
   5   1  13    0.11    0.14
  -5  -1 -13   -0.06    0.14
   5   2 -15    0.26    0.22
  -5  -2  15    0.07    0.19
   5   2 -14    0.25    0.17
  -5  -2  14    0.45    0.23
   5   2 -13    1.97    0.31
  -5  -2  13    2.24    0.27
   5   2 -12    4.73    0.36
  -5  -2  12    4.60    0.34
   5   2 -11    0.20    0.12
  -5  -2  11    0.18    0.17
   5   2 -10    0.25    0.12
  -5  -2  10    0.17    0.13
   5   2  -9    0.18    0.11
  -5  -2   9    0.44    0.13
   5   2  -8    0.11    0.08
  -5  -2   8   -0.17    0.09
   5   2  -7    0.07    0.11
  -5  -2   7    0.20    0.09
   5   2  -6   19.39    0.49
  -5  -2   6   18.71    0.50
   5   2  -5    0.47    0.10
   5   2  -5    0.60    0.04
  -5  -2   5    0.66    0.10
   5   2  -4    1.09    0.06
   5   2  -4    1.06    0.13
  -5  -2   4    1.19    0.11
   5   2  -3    0.84    0.05
   5   2  -3    0.79    0.10
  -5  -2   3    0.88    0.09
   5   2  -2    1.66    0.09
   5   2  -2    1.66    0.12
  -5  -2   2    1.66    0.10
   5   2  -1    7.57    0.25
   5   2  -1    7.50    0.19
  -5  -2   1    7.31    0.18
   5   2   0   13.37    0.33
   5   2   0   13.26    0.30
  -5  -2   0   12.46    0.25
   5   2   1    2.16    0.12
  -5  -2  -1    1.86    0.08
  -5  -2  -1    2.28    0.18
   5   2   2    0.12    0.05
  -5  -2  -2    0.01    0.09
  -5  -2  -2    0.01    0.03
   5   2   3    1.44    0.12
  -5  -2  -3    1.33    0.05
  -5  -2  -3    1.81    0.20
   5   2   4    0.94    0.11
  -5  -2  -4    1.07    0.16
   5   2   5   10.48    0.36
  -5  -2  -5   10.04    0.45
   5   2   6    0.64    0.13
  -5  -2  -6    0.70    0.15
   5   2   7    0.16    0.16
  -5  -2  -7    0.55    0.16
   5   2   8    2.91    0.27
  -5  -2  -8    2.54    0.23
   5   2   9    0.51    0.15
  -5  -2  -9    0.21    0.15
   5   2  10    0.78    0.19
  -5  -2 -10    0.76    0.19
   5   2  11    2.41    0.29
  -5  -2 -11    2.63    0.27
   5   2  12   -0.13    0.15
  -5  -2 -12   -0.07    0.15
   5   2  13   -0.03    0.20
  -5  -2 -13   -0.12    0.20
   5   3 -15    0.41    0.23
  -5  -3  15    0.85    0.22
   5   3 -14    0.23    0.18
  -5  -3  14   -0.07    0.13
   5   3 -13    5.28    0.35
  -5  -3  13    2.55    0.37
   5   3 -12   -0.08    0.16
  -5  -3  12    0.32    0.13
   5   3 -11    0.01    0.09
  -5  -3  11   -0.01    0.12
   5   3 -10    1.67    0.18
  -5  -3  10    0.86    0.19
   5   3  -9    0.27    0.14
  -5  -3   9    0.32    0.12
   5   3  -8    0.03    0.10
  -5  -3   8    0.14    0.10
   5   3  -7    8.41    0.30
  -5  -3   7    8.69    0.35
   5   3  -6    0.03    0.03
   5   3  -6    0.01    0.07
  -5  -3   6   -0.02    0.08
   5   3  -5    2.69    0.10
   5   3  -5    2.82    0.16
  -5  -3   5    2.89    0.20
   5   3  -4    9.19    0.21
   5   3  -4    9.21    0.32
  -5  -3   4    9.46    0.29
   5   3  -3   16.31    0.33
   5   3  -3   16.57    0.42
  -5  -3   3   16.81    0.39
   5   3  -2    0.61    0.08
   5   3  -2    0.50    0.09
  -5  -3   2    0.41    0.07
   5   3  -1   13.53    0.35
   5   3  -1   14.22    0.32
  -5  -3   1   13.31    0.31
   5   3   0   16.89    0.41
   5   3   0   16.55    0.38
  -5  -3   0   15.75    0.33
   5   3   1    0.49    0.11
  -5  -3  -1    0.52    0.05
  -5  -3  -1    0.55    0.13
   5   3   2    0.22    0.08
  -5  -3  -2   -0.01    0.09
  -5  -3  -2   -0.01    0.03
   5   3   3    4.04    0.19
  -5  -3  -3    4.30    0.30
   5   3   4    7.73    0.29
  -5  -3  -4    7.44    0.35
   5   3   5   30.47    0.81
  -5  -3  -5   31.29    0.89
   5   3   6    3.40    0.28
  -5  -3  -6    4.02    0.27
   5   3   7    0.10    0.11
  -5  -3  -7   -0.02    0.14
   5   3   8    0.16    0.12
  -5  -3  -8   -0.02    0.12
   5   3   9    0.74    0.19
  -5  -3  -9    0.82    0.18
   5   3  10    1.19    0.21
  -5  -3 -10    1.06    0.21
   5   3  11    0.51    0.18
  -5  -3 -11    0.43    0.23
   5   3  12    0.04    0.17
  -5  -3 -12    0.21    0.16
   5   4 -15    0.07    0.28
  -5  -4  15    1.16    0.24
   5   4 -14    0.92    0.22
  -5  -4  14    1.08    0.25
   5   4 -13   -0.12    0.14
  -5  -4  13   -0.01    0.14
   5   4 -12   -0.01    0.20
  -5  -4  12    0.88    0.17
   5   4 -11    0.08    0.13
  -5  -4  11    0.02    0.12
   5   4 -10    3.78    0.29
  -5  -4  10    3.51    0.26
   5   4  -9    0.23    0.11
  -5  -4   9    0.13    0.12
   5   4  -8    0.07    0.10
  -5  -4   8    0.01    0.12
   5   4  -7    0.05    0.09
  -5  -4   7   -0.01    0.09
   5   4  -6   19.12    0.37
   5   4  -6   20.05    0.53
  -5  -4   6   21.06    0.56
   5   4  -5    5.07    0.17
   5   4  -5    5.81    0.23
  -5  -4   5    5.51    0.24
   5   4  -4    0.46    0.07
   5   4  -4    0.72    0.10
  -5  -4   4    0.41    0.10
   5   4  -3   13.83    0.32
   5   4  -3   15.57    0.41
  -5  -4   3   15.23    0.39
   5   4  -2    0.39    0.10
   5   4  -2    0.49    0.09
  -5  -4   2    0.76    0.08
   5   4  -1    2.50    0.17
   5   4  -1    2.54    0.16
  -5  -4   1    2.32    0.14
   5   4   0    1.95    0.15
  -5  -4   0    1.91    0.11
   5   4   1    0.85    0.13
  -5  -4  -1    1.25    0.17
  -5  -4  -1    0.95    0.08
   5   4   2    6.67    0.28
  -5  -4  -2    6.12    0.37
  -5  -4  -2    5.57    0.17
   5   4   3    3.76    0.22
  -5  -4  -3    3.20    0.13
  -5  -4  -3    3.81    0.26
   5   4   4    4.74    0.25
  -5  -4  -4    5.15    0.30
   5   4   5    3.43    0.24
  -5  -4  -5    3.74    0.31
   5   4   6   -0.02    0.09
  -5  -4  -6    0.04    0.12
   5   4   7    1.58    0.23
  -5  -4  -7    1.38    0.20
   5   4   8    0.11    0.12
  -5  -4  -8    0.17    0.13
   5   4   9    0.26    0.15
  -5  -4  -9    0.10    0.15
   5   4  10    4.21    0.38
  -5  -4 -10    3.85    0.32
   5   4  11    0.17    0.17
  -5  -4 -11    0.06    0.19
   5   5 -14    0.83    0.29
  -5  -5  14    1.19    0.24
   5   5 -13    0.22    0.16
  -5  -5  13    0.15    0.16
   5   5 -12    4.16    0.34
  -5  -5  12    9.98    0.48
   5   5 -11    2.25    0.24
  -5  -5  11    2.63    0.25
   5   5 -10    0.05    0.13
  -5  -5  10    0.17    0.13
   5   5  -9    0.24    0.15
  -5  -5   9    0.50    0.15
   5   5  -8   -0.06    0.09
  -5  -5   8    0.14    0.10
   5   5  -7    1.14    0.09
   5   5  -7    1.28    0.14
  -5  -5   7    1.20    0.16
   5   5  -6    1.31    0.11
   5   5  -6    1.76    0.17
  -5  -5   6    1.65    0.16
   5   5  -5   -0.15    0.07
   5   5  -5   -0.01    0.08
  -5  -5   5    0.00    0.11
   5   5  -4    0.59    0.08
   5   5  -4    0.76    0.13
  -5  -5   4    0.70    0.12
   5   5  -3    2.22    0.16
   5   5  -3    2.52    0.18
  -5  -5   3    2.49    0.15
   5   5  -2   -0.03    0.06
   5   5  -2   -0.05    0.07
  -5  -5   2   -0.03    0.06
   5   5  -1    0.05    0.08
   5   5  -1    0.03    0.08
  -5  -5   1    0.03    0.07
   5   5   0    0.51    0.13
  -5  -5   0    0.46    0.10
  -5  -5   0    0.66    0.16
   5   5   1    2.20    0.20
  -5  -5  -1    2.27    0.14
  -5  -5  -1    2.99    0.28
   5   5   2    0.52    0.13
  -5  -5  -2    0.70    0.09
  -5  -5  -2    0.94    0.18
   5   5   3    0.55    0.12
  -5  -5  -3    0.50    0.17
  -5  -5  -3    0.52    0.08
   5   5   4    0.73    0.14
  -5  -5  -4    0.44    0.16
   5   5   5    0.79    0.21
  -5  -5  -5    1.17    0.18
   5   5   6    1.49    0.19
  -5  -5  -6    1.43    0.24
   5   5   7    0.02    0.13
  -5  -5  -7    0.15    0.12
   5   5   8    0.07    0.15
  -5  -5  -8   -0.07    0.11
   5   5   9    3.33    0.30
  -5  -5  -9    3.10    0.31
   5   5  10    3.85    0.38
  -5  -5 -10    4.76    0.44
   5   6 -13    0.70    0.24
  -5  -6  13    0.63    0.23
   5   6 -12    2.47    0.25
  -5  -6  12    1.99    0.27
   5   6 -11    1.29    0.24
  -5  -6  11    1.28    0.22
   5   6 -10    2.94    0.25
  -5  -6  10    3.19    0.28
   5   6  -9    0.01    0.09
  -5  -6   9    0.04    0.13
   5   6  -8   -0.10    0.10
  -5  -6   8    0.07    0.10
   5   6  -7    0.08    0.08
   5   6  -7    0.20    0.10
  -5  -6   7    0.12    0.14
   5   6  -6   10.17    0.30
   5   6  -6   10.83    0.43
  -5  -6   6   12.19    0.48
   5   6  -5    1.60    0.14
   5   6  -5    1.71    0.15
  -5  -6   5    1.75    0.18
   5   6  -4    0.37    0.09
   5   6  -4    0.65    0.13
  -5  -6   4    0.62    0.12
   5   6  -3    1.64    0.17
   5   6  -3    1.76    0.16
  -5  -6   3    2.15    0.18
   5   6  -2    5.04    0.26
   5   6  -2    5.31    0.26
  -5  -6   2    5.37    0.26
   5   6  -1    0.04    0.10
  -5  -6   1   -0.10    0.08
  -5  -6   1   -0.01    0.11
   5   6   0    3.39    0.23
  -5  -6   0    3.00    0.16
  -5  -6   0    3.44    0.32
   5   6   1    0.95    0.14
  -5  -6  -1    1.05    0.21
  -5  -6  -1    0.55    0.12
   5   6   2    0.28    0.13
  -5  -6  -2    0.50    0.10
  -5  -6  -2    0.54    0.15
   5   6   3    0.56    0.12
  -5  -6  -3    0.19    0.16
  -5  -6  -3    0.11    0.09
   5   6   4    0.27    0.14
  -5  -6  -4    0.43    0.17
   5   6   5    0.32    0.15
  -5  -6  -5    0.25    0.19
   5   6   6    0.19    0.15
  -5  -6  -6    0.34    0.15
   5   6   7    0.06    0.14
  -5  -6  -7    0.09    0.12
   5   6   8    0.91    0.23
  -5  -6  -8    0.89    0.19
   5   6   9    4.73    0.37
  -5  -6  -9    3.44    0.33
   5   7 -12    0.19    0.18
  -5  -7  12    0.16    0.20
   5   7 -11    5.89    0.37
  -5  -7  11    6.55    0.39
   5   7 -10    1.05    0.18
  -5  -7  10    1.51    0.23
   5   7  -9    1.05    0.17
  -5  -7   9    1.50    0.20
   5   7  -8    0.54    0.13
  -5  -7   8    0.44    0.19
   5   7  -7    3.77    0.21
   5   7  -7    4.39    0.25
  -5  -7   7    4.11    0.29
   5   7  -6    0.49    0.11
   5   7  -6    0.53    0.11
  -5  -7   6    0.03    0.13
   5   7  -5   -0.03    0.09
   5   7  -5    0.14    0.09
  -5  -7   5    0.10    0.10
   5   7  -4    0.01    0.10
   5   7  -4    0.12    0.08
  -5  -7   4    0.11    0.09
   5   7  -3   -0.09    0.10
   5   7  -3   -0.06    0.08
  -5  -7   3   -0.00    0.09
   5   7  -2    0.04    0.09
  -5  -7   2   -0.01    0.07
   5   7  -1    0.12    0.15
  -5  -7   1    0.54    0.19
  -5  -7   1    0.64    0.13
   5   7   0    1.39    0.21
  -5  -7   0    1.21    0.24
  -5  -7   0    1.42    0.14
   5   7   1    1.06    0.19
  -5  -7  -1    0.89    0.14
  -5  -7  -1    1.07    0.20
   5   7   2    4.64    0.30
  -5  -7  -2    5.44    0.31
  -5  -7  -2    3.97    0.21
   5   7   3    0.28    0.15
  -5  -7  -3    0.38    0.14
   5   7   4    0.28    0.15
  -5  -7  -4    0.19    0.13
   5   7   5   -0.08    0.15
  -5  -7  -5   -0.01    0.14
   5   7   6    0.05    0.13
  -5  -7  -6    0.04    0.11
   5   7   7    0.46    0.21
  -5  -7  -7    0.72    0.18
   5   8 -11   -0.08    0.13
  -5  -8  11   -0.16    0.15
   5   8 -10    0.69    0.17
  -5  -8  10    0.75    0.19
   5   8  -9    0.06    0.15
  -5  -8   9    0.33    0.14
   5   8  -8    0.03    0.11
  -5  -8   8   -0.06    0.11
   5   8  -7    0.67    0.11
   5   8  -7    0.52    0.15
  -5  -8   7    0.27    0.19
   5   8  -6    0.51    0.11
   5   8  -6    0.37    0.14
  -5  -8   6    0.34    0.18
   5   8  -5    0.29    0.10
   5   8  -5    0.04    0.12
  -5  -8   5    0.26    0.13
   5   8  -4    0.38    0.12
   5   8  -4    0.55    0.12
  -5  -8   4    0.33    0.13
   5   8  -3   -0.04    0.07
   5   8  -3    0.09    0.10
  -5  -8   3    0.01    0.10
   5   8  -2    1.88    0.19
  -5  -8   2    1.76    0.23
  -5  -8   2    1.99    0.19
   5   8  -1    1.79    0.19
  -5  -8   1    1.21    0.26
  -5  -8   1    1.63    0.20
   5   8   0    5.69    0.33
  -5  -8   0    6.24    0.32
  -5  -8   0    5.21    0.40
   5   8   1    0.14    0.14
  -5  -8  -1    0.29    0.13
  -5  -8  -1    0.35    0.13
   5   8   2    2.65    0.27
  -5  -8  -2    2.83    0.25
  -5  -8  -2    2.86    0.23
   5   8   3    0.38    0.17
  -5  -8  -3    0.53    0.15
   5   8   4   -0.06    0.17
  -5  -8  -4    0.14    0.14
   5   8   5    0.01    0.15
  -5  -8  -5    0.10    0.11
   5   8   6   -0.02    0.14
  -5  -9   9    0.16    0.16
  -5  -9   8    0.16    0.18
  -5  -9   7    0.07    0.15
   5   9  -6    0.32    0.15
  -5  -9   6    0.55    0.19
   5   9  -5    2.04    0.20
  -5  -9   5    2.50    0.24
   5   9  -4    6.05    0.33
  -5  -9   4    6.19    0.36
   5   9  -3   -0.03    0.11
  -5  -9   3    0.14    0.11
   5   9  -2    0.16    0.16
  -5  -9   2    0.13    0.12
   5   9  -1   36.41    1.14
  -5  -9   1   35.94    1.09
   5   9   0    0.28    0.18
  -5  -9   0    0.73    0.17
   5   9   1    0.54    0.19
  -5  -9  -1    0.72    0.18
   5   9   2    0.19    0.15
   5   9   3    0.96    0.20
  -5 -10   6    0.03    0.17
   5  10  -5    0.41    0.16
  -5 -10   5    0.08    0.15
   5  10  -4    1.66    0.22
  -5 -10   4    2.52    0.31
   5  10  -3    0.03    0.14
  -5 -10   3    0.06    0.12
   5  10  -2    0.10    0.11
  -5 -10   2   -0.08    0.11
   5  10  -1    1.59    0.29
  -5 -10   1    1.53    0.22
   6 -13  -2    0.03    0.22
  -6  13   2   -0.19    0.18
   6 -13  -1    1.41    0.30
  -6  13   1    1.14    0.34
   6 -13   0    1.11    0.28
  -6  13   0    2.02    0.38
   6 -13   1    0.03    0.15
  -6  13  -1   -0.03    0.21
   6 -13   2    1.55    0.33
  -6  13  -2    1.37    0.32
   6 -13   3    0.91    0.23
  -6  13  -3    0.29    0.27
   6 -13   4    0.50    0.21
  -6  13  -4    0.34    0.28
   6 -13   5    0.96    0.24
  -6  13  -5    1.13    0.32
   6 -12  -5   -0.21    0.17
  -6  12   5   -0.01    0.15
   6 -12  -4    0.39    0.19
  -6  12   4    0.15    0.18
   6 -12  -3    0.17    0.16
  -6  12   3   -0.02    0.16
   6 -12  -2    0.31    0.20
  -6  12   2    0.58    0.24
   6 -12  -1    2.59    0.34
  -6  12   1    2.48    0.33
   6 -12   0    0.03    0.13
  -6  12   0    0.02    0.18
   6 -12   1    1.00    0.24
  -6  12  -1    1.48    0.33
   6 -12   2    0.71    0.21
  -6  12  -2    0.76    0.30
   6 -12   3    0.32    0.22
  -6  12  -3    0.45    0.23
   6 -12   4    0.21    0.16
  -6  12  -4    0.12    0.20
   6 -12   5   -0.07    0.12
  -6  12  -5    0.15    0.16
   6 -12   6    1.41    0.22
  -6  12  -6    1.53    0.33
   6 -12   7    0.24    0.19
  -6  12  -7    0.26    0.24
   6 -12   8    1.16    0.23
  -6  12  -8    1.92    0.45
   6 -11  -7    1.11    0.23
  -6  11   7    0.84    0.19
   6 -11  -6    3.10    0.31
  -6  11   6    2.97    0.28
   6 -11  -5    1.91    0.32
  -6  11   5    1.64    0.29
   6 -11  -4    0.04    0.20
  -6  11   4    0.42    0.15
   6 -11  -3    1.59    0.30
  -6  11   3    1.56    0.23
   6 -11  -2    0.06    0.17
  -6  11   2    0.12    0.14
   6 -11  -1    4.31    0.38
  -6  11   1    4.35    0.35
   6 -11   0    7.71    0.43
  -6  11   0    8.72    0.59
   6 -11   1    2.75    0.26
  -6  11  -1    2.64    0.32
   6 -11   2    1.08    0.24
  -6  11  -2    1.01    0.24
   6 -11   3    0.82    0.19
  -6  11  -3    1.04    0.25
   6 -11   4    0.92    0.22
  -6  11  -4    0.93    0.25
   6 -11   5    1.00    0.22
  -6  11  -5    0.51    0.25
   6 -11   6    0.30    0.18
  -6  11  -6    0.43    0.23
   6 -11   7    0.16    0.16
  -6  11  -7    0.10    0.22
   6 -11   8    2.63    0.25
  -6  11  -8    2.76    0.49
   6 -11   9    0.66    0.17
  -6  11  -9    0.68    0.31
   6 -11  10    0.38    0.20
  -6  11 -10    0.88    0.30
   6 -10  -9    1.04    0.28
   6 -10  -8    1.16    0.22
  -6  10   8    1.08    0.17
   6 -10  -7   -0.08    0.12
  -6  10   7    0.03    0.09
   6 -10  -6    0.09    0.14
  -6  10   6    0.03    0.11
   6 -10  -5    0.92    0.21
  -6  10   5    0.30    0.16
   6 -10  -4    1.22    0.21
  -6  10   4    1.31    0.19
   6 -10  -3    1.10    0.19
  -6  10   3    2.03    0.26
   6 -10  -2    0.26    0.15
  -6  10   2    0.30    0.15
   6 -10  -1    0.78    0.17
  -6  10   1    0.71    0.20
   6 -10   0   -0.03    0.11
  -6  10   0    0.17    0.13
   6 -10   1    0.14    0.12
  -6  10  -1    0.10    0.18
   6 -10   2    0.23    0.16
  -6  10  -2    0.43    0.17
   6 -10   3    1.38    0.18
  -6  10  -3    0.85    0.25
   6 -10   4    1.18    0.17
  -6  10  -4    1.09    0.25
   6 -10   5    5.43    0.30
  -6  10  -5    5.61    0.46
   6 -10   6    0.80    0.16
  -6  10  -6    0.30    0.25
   6 -10   7    0.33    0.13
  -6  10  -7    0.50    0.23
   6 -10   8    0.79    0.19
  -6  10  -8    0.76    0.29
   6 -10   9    0.56    0.14
  -6  10  -9    0.61    0.26
   6 -10  10    1.34    0.18
  -6  10 -10    1.44    0.34
  -6  10 -11    0.10    0.23
   6  -9 -10    2.97    0.30
   6  -9  -9    2.13    0.26
   6  -9  -8    1.27    0.22
  -6   9   8    1.15    0.19
   6  -9  -7   -0.11    0.15
  -6   9   7   -0.01    0.10
   6  -9  -6    2.81    0.25
  -6   9   6    2.54    0.21
   6  -9  -5   -0.10    0.10
  -6   9   5    0.11    0.10
   6  -9  -4    4.54    0.29
  -6   9   4    5.15    0.30
   6  -9  -3    2.07    0.25
  -6   9   3    2.27    0.22
   6  -9  -2    2.09    0.20
  -6   9   2    2.10    0.23
   6  -9  -1    3.25    0.23
  -6   9   1    3.50    0.34
   6  -9   0    0.72    0.14
  -6   9   0    1.00    0.18
   6  -9   1    1.25    0.17
  -6   9  -1    1.75    0.21
   6  -9   2    0.07    0.09
  -6   9  -2    0.07    0.13
   6  -9   3    7.78    0.34
  -6   9  -3    8.21    0.54
   6  -9   4   20.98    0.65
  -6   9  -4   22.19    0.85
   6  -9   5   -0.12    0.08
  -6   9  -5    0.36    0.13
   6  -9   6    0.50    0.13
  -6   9  -6    0.98    0.23
   6  -9   7    1.14    0.15
  -6   9  -7    0.85    0.19
   6  -9   8    0.22    0.14
   6  -9   8   -0.09    0.08
   6  -9   9    1.76    0.27
   6  -9   9    1.09    0.18
   6  -9  10    1.59    0.28
   6  -9  10    1.09    0.18
   6  -9  11    1.51    0.25
   6  -9  12    0.21    0.21
  -6   8  11    1.95    0.41
   6  -8 -10    0.07    0.12
   6  -8 -10   -0.04    0.15
   6  -8  -9   -0.01    0.12
   6  -8  -9   -0.04    0.10
   6  -8  -8    0.56    0.13
   6  -8  -8    0.59    0.17
  -6   8   8    0.52    0.14
   6  -8  -7    1.64    0.15
   6  -8  -7    1.68    0.21
  -6   8   7    1.16    0.17
   6  -8  -6    3.86    0.20
   6  -8  -6    3.86    0.26
  -6   8   6    4.08    0.22
   6  -8  -5    6.16    0.30
   6  -8  -5    5.60    0.21
  -6   8   5    5.91    0.26
   6  -8  -4    2.30    0.19
   6  -8  -4    1.62    0.12
  -6   8   4    2.11    0.18
   6  -8  -3    7.92    0.38
   6  -8  -3    7.28    0.21
  -6   8   3    8.76    0.35
   6  -8  -2    0.37    0.11
  -6   8   2    0.19    0.16
   6  -8  -1   -0.09    0.10
  -6   8   1   -0.17    0.13
   6  -8   0    7.75    0.32
  -6   8   0    8.24    0.38
   6  -8   1   -0.15    0.10
  -6   8  -1    0.06    0.11
   6  -8   2    2.38    0.16
  -6   8  -2    2.37    0.25
   6  -8   3    0.14    0.10
  -6   8  -3    0.01    0.17
   6  -8   4   44.28    0.98
  -6   8  -4   42.89    1.28
   6  -8   5    0.39    0.13
   6  -8   5    0.47    0.09
  -6   8  -5    0.44    0.08
   6  -8   6    5.75    0.30
   6  -8   6    4.38    0.24
  -6   8  -6    4.56    0.19
   6  -8   7    7.81    0.38
   6  -8   7    7.41    0.27
  -6   8  -7    6.89    0.26
   6  -8   8    0.19    0.14
   6  -8   8    0.20    0.10
  -6   8  -8    0.08    0.09
   6  -8   9    1.62    0.22
   6  -8   9    0.73    0.14
  -6   8  -9    0.90    0.14
   6  -8  10    8.84    0.45
   6  -8  10    7.67    0.33
  -6   8 -10    8.27    0.36
   6  -8  11    0.30    0.16
  -6   8 -11    0.28    0.11
   6  -8  12    1.30    0.25
  -6   8 -12    1.09    0.21
   6  -8  13    5.98    0.41
  -6   8 -13    4.51    0.30
   6  -7 -12    8.65    0.50
  -6   7  12    8.21    0.67
   6  -7 -11    0.08    0.15
  -6   7  11    0.09    0.22
   6  -7 -10    0.62    0.14
  -6   7  10    0.47    0.27
   6  -7  -9    0.56    0.14
   6  -7  -9    0.16    0.14
   6  -7  -8   -0.00    0.11
   6  -7  -8   -0.17    0.10
  -6   7   8   -0.03    0.08
   6  -7  -7   10.06    0.35
   6  -7  -7    9.07    0.40
  -6   7   7    9.32    0.33
   6  -7  -6    0.51    0.12
   6  -7  -6    0.50    0.11
  -6   7   6    0.42    0.10
   6  -7  -5    1.34    0.17
   6  -7  -5    1.51    0.13
  -6   7   5    1.62    0.15
   6  -7  -4   12.80    0.47
   6  -7  -4   13.27    0.33
  -6   7   4   13.87    0.41
   6  -7  -3   -0.01    0.09
   6  -7  -3    0.18    0.06
  -6   7   3    0.19    0.12
   6  -7  -2    0.39    0.10
   6  -7  -2    0.36    0.07
  -6   7   2    0.46    0.14
   6  -7  -1    0.26    0.06
   6  -7  -1    0.50    0.12
  -6   7   1    0.47    0.12
   6  -7   0    0.09    0.07
  -6   7   0    0.03    0.11
   6  -7   1    1.73    0.14
  -6   7  -1    2.00    0.20
  -6   7  -1    1.80    0.13
   6  -7   2    5.57    0.24
  -6   7  -2    4.46    0.25
  -6   7  -2    5.20    0.20
   6  -7   3    0.31    0.11
   6  -7   3    0.40    0.10
  -6   7  -3    0.34    0.08
   6  -7   4   16.99    0.52
   6  -7   4   17.14    0.46
  -6   7  -4   16.32    0.41
   6  -7   5    5.28    0.27
   6  -7   5    4.32    0.20
  -6   7  -5    4.25    0.20
   6  -7   6    2.85    0.22
   6  -7   6    2.81    0.16
  -6   7  -6    2.57    0.16
   6  -7   7   16.22    0.55
   6  -7   7   15.63    0.41
  -6   7  -7   14.81    0.42
   6  -7   8    2.54    0.26
   6  -7   8    2.09    0.15
  -6   7  -8    2.40    0.16
   6  -7   9    2.08    0.28
   6  -7   9    2.13    0.15
  -6   7  -9    2.41    0.21
   6  -7  10    9.42    0.46
  -6   7 -10    8.75    0.38
   6  -7  11    1.47    0.26
  -6   7 -11    1.01    0.19
   6  -7  12    0.30    0.19
  -6   7 -12    0.10    0.15
   6  -7  13    1.44    0.26
  -6   7 -13    1.59    0.21
   6  -6 -13    0.33    0.16
  -6   6  13    0.02    0.26
   6  -6 -12    0.42    0.20
  -6   6  12    1.10    0.30
   6  -6 -11    2.74    0.29
  -6   6  11    3.10    0.39
   6  -6 -10    0.12    0.10
  -6   6  10   -0.13    0.18
   6  -6  -9    0.88    0.16
  -6   6   9    1.05    0.24
   6  -6  -8    0.61    0.16
   6  -6  -8    0.75    0.12
  -6   6   8    0.73    0.10
   6  -6  -7    2.25    0.16
   6  -6  -7    2.56    0.19
  -6   6   7    2.02    0.14
   6  -6  -6    9.52    0.29
   6  -6  -6    9.36    0.37
  -6   6   6    8.78    0.28
   6  -6  -5   56.16    1.25
   6  -6  -5   56.84    1.02
  -6   6   5   56.88    1.05
   6  -6  -4    3.37    0.19
   6  -6  -4    3.08    0.15
  -6   6   4    3.12    0.17
   6  -6  -3    3.94    0.19
   6  -6  -3    3.66    0.16
  -6   6   3    3.98    0.22
   6  -6  -2    0.39    0.10
   6  -6  -2    0.47    0.08
  -6   6   2    0.53    0.13
   6  -6  -1   17.29    0.34
   6  -6  -1   17.71    0.44
  -6   6   1   16.90    0.54
   6  -6   0    2.05    0.11
   6  -6   0    2.04    0.12
  -6   6   0    1.61    0.18
   6  -6   1   -0.02    0.07
   6  -6   1   -0.05    0.07
  -6   6  -1   -0.03    0.08
   6  -6   2    2.15    0.15
   6  -6   2    2.40    0.13
  -6   6  -2    2.67    0.17
   6  -6   3    0.80    0.15
   6  -6   3    0.86    0.09
  -6   6  -3    0.98    0.10
   6  -6   4    7.65    0.29
   6  -6   4    7.07    0.23
  -6   6  -4    7.12    0.24
   6  -6   5   60.71    1.27
   6  -6   5   58.96    1.00
  -6   6  -5   60.90    1.15
   6  -6   6   10.00    0.42
   6  -6   6   10.34    0.28
  -6   6  -6   10.67    0.36
   6  -6   7   31.28    0.82
   6  -6   7   28.82    0.55
  -6   6  -7   29.47    0.69
   6  -6   8    0.23    0.13
   6  -6   8    0.14    0.07
  -6   6  -8   -0.00    0.11
   6  -6   9    5.91    0.32
  -6   6  -9    5.69    0.27
   6  -6  10    9.84    0.45
  -6   6 -10    9.75    0.39
   6  -6  11    1.91    0.24
  -6   6 -11    1.59    0.19
   6  -6  12    1.31    0.24
  -6   6 -12    1.56    0.19
   6  -6  13    1.18    0.25
  -6   6 -13    1.42    0.20
   6  -5 -14   -0.02    0.17
  -6   5  14    0.11    0.20
   6  -5 -13    0.02    0.15
  -6   5  13   -0.00    0.18
   6  -5 -12    2.73    0.26
  -6   5  12    3.15    0.48
   6  -5 -11    0.90    0.17
  -6   5  11    0.66    0.27
   6  -5 -10    1.37    0.21
  -6   5  10    1.67    0.27
   6  -5  -9    7.41    0.32
  -6   5   9    8.30    0.49
   6  -5  -8   29.51    0.75
  -6   5   8   30.54    1.06
   6  -5  -7    6.16    0.28
   6  -5  -7    6.63    0.30
  -6   5   7    5.22    0.18
   6  -5  -6   56.08    1.16
   6  -5  -6   53.79    1.03
  -6   5   6   51.10    0.84
   6  -5  -5    3.80    0.19
   6  -5  -5    3.25    0.20
  -6   5   5    3.67    0.16
   6  -5  -4    0.44    0.08
   6  -5  -4    0.41    0.09
  -6   5   4    0.23    0.09
   6  -5  -3    2.20    0.15
   6  -5  -3    2.64    0.12
  -6   5   3    2.62    0.17
   6  -5  -2    0.24    0.08
   6  -5  -2    0.23    0.06
  -6   5   2    0.36    0.10
   6  -5  -1   16.34    0.42
   6  -5  -1   17.18    0.37
   6  -5   0   -0.04    0.05
   6  -5   0    0.01    0.05
   6  -5   0    0.02    0.06
   6  -5   1    7.70    0.25
   6  -5   1    7.62    0.22
  -6   5  -1    8.04    0.28
   6  -5   2    1.12    0.11
   6  -5   2    1.19    0.10
  -6   5  -2    1.12    0.12
   6  -5   3   19.60    0.51
   6  -5   3   19.70    0.40
  -6   5  -3   19.63    0.50
   6  -5   4    3.47    0.19
   6  -5   4    3.36    0.14
  -6   5  -4    3.44    0.18
   6  -5   5   19.23    0.53
   6  -5   5   18.76    0.38
  -6   5  -5   19.77    0.51
   6  -5   6   21.96    0.61
   6  -5   6   21.62    0.41
  -6   5  -6   22.44    0.60
   6  -5   7   12.38    0.43
   6  -5   7   11.45    0.28
  -6   5  -7   11.94    0.40
   6  -5   8    0.00    0.10
  -6   5  -8    0.08    0.09
   6  -5   9    3.04    0.24
  -6   5  -9    3.08    0.21
   6  -5  10    2.12    0.23
  -6   5 -10    2.03    0.19
   6  -5  11    0.23    0.15
  -6   5 -11    0.31    0.13
   6  -5  12    0.29    0.22
  -6   5 -12    0.71    0.19
   6  -5  13    0.14    0.14
  -6   5 -13   -0.03    0.15
   6  -5  14    0.72    0.23
  -6   5 -14    0.92    0.24
   6  -4 -14    0.49    0.19
  -6   4  14    0.40    0.32
   6  -4 -13    0.08    0.17
  -6   4  13    0.02    0.18
   6  -4 -12    3.32    0.29
  -6   4  12    3.76    0.39
   6  -4 -11   11.74    0.48
  -6   4  11   12.77    0.68
   6  -4 -10    6.44    0.36
  -6   4  10    6.15    0.47
   6  -4  -9    1.57    0.21
  -6   4   9    1.82    0.33
   6  -4  -8    0.04    0.09
  -6   4   8    0.17    0.14
   6  -4  -7   55.04    1.10
  -6   4   7   59.36    1.56
   6  -4  -6   11.13    0.35
  -6   4   6   10.96    0.53
  -6   4   6    9.64    0.22
   6  -4  -5   11.08    0.33
   6  -4  -5   11.47    0.32
  -6   4   5   10.73    0.26
   6  -4  -4    6.54    0.23
   6  -4  -4    6.11    0.21
  -6   4   4    5.99    0.20
   6  -4  -3   -0.05    0.06
   6  -4  -3   -0.06    0.06
  -6   4   3    0.02    0.07
   6  -4  -2    0.05    0.04
   6  -4  -2    0.08    0.06
   6  -4  -2    0.01    0.05
   6  -4  -1    6.28    0.20
   6  -4  -1    6.00    0.19
   6  -4  -1    6.22    0.19
   6  -4   0    1.82    0.12
   6  -4   0    1.54    0.12
   6  -4   0    1.43    0.09
   6  -4   1   19.32    0.44
   6  -4   1   20.01    0.41
   6  -4   1   18.84    0.37
   6  -4   2    1.40    0.12
   6  -4   2    1.29    0.09
  -6   4  -2    1.36    0.17
   6  -4   3   -0.02    0.06
   6  -4   3   -0.01    0.04
  -6   4  -3    0.05    0.07
   6  -4   4   10.05    0.32
   6  -4   4    9.69    0.21
  -6   4  -4    9.45    0.33
   6  -4   5   12.92    0.24
   6  -4   5   12.76    0.40
  -6   4  -5   12.79    0.41
   6  -4   6   22.35    0.60
  -6   4  -6   21.10    0.63
   6  -4   7    0.24    0.10
  -6   4  -7    0.22    0.13
   6  -4   8    0.60    0.13
  -6   4  -8    0.56    0.12
   6  -4   9    8.95    0.39
  -6   4  -9    8.14    0.38
   6  -4  10    0.65    0.17
  -6   4 -10    0.91    0.15
   6  -4  11    0.15    0.14
  -6   4 -11    0.19    0.12
   6  -4  12    0.23    0.18
  -6   4 -12    0.65    0.16
   6  -4  13   -0.01    0.15
  -6   4 -13    0.25    0.17
   6  -4  14    0.19    0.18
  -6   4 -14    0.25    0.19
   6  -3 -14    1.04    0.29
  -6   3  14    1.55    0.30
   6  -3 -13    1.41    0.23
  -6   3  13    1.55    0.31
   6  -3 -12    1.48    0.25
  -6   3  12    1.74    0.34
   6  -3 -11    5.58    0.31
  -6   3  11    5.25    0.43
   6  -3 -10    8.27    0.36
  -6   3  10    9.31    0.51
   6  -3  -9    0.90    0.14
  -6   3   9    0.95    0.24
   6  -3  -8    2.27    0.20
  -6   3   8    2.64    0.28
   6  -3  -7    8.47    0.33
  -6   3   7    7.87    0.42
   6  -3  -6    0.30    0.09
  -6   3   6    0.13    0.14
   6  -3  -5    0.42    0.09
  -6   3   5    0.54    0.13
  -6   3   5    0.30    0.05
   6  -3  -4    4.95    0.21
  -6   3   4    5.29    0.31
  -6   3   4    4.64    0.15
   6  -3  -3    2.43    0.10
   6  -3  -3    2.55    0.14
  -6   3   3    2.40    0.19
   6  -3  -2   16.58    0.32
   6  -3  -2   17.53    0.37
   6  -3  -2   16.75    0.38
   6  -3  -1   12.86    0.29
   6  -3  -1   13.25    0.29
   6  -3  -1   12.30    0.30
   6  -3   0    1.47    0.10
   6  -3   0    1.62    0.11
   6  -3   0    1.67    0.09
   6  -3   1    0.80    0.09
   6  -3   1    0.47    0.07
   6  -3   1    0.28    0.06
   6  -3   2    0.01    0.04
   6  -3   2    0.05    0.07
  -6   3  -2    0.06    0.08
   6  -3   3    3.38    0.10
   6  -3   3    3.38    0.17
  -6   3  -3    3.49    0.21
   6  -3   4    0.08    0.03
   6  -3   4    0.33    0.08
  -6   3  -4    0.18    0.10
   6  -3   5    0.56    0.11
  -6   3  -5    0.74    0.13
   6  -3   6    2.62    0.21
  -6   3  -6    2.41    0.22
   6  -3   7   -0.03    0.09
  -6   3  -7    0.12    0.11
   6  -3   8    0.90    0.16
  -6   3  -8    0.55    0.13
   6  -3   9    8.36    0.41
  -6   3  -9    7.25    0.39
   6  -3  10    6.07    0.34
  -6   3 -10    5.84    0.38
   6  -3  11    0.17    0.14
  -6   3 -11    0.09    0.12
   6  -3  12    0.78    0.20
  -6   3 -12    0.73    0.22
   6  -3  13    0.26    0.17
  -6   3 -13    0.18    0.17
   6  -3  14    0.46    0.20
  -6   3 -14    0.38    0.19
   6  -2 -15    0.36    0.20
  -6   2  15    0.40    0.31
   6  -2 -14    2.94    0.31
  -6   2  14    2.56    0.37
   6  -2 -13    0.89    0.21
  -6   2  13    1.35    0.27
   6  -2 -12    1.84    0.27
  -6   2  12    1.90    0.29
   6  -2 -11    0.87    0.20
  -6   2  11    0.98    0.24
   6  -2 -10    8.33    0.36
  -6   2  10    8.20    0.45
   6  -2  -9    3.58    0.22
  -6   2   9    4.27    0.31
   6  -2  -8    0.62    0.14
  -6   2   8    0.28    0.17
   6  -2  -7   37.16    0.82
  -6   2   7   36.31    1.05
   6  -2  -6   12.44    0.40
  -6   2   6   13.10    0.49
   6  -2  -5    3.32    0.18
  -6   2   5    3.64    0.23
   6  -2  -4    0.11    0.07
  -6   2   4    0.17    0.09
   6  -2  -3    8.07    0.17
   6  -2  -3    8.07    0.25
  -6   2   3    8.50    0.33
   6  -2  -2    0.05    0.03
   6  -2  -2   -0.00    0.06
  -6   2   2    0.10    0.08
   6  -2  -1    1.48    0.11
   6  -2  -1    1.62    0.09
  -6   2   1    1.63    0.12
   6  -2   0    6.72    0.20
   6  -2   0    7.70    0.21
  -6   2   0    6.91    0.24
   6  -2   1    1.21    0.13
   6  -2   1    1.25    0.09
  -6   2  -1    1.17    0.10
   6  -2   2    8.41    0.24
  -6   2  -2    8.01    0.20
  -6   2  -2    8.73    0.34
   6  -2   3    2.46    0.14
  -6   2  -3    2.27    0.19
   6  -2   4    0.37    0.09
  -6   2  -4    0.20    0.11
   6  -2   5    3.07    0.20
  -6   2  -5    3.29    0.21
   6  -2   6    3.68    0.21
  -6   2  -6    3.39    0.22
   6  -2   7   -0.01    0.12
  -6   2  -7   -0.13    0.11
   6  -2   8    0.39    0.13
  -6   2  -8    0.23    0.13
   6  -2   9    2.45    0.27
  -6   2  -9    2.56    0.22
   6  -2  10    2.26    0.29
  -6   2 -10    2.29    0.24
   6  -2  11    0.15    0.17
  -6   2 -11    0.18    0.14
   6  -2  12    4.44    0.35
  -6   2 -12    4.04    0.32
   6  -2  13    1.50    0.25
  -6   2 -13    1.04    0.25
   6  -1 -15    2.54    0.31
  -6   1  15    1.86    0.36
   6  -1 -14    0.26    0.17
  -6   1  14    0.22    0.22
   6  -1 -13    0.25    0.14
  -6   1  13   -0.15    0.15
   6  -1 -12    4.60    0.31
  -6   1  12    4.27    0.37
   6  -1 -11    0.17    0.12
  -6   1  11    0.07    0.15
   6  -1 -10    0.25    0.16
  -6   1  10    0.54    0.17
   6  -1  -9    7.29    0.31
  -6   1   9    6.18    0.38
   6  -1  -8    0.83    0.13
  -6   1   8    0.61    0.17
   6  -1  -7    0.07    0.10
  -6   1   7    0.06    0.11
   6  -1  -6   15.54    0.42
  -6   1   6   15.65    0.56
   6  -1  -5    0.45    0.10
  -6   1   5    0.56    0.12
   6  -1  -4   10.77    0.19
   6  -1  -4   11.53    0.31
  -6   1   4   10.94    0.35
   6  -1  -3    0.48    0.09
   6  -1  -3    0.34    0.05
  -6   1   3    0.56    0.09
   6  -1  -2    2.20    0.13
   6  -1  -2    2.32    0.10
  -6   1   2    2.42    0.13
   6  -1  -1    7.87    0.20
   6  -1  -1    8.11    0.24
  -6   1   1    7.83    0.22
   6  -1   0    0.93    0.09
   6  -1   0    0.98    0.08
  -6   1   0    0.83    0.07
   6  -1   1    3.71    0.16
   6  -1   1    3.93    0.14
  -6   1  -1    3.53    0.13
   6  -1   2   11.82    0.31
  -6   1  -2   11.26    0.20
  -6   1  -2   12.10    0.42
   6  -1   3    0.08    0.08
  -6   1  -3    0.01    0.09
   6  -1   4    5.38    0.21
  -6   1  -4    4.86    0.26
   6  -1   5    0.31    0.10
  -6   1  -5    0.29    0.13
   6  -1   6    0.53    0.12
  -6   1  -6    0.24    0.16
   6  -1   7    2.94    0.21
  -6   1  -7    2.55    0.27
   6  -1   8    1.73    0.19
  -6   1  -8    1.38    0.20
   6  -1   9    6.30    0.35
  -6   1  -9    5.70    0.33
   6  -1  10    3.16    0.27
  -6   1 -10    3.18    0.27
   6  -1  11    0.88    0.22
  -6   1 -11    1.03    0.19
   6  -1  12    1.97    0.26
  -6   1 -12    2.06    0.26
   6  -1  13   -0.06    0.17
  -6   1 -13    0.25    0.16
   6   0 -15    0.96    0.28
  -6   0  15    1.33    0.29
   6   0 -14    0.57    0.19
  -6   0  14    0.17    0.22
   6   0 -13    0.36    0.16
  -6   0  13    0.29    0.19
   6   0 -12    1.00    0.20
  -6   0  12    1.54    0.24
   6   0 -11    8.00    0.40
  -6   0  11    8.27    0.47
   6   0 -10    3.47    0.30
  -6   0  10    3.63    0.31
   6   0  -9    2.54    0.20
  -6   0   9    2.49    0.25
   6   0  -8    1.04    0.15
  -6   0   8    1.28    0.18
   6   0  -7    3.18    0.20
  -6   0   7    3.29    0.24
   6   0  -6    0.23    0.10
  -6   0   6    0.47    0.11
   6   0  -5    0.19    0.08
  -6   0   5    0.06    0.09
   6   0  -4    1.09    0.14
   6   0  -4    1.20    0.05
  -6   0   4    1.33    0.12
   6   0  -3    1.98    0.16
   6   0  -3    1.45    0.07
  -6   0   3    1.58    0.12
   6   0  -2    4.02    0.13
   6   0  -2    4.22    0.18
  -6   0   2    3.58    0.18
   6   0  -1   43.23    0.66
   6   0  -1   41.35    0.79
  -6   0   1   42.32    0.71
   6   0   0    5.51    0.20
   6   0   0    6.15    0.18
  -6   0   0    5.64    0.16
   6   0   1    0.64    0.09
   6   0   1    0.67    0.08
  -6   0  -1    0.67    0.06
   6   0   2    0.10    0.07
  -6   0  -2    0.06    0.03
  -6   0  -2    0.34    0.10
   6   0   3    0.30    0.09
  -6   0  -3    0.34    0.13
   6   0   4    1.29    0.13
  -6   0  -4    1.38    0.17
   6   0   5    6.10    0.26
  -6   0  -5    5.22    0.30
   6   0   6    1.67    0.20
  -6   0  -6    1.64    0.20
   6   0   7    0.62    0.15
  -6   0  -7    0.76    0.15
   6   0   8   -0.04    0.11
  -6   0  -8   -0.07    0.11
   6   0   9    0.77    0.18
  -6   0  -9    0.58    0.17
   6   0  10    0.44    0.18
  -6   0 -10    0.51    0.17
   6   0  11    0.61    0.20
  -6   0 -11    0.70    0.19
   6   0  12    0.25    0.17
  -6   0 -12    0.18    0.17
   6   0  13    0.18    0.18
  -6   0 -13    0.27    0.18
   6   1 -15    3.79    0.39
  -6  -1  15    4.64    0.47
   6   1 -14   -0.02    0.20
  -6  -1  14    0.23    0.18
   6   1 -13    8.18    0.47
  -6  -1  13    8.74    0.49
   6   1 -12    0.70    0.18
  -6  -1  12    0.48    0.25
   6   1 -11   -0.07    0.12
  -6  -1  11    0.25    0.16
   6   1 -10    2.18    0.22
  -6  -1  10    2.60    0.26
   6   1  -9   10.02    0.40
  -6  -1   9    9.68    0.44
   6   1  -8    1.44    0.16
  -6  -1   8    1.30    0.18
   6   1  -7    1.67    0.15
  -6  -1   7    1.33    0.18
   6   1  -6    0.72    0.11
  -6  -1   6    0.26    0.12
   6   1  -5   21.05    0.51
  -6  -1   5   20.51    0.57
   6   1  -4    0.99    0.12
   6   1  -4    1.05    0.06
  -6  -1   4    1.14    0.11
   6   1  -3    5.66    0.15
   6   1  -3    5.79    0.23
  -6  -1   3    5.49    0.23
   6   1  -2   32.77    0.53
   6   1  -2   34.26    0.71
  -6  -1   2   33.53    0.63
   6   1  -1    0.36    0.09
   6   1  -1    0.37    0.07
  -6  -1   1    0.49    0.07
   6   1   0    9.10    0.28
   6   1   0    9.49    0.24
  -6  -1   0    9.76    0.23
   6   1   1    0.02    0.06
  -6  -1  -1    0.12    0.04
   6   1   2   17.26    0.45
  -6  -1  -2   16.72    0.56
   6   1   3   -0.02    0.06
  -6  -1  -3   -0.01    0.10
   6   1   4   13.95    0.42
  -6  -1  -4   13.71    0.52
  -6  -1  -5    0.35    0.14
   6   1   6    0.36    0.12
  -6  -1  -6    0.19    0.14
   6   1   7    0.48    0.14
  -6  -1  -7    0.13    0.18
   6   1   8    1.32    0.21
  -6  -1  -8    1.92    0.23
   6   1   9    0.70    0.16
  -6  -1  -9    0.42    0.17
   6   1  10    7.31    0.47
  -6  -1 -10    7.29    0.44
   6   1  11   -0.14    0.12
  -6  -1 -11    0.16    0.13
   6   1  12    1.43    0.30
  -6  -1 -12    1.90    0.31
   6   2 -15    1.39    0.28
  -6  -2  15    1.48    0.29
   6   2 -14    0.98    0.28
  -6  -2  14    1.16    0.26
   6   2 -13    0.42    0.21
  -6  -2  13    0.18    0.19
   6   2 -12    1.44    0.21
  -6  -2  12    1.41    0.25
   6   2 -11    0.09    0.13
  -6  -2  11    0.10    0.14
   6   2 -10    0.93    0.20
  -6  -2  10    0.75    0.17
   6   2  -9    0.28    0.11
  -6  -2   9    0.20    0.16
   6   2  -8    3.76    0.24
  -6  -2   8    4.07    0.26
   6   2  -7    3.67    0.21
  -6  -2   7    3.91    0.23
   6   2  -6    5.49    0.28
  -6  -2   6    5.09    0.26
   6   2  -5    4.09    0.21
  -6  -2   5    3.70    0.20
   6   2  -4    2.47    0.10
   6   2  -4    2.21    0.16
  -6  -2   4    2.71    0.16
   6   2  -3    0.02    0.03
   6   2  -3    0.06    0.07
  -6  -2   3    0.06    0.07
   6   2  -2    0.09    0.06
   6   2  -2    0.19    0.08
  -6  -2   2    0.13    0.06
   6   2  -1   17.55    0.47
   6   2  -1   18.32    0.40
  -6  -2   1   18.08    0.39
   6   2   0    0.68    0.10
   6   2   0    0.54    0.10
  -6  -2   0    0.60    0.06
   6   2   1   -0.02    0.08
  -6  -2  -1    0.24    0.15
  -6  -2  -1    0.09    0.04
   6   2   2    0.67    0.11
  -6  -2  -2    0.80    0.16
  -6  -2  -2    0.54    0.05
   6   2   3    0.04    0.08
  -6  -2  -3   -0.06    0.10
   6   2   4    2.76    0.19
  -6  -2  -4    2.34    0.24
   6   2   5    2.14    0.20
  -6  -2  -5    2.44    0.29
   6   2   6    5.07    0.29
  -6  -2  -6    5.15    0.41
   6   2   7    1.79    0.23
  -6  -2  -7    1.71    0.23
   6   2   8    0.08    0.13
  -6  -2  -8    0.14    0.14
   6   2   9    0.15    0.12
  -6  -2  -9   -0.10    0.12
   6   2  10    2.39    0.29
  -6  -2 -10    2.33    0.29
   6   2  11    0.87    0.24
  -6  -2 -11    1.09    0.24
   6   2  12    0.13    0.18
  -6  -2 -12    0.10    0.18
   6   3 -14    0.91    0.22
  -6  -3  14    1.04    0.29
   6   3 -13    0.67    0.21
  -6  -3  13    0.55    0.21
   6   3 -12    1.99    0.29
  -6  -3  12    1.92    0.27
   6   3 -11    0.04    0.13
  -6  -3  11    0.23    0.14
   6   3 -10    1.60    0.24
  -6  -3  10    2.12    0.23
   6   3  -9    0.10    0.09
  -6  -3   9   -0.08    0.09
   6   3  -8    0.11    0.11
  -6  -3   8    0.38    0.15
   6   3  -7    0.35    0.11
  -6  -3   7    0.13    0.12
   6   3  -6    6.88    0.28
  -6  -3   6    6.98    0.35
   6   3  -5    0.76    0.15
  -6  -3   5    0.48    0.12
   6   3  -4    0.59    0.07
   6   3  -4    0.50    0.11
  -6  -3   4    0.76    0.13
   6   3  -3    0.03    0.04
   6   3  -3   -0.09    0.06
  -6  -3   3    0.01    0.07
   6   3  -2    0.45    0.09
   6   3  -2    0.41    0.08
  -6  -3   2    0.15    0.09
   6   3  -1    3.54    0.21
   6   3  -1    3.37    0.15
  -6  -3   1    3.22    0.16
   6   3   0    7.90    0.28
   6   3   0    7.88    0.26
  -6  -3   0    7.72    0.23
   6   3   1    0.21    0.08
  -6  -3  -1    0.17    0.06
  -6  -3  -1   -0.05    0.13
   6   3   2    0.68    0.12
  -6  -3  -2    0.33    0.06
  -6  -3  -2    0.45    0.16
   6   3   3    2.19    0.18
  -6  -3  -3    2.62    0.28
   6   3   4    4.28    0.25
  -6  -3  -4    4.43    0.32
   6   3   5    4.28    0.27
  -6  -3  -5    4.21    0.31
   6   3   6    0.16    0.12
  -6  -3  -6    0.17    0.14
   6   3   7    0.99    0.19
  -6  -3  -7    1.31    0.25
   6   3   8    1.66    0.23
  -6  -3  -8    2.12    0.26
   6   3   9   -0.01    0.15
  -6  -3  -9   -0.17    0.15
   6   3  10    0.86    0.24
  -6  -3 -10    1.01    0.28
   6   3  11    4.49    0.39
  -6  -3 -11    3.90    0.36
   6   4 -14   -0.03    0.16
  -6  -4  14    0.11    0.15
   6   4 -13    0.03    0.15
  -6  -4  13    0.13    0.16
   6   4 -12    3.04    0.34
  -6  -4  12    3.09    0.38
   6   4 -11   -0.30    0.18
  -6  -4  11   -0.15    0.19
   6   4 -10    0.09    0.13
  -6  -4  10    0.27    0.14
   6   4  -9    0.76    0.20
  -6  -4   9    1.21    0.18
   6   4  -8    0.38    0.13
  -6  -4   8    0.39    0.14
   6   4  -7    1.85    0.22
  -6  -4   7    2.47    0.19
   6   4  -6    3.10    0.13
   6   4  -6    3.74    0.22
  -6  -4   6    3.59    0.22
   6   4  -5    0.45    0.08
   6   4  -5    0.47    0.14
  -6  -4   5    0.37    0.12
   6   4  -4   -0.03    0.06
   6   4  -4   -0.04    0.09
  -6  -4   4    0.05    0.08
   6   4  -3    6.21    0.23
   6   4  -3    6.14    0.27
  -6  -4   3    5.65    0.23
   6   4  -2    0.05    0.09
   6   4  -2    0.24    0.09
  -6  -4   2    0.17    0.08
   6   4  -1    0.03    0.07
   6   4  -1   -0.08    0.08
  -6  -4   1    0.08    0.06
   6   4   0    0.06    0.07
  -6  -4   0   -0.21    0.12
  -6  -4   0   -0.02    0.06
   6   4   1    0.06    0.07
  -6  -4  -1    0.23    0.14
  -6  -4  -1   -0.07    0.05
   6   4   2    1.80    0.16
  -6  -4  -2    2.08    0.23
  -6  -4  -2    1.46    0.10
   6   4   3   -0.08    0.11
  -6  -4  -3    0.12    0.11
   6   4   4    0.02    0.11
  -6  -4  -4    0.31    0.14
   6   4   5    9.51    0.41
  -6  -4  -5    9.33    0.47
   6   4   6    1.11    0.18
  -6  -4  -6    0.83    0.26
   6   4   7    0.29    0.15
  -6  -4  -7    0.15    0.16
   6   4   8    1.34    0.24
  -6  -4  -8    1.44    0.22
   6   4   9    0.19    0.17
  -6  -4  -9    0.22    0.17
   6   4  10    0.82    0.24
  -6  -4 -10    0.52    0.23
   6   5 -13    1.56    0.29
  -6  -5  13    0.95    0.27
   6   5 -12    2.40    0.29
  -6  -5  12    3.05    0.31
   6   5 -11    0.06    0.14
  -6  -5  11    0.25    0.15
   6   5 -10    0.43    0.18
  -6  -5  10    0.31    0.16
   6   5  -9    0.45    0.19
  -6  -5   9    0.63    0.16
   6   5  -8    0.26    0.12
  -6  -5   8    0.15    0.13
   6   5  -7    3.01    0.27
  -6  -5   7    3.71    0.27
   6   5  -6    8.06    0.26
   6   5  -6    8.44    0.35
  -6  -5   6    8.40    0.35
   6   5  -5    0.38    0.09
   6   5  -5    0.33    0.14
  -6  -5   5    0.29    0.14
   6   5  -4    0.03    0.07
   6   5  -4   -0.11    0.10
  -6  -5   4    0.11    0.09
   6   5  -3    3.00    0.19
   6   5  -3    3.03    0.19
  -6  -5   3    3.12    0.19
   6   5  -2    0.19    0.11
   6   5  -2    0.09    0.08
  -6  -5   2    0.13    0.07
   6   5  -1    0.57    0.15
   6   5  -1    0.78    0.11
  -6  -5   1    0.73    0.10
   6   5   0    2.15    0.17
  -6  -5   0    1.95    0.13
  -6  -5   0    2.43    0.26
   6   5   1    0.39    0.12
  -6  -5  -1   -0.01    0.08
  -6  -5  -1    0.13    0.14
   6   5   2    2.78    0.20
  -6  -5  -2    2.37    0.14
  -6  -5  -2    2.43    0.26
   6   5   3    2.73    0.22
  -6  -5  -3    2.94    0.32
   6   5   4    0.62    0.16
  -6  -5  -4    1.02    0.22
   6   5   5    0.11    0.13
  -6  -5  -5    0.18    0.15
   6   5   6    0.24    0.16
  -6  -5  -6    0.39    0.21
   6   5   7    0.15    0.14
  -6  -5  -7    0.12    0.15
   6   5   8    2.06    0.30
  -6  -5  -8    2.33    0.27
   6   5   9    1.58    0.25
  -6  -5  -9    1.09    0.26
   6   6 -12    0.05    0.14
  -6  -6  12    0.02    0.13
   6   6 -11    0.28    0.16
  -6  -6  11    0.41    0.17
   6   6 -10    4.10    0.31
  -6  -6  10    4.41    0.33
   6   6  -9    0.87    0.16
  -6  -6   9    0.59    0.18
   6   6  -8    0.13    0.11
  -6  -6   8    0.04    0.12
   6   6  -7    0.89    0.16
  -6  -6   7    1.37    0.21
   6   6  -6    6.96    0.27
   6   6  -6    6.86    0.37
  -6  -6   6    7.81    0.40
   6   6  -5    0.66    0.12
   6   6  -5    0.50    0.13
  -6  -6   5    0.43    0.14
   6   6  -4    0.36    0.11
   6   6  -4    0.28    0.11
  -6  -6   4    0.21    0.11
   6   6  -3   -0.06    0.11
   6   6  -3    0.08    0.10
  -6  -6   3    0.23    0.11
   6   6  -2    0.09    0.08
   6   6  -2    0.07    0.10
  -6  -6   2   -0.06    0.10
   6   6  -1    7.39    0.32
  -6  -6   1    7.34    0.48
  -6  -6   1    7.21    0.28
   6   6   0    4.27    0.26
  -6  -6   0    4.11    0.23
  -6  -6   0    4.85    0.35
   6   6   1   -0.02    0.13
  -6  -6  -1   -0.02    0.13
  -6  -6  -1   -0.08    0.07
   6   6   2    1.32    0.18
  -6  -6  -2    1.31    0.27
   6   6   3    0.11    0.13
  -6  -6  -3    0.40    0.19
   6   6   4    5.79    0.34
  -6  -6  -4    5.14    0.38
   6   6   5    2.66    0.28
  -6  -6  -5    3.01    0.29
   6   6   6   -0.04    0.12
  -6  -6  -6    0.03    0.12
   6   6   7    0.22    0.19
  -6  -6  -7    0.49    0.18
   6   7 -11    1.45    0.25
  -6  -7  11    0.99    0.25
   6   7 -10    0.72    0.17
  -6  -7  10    0.18    0.19
   6   7  -9    0.17    0.14
  -6  -7   9   -0.03    0.14
   6   7  -8    0.07    0.11
  -6  -7   8    0.05    0.16
   6   7  -7    1.88    0.20
  -6  -7   7    1.95    0.22
   6   7  -6    0.07    0.09
   6   7  -6    0.24    0.11
  -6  -7   6    0.55    0.16
   6   7  -5    0.10    0.09
   6   7  -5    0.03    0.09
  -6  -7   5   -0.05    0.10
   6   7  -4    0.44    0.13
   6   7  -4    0.79    0.15
  -6  -7   4    0.39    0.13
   6   7  -3    0.34    0.11
   6   7  -3    0.13    0.10
  -6  -7   3    0.05    0.11
   6   7  -2    0.21    0.14
  -6  -7   2    0.29    0.11
  -6  -7   2    0.33    0.21
   6   7  -1    0.15    0.11
  -6  -7   1    0.29    0.19
  -6  -7   1    0.09    0.12
   6   7   0    0.87    0.20
  -6  -7   0    1.60    0.22
  -6  -7   0    0.86    0.16
   6   7   1    0.29    0.12
  -6  -7  -1    0.05    0.11
  -6  -7  -1    0.24    0.15
   6   7   2   -0.01    0.10
  -6  -7  -2    0.03    0.12
   6   7   3    0.40    0.17
  -6  -7  -3    0.40    0.17
   6   7   4    0.17    0.16
  -6  -7  -4    0.26    0.19
   6   7   5    0.33    0.18
  -6  -7  -5    0.39    0.17
   6   7   6    1.06    0.23
  -6  -7  -6    0.69    0.21
   6   8  -9    0.33    0.19
  -6  -8   9    0.43    0.19
   6   8  -8    0.07    0.13
  -6  -8   8    0.37    0.15
   6   8  -7    0.14    0.11
  -6  -8   7    0.02    0.16
   6   8  -6    3.63    0.29
  -6  -8   6    3.50    0.30
   6   8  -5    0.32    0.12
   6   8  -5    0.43    0.12
  -6  -8   5    0.29    0.15
   6   8  -4    0.62    0.12
   6   8  -4    0.14    0.12
  -6  -8   4    0.13    0.14
   6   8  -3    0.13    0.14
  -6  -8   3    0.12    0.14
  -6  -8   3    0.16    0.17
   6   8  -2    1.80    0.24
  -6  -8   2    1.62    0.26
  -6  -8   2    2.01    0.23
   6   8  -1    1.35    0.19
  -6  -8   1    1.11    0.29
  -6  -8   1    0.74    0.19
   6   8   0    0.31    0.15
  -6  -8   0    0.43    0.15
  -6  -8   0    0.46    0.22
   6   8   1    0.37    0.20
  -6  -8  -1    0.32    0.21
   6   8   2   -0.05    0.13
  -6  -8  -2    0.10    0.12
   6   8   3    0.08    0.13
  -6  -8  -3   -0.14    0.15
   6   8   4    0.10    0.16
  -6  -9   7   -0.26    0.20
  -6  -9   6    0.62    0.19
   6   9  -5    0.36    0.15
  -6  -9   5    0.64    0.17
   6   9  -4    0.51    0.15
  -6  -9   4    0.37    0.17
   6   9  -3    0.66    0.15
  -6  -9   3    0.21    0.19
   6   9  -2    0.92    0.22
  -6  -9   2    0.84    0.18
   6   9  -1    1.24    0.20
  -6  -9   1    0.63    0.18
   6   9   0    2.47    0.31
   7 -13   0    1.23    0.28
  -7  13   0    1.05    0.36
   7 -13   1    1.88    0.33
  -7  13  -1    0.35    0.37
   7 -13   2    1.99    0.36
  -7  13  -2    2.04    0.36
   7 -13   3    0.29    0.23
  -7  13  -3    0.10    0.23
   7 -12  -4    0.43    0.18
  -7  12   4    0.03    0.18
   7 -12  -3    0.32    0.27
  -7  12   3    0.65    0.20
   7 -12  -2    1.15    0.27
  -7  12   2    1.83    0.33
   7 -12  -1    0.19    0.18
  -7  12   1    0.28    0.19
   7 -12   0   -0.07    0.14
  -7  12   0    0.02    0.18
   7 -12   1    1.98    0.35
  -7  12  -1    2.84    0.36
   7 -12   2   -0.03    0.13
  -7  12  -2    0.09    0.17
   7 -12   3    0.96    0.22
  -7  12  -3    0.70    0.29
   7 -12   4    1.09    0.21
  -7  12  -4    0.48    0.27
   7 -12   5    0.95    0.22
  -7  12  -5    1.65    0.33
   7 -12   6    1.41    0.27
  -7  12  -6    1.29    0.35
   7 -12   7   -0.22    0.14
  -7  12  -7    0.21    0.23
   7 -11  -7    0.27    0.18
  -7  11   7    0.02    0.12
   7 -11  -6    0.09    0.14
  -7  11   6   -0.04    0.13
   7 -11  -5    1.65    0.25
  -7  11   5    1.77    0.28
   7 -11  -4    0.34    0.18
  -7  11   4    0.32    0.17
   7 -11  -3    0.33    0.17
  -7  11   3    0.39    0.18
   7 -11  -2    1.40    0.27
  -7  11   2    1.49    0.31
   7 -11  -1    0.45    0.18
  -7  11   1    0.79    0.23
   7 -11   0    1.20    0.21
  -7  11   0    1.01    0.25
   7 -11   1    0.64    0.18
  -7  11  -1    0.58    0.23
   7 -11   2    1.37    0.24
  -7  11  -2    2.64    0.31
   7 -11   3   -0.06    0.10
  -7  11  -3    0.12    0.14
   7 -11   4   -0.00    0.12
  -7  11  -4    0.19    0.18
   7 -11   5    2.48    0.25
  -7  11  -5    2.54    0.37
   7 -11   6    2.38    0.23
  -7  11  -6    2.25    0.39
   7 -11   7    0.57    0.20
  -7  11  -7    0.45    0.29
   7 -11   8    1.02    0.19
  -7  11  -8    1.29    0.35
   7 -11   9    0.98    0.19
  -7  11  -9    1.50    0.42
   7 -10  -8    0.27    0.18
   7 -10  -7    1.12    0.23
  -7  10   7    1.02    0.21
   7 -10  -6    0.91    0.20
  -7  10   6    0.92    0.17
   7 -10  -5   -0.21    0.14
  -7  10   5   -0.06    0.12
   7 -10  -4    0.17    0.13
  -7  10   4    0.01    0.13
   7 -10  -3    0.48    0.16
  -7  10   3    0.16    0.16
   7 -10  -2    1.45    0.24
  -7  10   2    0.94    0.26
   7 -10  -1    1.24    0.19
  -7  10   1    0.99    0.26
   7 -10   0    1.09    0.19
  -7  10   0    1.21    0.28
   7 -10   1    1.44    0.22
  -7  10  -1    0.99    0.23
   7 -10   2    1.56    0.20
  -7  10  -2    1.82    0.27
   7 -10   3    1.73    0.23
  -7  10  -3    1.38    0.29
   7 -10   4   -0.10    0.13
  -7  10  -4    0.02    0.18
   7 -10   5    3.72    0.25
  -7  10  -5    3.92    0.38
   7 -10   6    1.48    0.21
  -7  10  -6    1.68    0.32
   7 -10   7    0.10    0.12
  -7  10  -7   -0.15    0.19
   7 -10   8    1.08    0.20
  -7  10  -8    1.53    0.41
   7 -10   9    0.39    0.13
  -7  10  -9    0.28    0.26
   7  -9 -10    5.37    0.40
   7  -9  -9    0.11    0.16
   7  -9  -8    0.13    0.15
   7  -9  -7    1.28    0.21
  -7   9   7    0.88    0.17
   7  -9  -6    2.03    0.24
  -7   9   6    1.83    0.22
   7  -9  -5    1.25    0.20
  -7   9   5    1.26    0.17
   7  -9  -4    1.08    0.19
  -7   9   4    1.26    0.22
   7  -9  -3    0.01    0.10
  -7   9   3    0.07    0.11
   7  -9  -2    3.18    0.25
  -7   9   2    3.90    0.33
   7  -9  -1   10.53    0.43
  -7   9   1   11.19    0.51
   7  -9   0    1.38    0.21
  -7   9   0    1.29    0.26
   7  -9   1   10.98    0.41
  -7   9  -1   11.10    0.55
   7  -9   2    2.83    0.22
  -7   9  -2    3.45    0.33
   7  -9   3    2.94    0.21
  -7   9  -3    2.76    0.32
   7  -9   4    1.54    0.20
  -7   9  -4    1.63    0.33
   7  -9   5    5.62    0.27
  -7   9  -5    5.94    0.45
   7  -9   6    0.07    0.13
   7  -9   6    0.18    0.11
   7  -9   7    1.25    0.24
   7  -9   7    1.16    0.17
   7  -9   8    0.51    0.18
   7  -9   8    0.33    0.11
   7  -9   9   -0.03    0.14
   7  -9  10    1.02    0.24
   7  -9  11    0.84    0.23
  -7   8  11    3.61    0.51
   7  -8 -10    0.58    0.15
  -7   8  10    0.72    0.31
   7  -8  -9    4.03    0.30
   7  -8  -9    3.11    0.27
   7  -8  -8    1.23    0.16
   7  -8  -8    1.56    0.21
   7  -8  -7    1.03    0.19
   7  -8  -7    1.00    0.15
  -7   8   7    0.83    0.12
   7  -8  -6    8.82    0.40
   7  -8  -6    8.45    0.29
  -7   8   6    8.02    0.35
   7  -8  -5    0.73    0.16
   7  -8  -5    0.73    0.12
  -7   8   5    0.63    0.14
   7  -8  -4    0.99    0.15
   7  -8  -4    0.68    0.11
  -7   8   4    0.51    0.17
   7  -8  -3    2.42    0.19
   7  -8  -3    1.83    0.13
  -7   8   3    2.08    0.20
   7  -8  -2    0.61    0.09
   7  -8  -2    0.55    0.13
  -7   8   2    0.74    0.18
   7  -8  -1   10.67    0.28
   7  -8  -1   11.43    0.43
  -7   8   1   12.17    0.53
   7  -8   0    2.87    0.20
  -7   8   0    3.25    0.26
  -7   8   0    2.87    0.18
   7  -8   1    0.40    0.11
  -7   8  -1    0.46    0.17
  -7   8  -1    0.49    0.11
   7  -8   2    8.55    0.32
  -7   8  -2    7.81    0.28
  -7   8  -2    9.17    0.47
   7  -8   3    2.43    0.20
  -7   8  -3    1.58    0.19
  -7   8  -3    2.13    0.15
   7  -8   4    4.74    0.33
   7  -8   4    4.69    0.25
  -7   8  -4    4.16    0.21
   7  -8   5    1.93    0.21
   7  -8   5    2.17    0.16
  -7   8  -5    2.05    0.16
   7  -8   6    0.50    0.16
   7  -8   6    0.63    0.10
  -7   8  -6    0.54    0.11
   7  -8   7    2.20    0.23
   7  -8   7    0.94    0.12
  -7   8  -7    0.75    0.14
   7  -8   8    0.11    0.13
   7  -8   8    0.14    0.09
  -7   8  -8   -0.01    0.10
   7  -8   9    4.37    0.37
  -7   8  -9    3.36    0.22
   7  -8  10    0.17    0.15
  -7   8 -10    0.15    0.14
   7  -8  11    2.24    0.27
  -7   8 -11    1.53    0.23
   7  -8  12    0.48    0.22
  -7   8 -12    0.56    0.17
   7  -7 -12    1.66    0.28
  -7   7  12    1.81    0.40
   7  -7 -11    0.69    0.18
  -7   7  11    0.81    0.36
   7  -7 -10   -0.06    0.13
  -7   7  10    0.09    0.23
   7  -7  -9    0.55    0.15
  -7   7   9    0.04    0.25
   7  -7  -8    1.82    0.20
   7  -7  -8    2.11    0.23
   7  -7  -7    0.21    0.14
   7  -7  -7    0.09    0.12
  -7   7   7    0.52    0.11
   7  -7  -6    0.08    0.12
   7  -7  -6    0.28    0.08
  -7   7   6    0.10    0.08
   7  -7  -5    1.13    0.16
   7  -7  -5    0.66    0.12
  -7   7   5    0.98    0.15
   7  -7  -4   10.99    0.40
   7  -7  -4   10.75    0.34
  -7   7   4   12.10    0.44
   7  -7  -3    0.16    0.14
   7  -7  -3    0.35    0.09
  -7   7   3    0.31    0.11
   7  -7  -2    0.19    0.13
   7  -7  -2    0.43    0.08
  -7   7   2    0.31    0.12
   7  -7  -1   -0.02    0.05
   7  -7  -1   -0.00    0.07
  -7   7   1    0.07    0.09
   7  -7   0    0.58    0.10
  -7   7   0    0.64    0.16
   7  -7   1    2.41    0.16
  -7   7  -1    2.62    0.24
  -7   7  -1    2.54    0.19
   7  -7   2    1.77    0.17
   7  -7   2    1.98    0.16
  -7   7  -2    1.51    0.16
   7  -7   3   16.59    0.51
   7  -7   3   17.03    0.44
  -7   7  -3   16.68    0.46
   7  -7   4    7.07    0.32
   7  -7   4    7.76    0.28
  -7   7  -4    6.86    0.30
   7  -7   5    3.03    0.23
   7  -7   5    3.69    0.17
  -7   7  -5    3.26    0.19
   7  -7   6    1.79    0.20
   7  -7   6    1.86    0.13
  -7   7  -6    1.73    0.16
   7  -7   7    0.70    0.21
   7  -7   7    0.66    0.11
  -7   7  -7    0.82    0.13
   7  -7   8    0.16    0.18
  -7   7  -8    0.34    0.11
   7  -7   9    0.61    0.20
  -7   7  -9    1.14    0.18
   7  -7  10    5.57    0.37
  -7   7 -10    5.28    0.29
   7  -7  11    1.98    0.26
  -7   7 -11    2.06    0.26
   7  -7  12    0.34    0.19
  -7   7 -12    0.11    0.16
   7  -6 -12    0.96    0.20
  -7   6  12    0.79    0.33
   7  -6 -11    5.65    0.34
  -7   6  11    6.02    0.61
   7  -6 -10    0.41    0.17
  -7   6  10    0.20    0.25
   7  -6  -9    4.81    0.31
  -7   6   9    4.22    0.43
   7  -6  -8   -0.04    0.09
  -7   6   8   -0.08    0.17
   7  -6  -7    5.86    0.28
   7  -6  -7    5.36    0.33
  -7   6   7    4.81    0.21
   7  -6  -6    8.22    0.33
   7  -6  -6    7.69    0.31
  -7   6   6    7.31    0.27
   7  -6  -5    7.05    0.31
   7  -6  -5    7.60    0.26
  -7   6   5    7.38    0.25
   7  -6  -4    0.03    0.08
   7  -6  -4    0.07    0.08
  -7   6   4    0.05    0.07
   7  -6  -3    1.84    0.18
   7  -6  -3    2.10    0.13
  -7   6   3    2.03    0.18
   7  -6  -2    6.09    0.25
   7  -6  -2    5.94    0.20
  -7   6   2    5.72    0.28
   7  -6  -1    2.73    0.15
   7  -6  -1    2.98    0.17
  -7   6   1    2.67    0.21
   7  -6   0    8.40    0.26
   7  -6   0    7.55    0.27
   7  -6   0    8.21    0.30
   7  -6   1    0.30    0.11
   7  -6   1    0.08    0.09
  -7   6  -1    0.20    0.12
   7  -6   2    1.05    0.12
   7  -6   2    0.99    0.10
  -7   6  -2    0.88    0.15
   7  -6   3   18.72    0.53
   7  -6   3   19.30    0.45
  -7   6  -3   19.36    0.57
   7  -6   4   27.62    0.72
   7  -6   4   26.45    0.56
  -7   6  -4   26.28    0.70
   7  -6   5    8.88    0.36
   7  -6   5    9.00    0.26
  -7   6  -5    9.26    0.35
   7  -6   6    9.73    0.44
   7  -6   6    8.56    0.26
  -7   6  -6    9.91    0.38
   7  -6   7    1.35    0.19
  -7   6  -7    1.25    0.16
   7  -6   8    2.06    0.22
  -7   6  -8    1.72    0.18
   7  -6   9   -0.06    0.12
  -7   6  -9   -0.02    0.10
   7  -6  10    5.36    0.41
  -7   6 -10    5.20    0.30
   7  -6  11    0.96    0.23
  -7   6 -11    0.13    0.15
   7  -6  12   -0.02    0.14
  -7   6 -12    0.06    0.14
   7  -6  13    0.28    0.19
  -7   6 -13    0.07    0.14
   7  -5 -13    1.87    0.33
  -7   5  13    3.05    0.42
   7  -5 -12    1.68    0.25
  -7   5  12    2.94    0.45
   7  -5 -11    2.35    0.28
  -7   5  11    2.33    0.37
   7  -5 -10    1.62    0.20
  -7   5  10    1.09    0.30
   7  -5  -9    1.51    0.18
  -7   5   9    2.03    0.29
   7  -5  -8    0.63    0.13
  -7   5   8    0.34    0.21
   7  -5  -7   18.05    0.52
  -7   5   7   18.23    0.76
   7  -5  -6    3.81    0.19
  -7   5   6    3.96    0.25
  -7   5   6    3.22    0.16
   7  -5  -5    1.96    0.16
   7  -5  -5    2.11    0.18
  -7   5   5    2.09    0.14
   7  -5  -4   16.40    0.46
   7  -5  -4   15.91    0.43
  -7   5   4   15.36    0.42
   7  -5  -3    3.72    0.17
   7  -5  -3    2.93    0.18
  -7   5   3    3.52    0.18
   7  -5  -2    0.67    0.10
   7  -5  -2    0.47    0.10
  -7   5   2    0.69    0.14
   7  -5  -1    3.48    0.17
   7  -5  -1    3.35    0.17
   7  -5  -1    3.51    0.17
   7  -5   0    0.56    0.08
   7  -5   0    0.47    0.09
   7  -5   0    0.55    0.10
   7  -5   1    0.53    0.10
   7  -5   1    0.57    0.08
  -7   5  -1    0.53    0.13
   7  -5   2    4.30    0.21
   7  -5   2    4.11    0.17
  -7   5  -2    4.10    0.28
   7  -5   3   -0.02    0.07
   7  -5   3    0.00    0.05
  -7   5  -3    0.12    0.10
   7  -5   4   85.62    1.66
   7  -5   4   83.60    1.24
  -7   5  -4   85.67    1.77
   7  -5   5    0.80    0.14
   7  -5   5    0.55    0.08
  -7   5  -5    0.47    0.15
   7  -5   6   10.10    0.41
  -7   5  -6   10.11    0.39
   7  -5   7   45.64    1.13
  -7   5  -7   45.63    1.13
   7  -5   8    5.91    0.34
  -7   5  -8    5.84    0.31
   7  -5   9    0.76    0.17
  -7   5  -9    0.89    0.16
   7  -5  10   -0.20    0.14
  -7   5 -10   -0.07    0.12
   7  -5  11    0.59    0.19
  -7   5 -11    0.34    0.16
   7  -5  12    2.03    0.32
  -7   5 -12    2.14    0.25
   7  -5  13    0.11    0.18
  -7   5 -13    0.11    0.19
   7  -4 -14    0.99    0.24
  -7   4  14    0.58    0.32
   7  -4 -13    0.59    0.25
  -7   4  13    0.86    0.31
   7  -4 -12    0.09    0.12
  -7   4  12   -0.09    0.19
   7  -4 -11    0.25    0.18
  -7   4  11    0.23    0.22
   7  -4 -10    0.12    0.12
  -7   4  10    0.14    0.22
   7  -4  -9    0.14    0.10
  -7   4   9   -0.12    0.17
   7  -4  -8    5.15    0.27
  -7   4   8    5.24    0.39
   7  -4  -7   10.22    0.35
  -7   4   7    9.80    0.52
   7  -4  -6    4.21    0.21
  -7   4   6    4.06    0.33
   7  -4  -5   12.35    0.37
  -7   4   5   13.76    0.57
  -7   4   5   11.33    0.29
   7  -4  -4    0.15    0.10
  -7   4   4    0.12    0.13
  -7   4   4    0.26    0.08
   7  -4  -3    7.95    0.26
   7  -4  -3    7.98    0.26
  -7   4   3    7.91    0.26
   7  -4  -2    0.56    0.08
   7  -4  -2    0.69    0.09
   7  -4  -2    0.75    0.09
   7  -4  -1    9.29    0.30
   7  -4  -1    9.21    0.28
   7  -4  -1   10.00    0.27
   7  -4   0    5.95    0.23
   7  -4   0    6.87    0.24
   7  -4   0    6.04    0.20
   7  -4   1    1.16    0.12
   7  -4   1    1.52    0.12
   7  -4   1    1.11    0.10
   7  -4   2    0.37    0.09
   7  -4   2    0.29    0.07
  -7   4  -2    0.47    0.12
   7  -4   3   23.86    0.62
   7  -4   3   24.42    0.44
  -7   4  -3   25.24    0.76
   7  -4   4    1.31    0.18
   7  -4   4    1.79    0.09
  -7   4  -4    1.52    0.22
   7  -4   5   35.79    0.86
  -7   4  -5   37.05    0.99
   7  -4   6    1.68    0.18
  -7   4  -6    1.59    0.23
   7  -4   7   23.29    0.73
  -7   4  -7   24.54    0.81
   7  -4   8    1.04    0.18
  -7   4  -8    1.12    0.18
   7  -4   9    2.25    0.24
  -7   4  -9    2.24    0.22
   7  -4  10    0.69    0.22
  -7   4 -10    0.35    0.16
   7  -4  11   -0.00    0.12
  -7   4 -11   -0.02    0.10
   7  -4  12    0.02    0.21
  -7   4 -12    0.16    0.15
   7  -4  13    0.76    0.27
  -7   4 -13    0.48    0.25
   7  -3 -14    3.32    0.37
  -7   3  14    4.03    0.52
   7  -3 -13    0.42    0.18
  -7   3  13   -0.02    0.27
   7  -3 -12    0.84    0.20
  -7   3  12    1.11    0.28
   7  -3 -11   14.96    0.57
  -7   3  11   14.29    0.69
   7  -3 -10    1.53    0.21
  -7   3  10    2.39    0.29
   7  -3  -9    0.08    0.10
  -7   3   9    0.05    0.15
   7  -3  -8    0.92    0.18
  -7   3   8    0.72    0.20
   7  -3  -7   22.61    0.63
  -7   3   7   23.28    0.89
   7  -3  -6   68.96    1.42
  -7   3   6   69.07    1.70
   7  -3  -5   11.36    0.35
  -7   3   5   10.92    0.45
  -7   3   5    9.72    0.24
   7  -3  -4    6.75    0.25
  -7   3   4    6.18    0.21
  -7   3   4    6.49    0.36
   7  -3  -3   -0.02    0.05
   7  -3  -3    0.44    0.09
  -7   3   3   -0.07    0.09
   7  -3  -2    7.46    0.20
   7  -3  -2    7.15    0.25
  -7   3   2    7.29    0.30
   7  -3  -1   17.49    0.43
   7  -3  -1   17.18    0.39
  -7   3   1   18.68    0.54
   7  -3   0    9.83    0.27
   7  -3   0   10.34    0.29
  -7   3   0    9.95    0.33
   7  -3   1    5.56    0.22
   7  -3   1    5.20    0.20
  -7   3  -1    5.15    0.22
   7  -3   2    0.10    0.09
  -7   3  -2    0.14    0.07
  -7   3  -2    0.18    0.11
   7  -3   3    1.58    0.17
  -7   3  -3    1.60    0.10
  -7   3  -3    1.79    0.20
   7  -3   4   68.63    1.37
  -7   3  -4   70.05    1.61
   7  -3   5   17.39    0.52
  -7   3  -5   17.78    0.61
   7  -3   6    2.71    0.22
  -7   3  -6    3.50    0.25
   7  -3   7    0.09    0.11
  -7   3  -7    0.11    0.12
   7  -3   8    2.10    0.21
  -7   3  -8    1.91    0.26
   7  -3   9    3.73    0.33
  -7   3  -9    3.22    0.31
   7  -3  10    0.81    0.19
  -7   3 -10    0.58    0.22
   7  -3  11    0.08    0.13
  -7   3 -11   -0.02    0.13
   7  -3  12    0.64    0.19
  -7   3 -12    0.33    0.19
   7  -3  13    2.68    0.34
  -7   3 -13    2.83    0.31
   7  -2 -14    2.41    0.33
  -7   2  14    3.28    0.47
   7  -2 -13    1.18    0.30
  -7   2  13    1.29    0.29
   7  -2 -12    0.45    0.20
  -7   2  12    0.42    0.22
   7  -2 -11    2.38    0.24
  -7   2  11    1.69    0.30
   7  -2 -10    3.56    0.25
  -7   2  10    4.17    0.36
   7  -2  -9    0.87    0.15
  -7   2   9    0.86    0.21
   7  -2  -8   14.64    0.53
  -7   2   8   15.24    0.61
   7  -2  -7    0.91    0.14
  -7   2   7    0.31    0.18
   7  -2  -6   15.51    0.50
  -7   2   6   16.88    0.64
   7  -2  -5    3.73    0.20
  -7   2   5    3.85    0.26
   7  -2  -4    1.01    0.07
   7  -2  -4    1.16    0.13
  -7   2   4    1.44    0.19
   7  -2  -3    4.94    0.15
   7  -2  -3    5.11    0.21
  -7   2   3    5.18    0.26
   7  -2  -2    0.70    0.08
   7  -2  -2    0.84    0.11
  -7   2   2    0.60    0.13
   7  -2  -1    0.85    0.11
   7  -2  -1    1.00    0.09
  -7   2   1    1.06    0.14
   7  -2   0    4.54    0.19
   7  -2   0    4.64    0.17
  -7   2   0    4.46    0.19
   7  -2   1    2.45    0.14
   7  -2   1    1.83    0.12
  -7   2  -1    1.93    0.12
   7  -2   2    0.47    0.09
  -7   2  -2    0.36    0.06
  -7   2  -2    0.40    0.14
   7  -2   3    7.69    0.30
  -7   2  -3    7.02    0.39
   7  -2   4    2.44    0.17
  -7   2  -4    2.39    0.23
   7  -2   5    3.69    0.22
  -7   2  -5    3.71    0.26
   7  -2   6   11.49    0.42
  -7   2  -6   13.05    0.49
   7  -2   7    2.74    0.24
  -7   2  -7    3.48    0.26
   7  -2   8    0.53    0.17
  -7   2  -8    0.77    0.17
   7  -2   9    3.17    0.27
  -7   2  -9    3.42    0.28
   7  -2  10    0.84    0.21
  -7   2 -10    1.45    0.24
   7  -2  11    0.24    0.16
  -7   2 -11    0.24    0.16
   7  -2  12    0.27    0.19
  -7   2 -12    0.37    0.17
   7  -2  13    1.08    0.30
  -7   2 -13    0.81    0.23
   7  -1 -14    4.21    0.37
  -7   1  14    4.17    0.43
   7  -1 -13    2.77    0.31
  -7   1  13    2.91    0.36
   7  -1 -12    0.09    0.15
  -7   1  12    0.30    0.24
   7  -1 -11    0.14    0.14
  -7   1  11    0.37    0.18
   7  -1 -10    4.23    0.28
  -7   1  10    3.67    0.35
   7  -1  -9    3.10    0.23
  -7   1   9    3.89    0.35
   7  -1  -8    5.48    0.28
  -7   1   8    5.13    0.34
   7  -1  -7    9.84    0.39
  -7   1   7   11.18    0.49
   7  -1  -6    2.75    0.19
  -7   1   6    2.33    0.21
   7  -1  -5   11.85    0.40
  -7   1   5   10.66    0.40
   7  -1  -4    7.69    0.17
   7  -1  -4    8.83    0.30
  -7   1   4    8.75    0.33
   7  -1  -3    0.21    0.09
   7  -1  -3    0.33    0.06
  -7   1   3    0.20    0.11
   7  -1  -2    7.56    0.20
   7  -1  -2    7.48    0.31
  -7   1   2    8.09    0.27
   7  -1  -1    0.11    0.08
   7  -1  -1    0.11    0.05
  -7   1   1    0.07    0.07
   7  -1   0    7.09    0.25
   7  -1   0    6.86    0.22
  -7   1   0    6.97    0.22
   7  -1   1    4.71    0.21
   7  -1   1    4.32    0.18
  -7   1  -1    4.40    0.17
   7  -1   2    2.73    0.16
  -7   1  -2    2.50    0.09
  -7   1  -2    2.54    0.27
   7  -1   3    1.71    0.15
  -7   1  -3    1.88    0.24
   7  -1   4    1.93    0.16
  -7   1  -4    2.00    0.22
   7  -1   5    5.83    0.29
  -7   1  -5    5.88    0.37
   7  -1   6    0.12    0.10
  -7   1  -6   -0.05    0.12
   7  -1   7    0.22    0.12
  -7   1  -7   -0.10    0.12
   7  -1   8    3.47    0.31
  -7   1  -8    3.66    0.30
   7  -1   9    0.90    0.20
  -7   1  -9    0.98    0.19
   7  -1  10   -0.01    0.18
  -7   1 -10    0.12    0.14
   7  -1  11    0.82    0.22
  -7   1 -11    0.41    0.21
   7  -1  12    1.52    0.27
  -7   1 -12    1.06    0.29
   7   0 -14    0.67    0.23
  -7   0  14    0.91    0.26
   7   0 -13    0.78    0.22
  -7   0  13    0.88    0.27
   7   0 -12    0.36    0.22
  -7   0  12    0.84    0.27
   7   0 -11    0.01    0.11
  -7   0  11   -0.01    0.13
   7   0 -10    2.56    0.25
  -7   0  10    2.86    0.29
   7   0  -9    1.08    0.16
  -7   0   9    0.88    0.26
   7   0  -8    1.45    0.16
  -7   0   8    0.87    0.19
   7   0  -7    4.97    0.27
  -7   0   7    6.14    0.37
   7   0  -6    1.15    0.16
  -7   0   6    1.32    0.17
   7   0  -5    0.79    0.15
  -7   0   5    0.58    0.16
   7   0  -4    1.04    0.14
   7   0  -4    1.03    0.07
  -7   0   4    1.36    0.14
   7   0  -3   -0.15    0.10
   7   0  -3   -0.02    0.05
  -7   0   3   -0.03    0.09
   7   0  -2    5.58    0.18
   7   0  -2    5.20    0.23
  -7   0   2    5.04    0.20
   7   0  -1    8.67    0.29
   7   0  -1    8.50    0.23
  -7   0   1    9.17    0.26
   7   0   0    4.25    0.20
   7   0   0    3.95    0.16
  -7   0   0    3.59    0.15
   7   0   1    1.85    0.14
   7   0   1    1.52    0.12
  -7   0  -1    1.67    0.09
   7   0   2    1.80    0.16
  -7   0  -2    1.52    0.20
   7   0   3    0.51    0.11
  -7   0  -3    0.88    0.17
   7   0   4   -0.17    0.11
  -7   0  -4    0.02    0.16
   7   0   5    0.28    0.12
  -7   0  -5    0.40    0.15
   7   0   6    0.02    0.09
  -7   0  -6   -0.07    0.11
   7   0   7   -0.00    0.11
  -7   0  -7    0.16    0.16
   7   0   8    1.05    0.20
  -7   0  -8    0.87    0.20
   7   0   9   13.42    0.58
  -7   0  -9   12.61    0.60
   7   0  10    1.77    0.26
  -7   0 -10    1.55    0.26
   7   0  11    1.46    0.26
  -7   0 -11    0.88    0.25
   7   0  12    0.21    0.19
  -7   0 -12    0.03    0.17
   7   1 -14    0.34    0.21
  -7  -1  14    0.13    0.21
   7   1 -13    0.51    0.23
  -7  -1  13    1.12    0.25
   7   1 -12    3.06    0.31
  -7  -1  12    3.48    0.34
   7   1 -11    0.37    0.17
  -7  -1  11    0.71    0.19
   7   1 -10    1.00    0.18
  -7  -1  10    0.67    0.19
   7   1  -9    0.15    0.14
  -7  -1   9   -0.03    0.12
   7   1  -8    0.06    0.10
  -7  -1   8   -0.05    0.13
   7   1  -7   15.66    0.50
  -7  -1   7   15.24    0.56
   7   1  -6    1.38    0.20
  -7  -1   6    1.52    0.17
   7   1  -5    1.34    0.15
  -7  -1   5    1.28    0.15
   7   1  -4    0.63    0.06
   7   1  -4    0.64    0.12
  -7  -1   4    0.88    0.11
   7   1  -3    3.41    0.14
   7   1  -3    3.43    0.20
  -7  -1   3    3.50    0.18
   7   1  -2    0.46    0.09
   7   1  -2    0.47    0.11
  -7  -1   2    0.74    0.09
   7   1  -1    0.11    0.08
   7   1  -1    0.17    0.06
  -7  -1   1    0.13    0.07
   7   1   0    0.68    0.11
   7   1   0    0.52    0.10
  -7  -1   0    0.46    0.08
   7   1   1    1.05    0.12
  -7  -1  -1    1.11    0.19
  -7  -1  -1    0.95    0.08
   7   1   2   -0.04    0.07
  -7  -1  -2   -0.00    0.14
   7   1   3    0.63    0.14
  -7  -1  -3    0.25    0.17
   7   1   4    0.50    0.12
  -7  -1  -4    0.41    0.17
   7   1   5    1.32    0.18
  -7  -1  -5    1.67    0.27
   7   1   6    3.80    0.28
  -7  -1  -6    3.94    0.32
   7   1   7    1.73    0.23
  -7  -1  -7    2.12    0.25
   7   1   8    0.74    0.23
  -7  -1  -8    0.78    0.20
   7   1   9    1.31    0.23
  -7  -1  -9    1.08    0.23
   7   1  10    3.15    0.38
  -7  -1 -10    2.51    0.33
   7   1  11    0.18    0.19
  -7  -1 -11    0.14    0.17
   7   2 -14    0.06    0.13
  -7  -2  14   -0.12    0.18
   7   2 -13    1.80    0.27
  -7  -2  13    1.18    0.37
   7   2 -12    0.10    0.14
  -7  -2  12    0.04    0.15
   7   2 -11    8.00    0.47
  -7  -2  11    7.38    0.45
   7   2 -10    0.75    0.21
  -7  -2  10    0.86    0.21
   7   2  -9    5.08    0.31
  -7  -2   9    5.20    0.34
   7   2  -8    0.36    0.13
  -7  -2   8    0.17    0.14
   7   2  -7    2.29    0.24
  -7  -2   7    2.11    0.25
   7   2  -6    4.42    0.25
  -7  -2   6    4.75    0.30
   7   2  -5    0.12    0.10
  -7  -2   5   -0.07    0.08
   7   2  -4    2.60    0.12
   7   2  -4    2.44    0.20
  -7  -2   4    2.74    0.17
   7   2  -3    0.42    0.08
   7   2  -3    0.63    0.12
  -7  -2   3    0.54    0.12
   7   2  -2    0.49    0.12
   7   2  -2    0.83    0.10
  -7  -2   2    0.45    0.09
   7   2  -1   11.34    0.37
   7   2  -1   10.95    0.31
  -7  -2   1   10.97    0.31
   7   2   0    0.18    0.10
   7   2   0    0.35    0.09
  -7  -2   0    0.50    0.08
   7   2   1    4.43    0.21
  -7  -2  -1    4.80    0.32
  -7  -2  -1    4.06    0.15
   7   2   2    1.90    0.16
  -7  -2  -2    1.41    0.25
   7   2   3    0.44    0.15
  -7  -2  -3    0.48    0.22
   7   2   4    2.49    0.25
  -7  -2  -4    2.44    0.28
   7   2   5    0.02    0.10
  -7  -2  -5    0.08    0.17
   7   2   6    1.47    0.22
  -7  -2  -6    1.88    0.26
   7   2   7    0.20    0.14
  -7  -2  -7    0.02    0.16
   7   2   8    0.08    0.13
  -7  -2  -8    0.10    0.15
   7   2   9    0.12    0.24
  -7  -2  -9    0.70    0.20
   7   2  10   -0.06    0.16
  -7  -2 -10    0.15    0.16
   7   3 -14    0.07    0.22
  -7  -3  14    0.14    0.19
   7   3 -13    2.20    0.30
  -7  -3  13    2.39    0.38
   7   3 -12    5.82    0.41
  -7  -3  12    5.64    0.43
   7   3 -11    0.04    0.12
  -7  -3  11    0.02    0.13
   7   3 -10    0.00    0.14
  -7  -3  10    0.03    0.12
   7   3  -9    0.87    0.19
  -7  -3   9    1.26    0.19
   7   3  -8    0.72    0.16
  -7  -3   8    0.73    0.20
   7   3  -7    0.33    0.16
  -7  -3   7    0.37    0.16
   7   3  -6   -0.10    0.13
   7   3  -5    8.82    0.24
   7   3  -5    9.82    0.39
  -7  -3   5    9.85    0.39
   7   3  -4   -0.08    0.06
   7   3  -4   -0.02    0.09
  -7  -3   4    0.04    0.08
   7   3  -3    2.83    0.15
   7   3  -3    2.43    0.20
  -7  -3   3    2.47    0.16
   7   3  -2    2.39    0.21
   7   3  -2    1.89    0.13
  -7  -3   2    2.06    0.16
   7   3  -1    9.71    0.36
   7   3  -1   10.44    0.31
  -7  -3   1    9.30    0.30
   7   3   0    4.07    0.22
  -7  -3   0    3.06    0.16
   7   3   1    1.13    0.16
  -7  -3  -1    1.02    0.09
  -7  -3  -1    1.29    0.23
   7   3   2    1.43    0.16
  -7  -3  -2    1.29    0.24
   7   3   3    0.22    0.14
  -7  -3  -3    0.06    0.16
   7   3   4    0.85    0.16
  -7  -3  -4    0.81    0.20
   7   3   5    3.12    0.25
  -7  -3  -5    2.81    0.31
   7   3   6   -0.23    0.15
  -7  -3  -6    0.14    0.14
   7   3   7    0.13    0.15
  -7  -3  -7    0.29    0.18
   7   3   8    0.12    0.17
  -7  -3  -8    0.27    0.18
   7   3   9   -0.03    0.21
  -7  -3  -9    0.24    0.18
   7   3  10    2.03    0.39
  -7  -3 -10    1.86    0.31
   7   4 -13    1.08    0.27
  -7  -4  13    1.68    0.34
   7   4 -12   -0.00    0.16
  -7  -4  12   -0.27    0.16
   7   4 -11    0.01    0.14
  -7  -4  11    0.15    0.15
   7   4 -10   -0.08    0.13
  -7  -4  10    0.07    0.14
   7   4  -9    0.17    0.14
  -7  -4   9    0.40    0.16
   7   4  -8    2.77    0.28
  -7  -4   8    3.31    0.26
   7   4  -7    0.65    0.16
  -7  -4   7    0.90    0.15
   7   4  -6    1.46    0.18
  -7  -4   6    1.05    0.17
   7   4  -5    0.30    0.08
   7   4  -5    0.24    0.13
  -7  -4   5    0.50    0.12
   7   4  -4    0.04    0.05
   7   4  -4   -0.10    0.08
  -7  -4   4   -0.01    0.08
   7   4  -3    0.37    0.13
   7   4  -3    0.18    0.08
  -7  -4   3    0.31    0.12
   7   4  -2    2.90    0.21
   7   4  -2    2.81    0.17
  -7  -4   2    2.90    0.19
   7   4  -1    3.64    0.22
   7   4  -1    3.44    0.20
  -7  -4   1    3.56    0.19
   7   4   0    0.59    0.14
  -7  -4   0    0.52    0.20
  -7  -4   0    0.39    0.09
   7   4   1    1.35    0.17
  -7  -4  -1    0.92    0.11
  -7  -4  -1    1.76    0.29
   7   4   2    0.51    0.13
  -7  -4  -2    0.39    0.25
   7   4   3    0.85    0.16
  -7  -4  -3    0.80    0.27
   7   4   4    4.66    0.34
  -7  -4  -4    4.62    0.44
   7   4   5    0.36    0.15
  -7  -4  -5    0.01    0.17
   7   4   6    0.78    0.20
  -7  -4  -6    0.81    0.27
   7   4   7    0.05    0.20
  -7  -4  -7    0.38    0.21
   7   4   8    2.43    0.31
  -7  -4  -8    2.77    0.34
   7   4   9    0.05    0.18
  -7  -4  -9    0.16    0.21
   7   5 -12    0.45    0.24
  -7  -5  12    0.33    0.20
   7   5 -11    0.23    0.17
  -7  -5  11    0.28    0.20
   7   5 -10    0.08    0.13
  -7  -5  10    0.08    0.14
   7   5  -9    0.65    0.18
  -7  -5   9    0.70    0.18
   7   5  -8    0.02    0.10
  -7  -5   8   -0.03    0.10
   7   5  -7    0.22    0.12
  -7  -5   7    0.08    0.12
   7   5  -6    1.59    0.23
  -7  -5   6    1.76    0.19
   7   5  -5    1.20    0.12
   7   5  -5    1.69    0.17
  -7  -5   5    1.40    0.20
   7   5  -4   -0.01    0.15
   7   5  -4    0.56    0.11
  -7  -5   4    0.16    0.11
   7   5  -3    0.56    0.12
   7   5  -3    0.33    0.10
  -7  -5   3    0.39    0.13
   7   5  -2    0.50    0.12
   7   5  -2    0.44    0.11
  -7  -5   2    0.27    0.12
   7   5  -1    3.34    0.24
  -7  -5   1    3.13    0.32
  -7  -5   1    2.69    0.19
   7   5   0    0.09    0.15
  -7  -5   0    1.48    0.24
  -7  -5   0    0.32    0.10
   7   5   1    0.66    0.14
  -7  -5  -1    0.81    0.26
   7   5   2    0.61    0.15
  -7  -5  -2    0.41    0.24
   7   5   3    0.18    0.14
  -7  -5  -3    0.56    0.19
   7   5   4    0.32    0.13
  -7  -5  -4   -0.14    0.16
   7   5   5    8.44    0.42
  -7  -5  -5    7.42    0.52
   7   5   6    0.35    0.21
  -7  -5  -6    0.01    0.23
   7   5   7   -0.05    0.19
  -7  -5  -7    0.16    0.20
   7   6 -11    0.26    0.20
  -7  -6  11    0.14    0.17
   7   6 -10    0.38    0.17
  -7  -6  10    0.37    0.17
   7   6  -9   -0.01    0.12
  -7  -6   9   -0.08    0.12
   7   6  -8    0.05    0.11
  -7  -6   8   -0.04    0.13
   7   6  -7    0.64    0.18
  -7  -6   7    1.66    0.20
   7   6  -6    0.05    0.11
  -7  -6   6   -0.05    0.10
   7   6  -5    0.80    0.15
   7   6  -5    0.57    0.13
  -7  -6   5    0.57    0.15
   7   6  -4    0.39    0.16
   7   6  -4    0.23    0.10
  -7  -6   4    0.24    0.14
   7   6  -3   -0.09    0.09
   7   6  -3    0.12    0.10
  -7  -6   3    0.02    0.08
   7   6  -2    0.07    0.11
   7   6  -2    0.09    0.13
  -7  -6   2    0.16    0.09
   7   6  -1   -0.14    0.11
  -7  -6   1    0.18    0.15
  -7  -6   1   -0.03    0.09
   7   6   0    0.60    0.17
  -7  -6   0    0.35    0.12
  -7  -6   0    0.65    0.21
   7   6   1   -0.07    0.11
  -7  -6  -1   -0.14    0.21
   7   6   2    0.15    0.13
  -7  -6  -2    0.16    0.20
   7   6   3    0.77    0.20
  -7  -6  -3    0.86    0.23
   7   6   4    0.58    0.22
  -7  -6  -4    0.26    0.25
   7   6   5    0.09    0.13
  -7  -6  -5   -0.12    0.14
   7   6   6    0.13    0.19
  -7  -6  -6    0.41    0.20
   7   7  -9    0.87    0.19
  -7  -7   9    0.57    0.25
   7   7  -8    0.18    0.17
  -7  -7   8    0.21    0.16
   7   7  -7    0.24    0.13
  -7  -7   7    0.12    0.15
   7   7  -6    3.67    0.28
  -7  -7   6    4.54    0.29
   7   7  -5   -0.08    0.13
   7   7  -5    0.19    0.11
  -7  -7   5    0.03    0.14
   7   7  -4    0.08    0.10
   7   7  -4    0.06    0.09
  -7  -7   4   -0.09    0.12
   7   7  -3    0.39    0.16
   7   7  -3    0.05    0.11
  -7  -7   3    0.28    0.14
   7   7  -2    0.10    0.10
  -7  -7   2    0.10    0.15
  -7  -7   2   -0.11    0.10
   7   7  -1    0.43    0.15
  -7  -7   1    0.79    0.22
  -7  -7   1    0.53    0.15
   7   7   0    0.93    0.17
  -7  -7   0    0.55    0.30
   7   7   1   -0.03    0.13
  -7  -7  -1    0.03    0.16
   7   7   2   -0.12    0.13
  -7  -7  -2    0.06    0.16
   7   7   3    0.45    0.24
  -7  -7  -3    0.73    0.27
   7   7   4    0.11    0.15
  -7  -7  -4   -0.03    0.20
  -7  -8   7    0.70    0.19
   7   8  -6   -0.16    0.11
  -7  -8   6    0.11    0.12
   7   8  -5    0.25    0.12
  -7  -8   5   -0.09    0.13
   7   8  -4    0.13    0.16
   7   8  -4    0.11    0.12
  -7  -8   4    0.14    0.16
   7   8  -3    1.31    0.19
  -7  -8   3    1.08    0.28
  -7  -8   3    1.17    0.18
   7   8  -2    0.27    0.13
  -7  -8   2    0.05    0.12
  -7  -8   2    0.34    0.24
   7   8  -1    1.51    0.22
  -7  -8   1    1.28    0.29
   7   8   0    0.73    0.19
  -7  -8   0    0.53    0.27
   8 -12  -3    1.69    0.27
  -8  12   3    1.48    0.36
   8 -12  -2    0.67    0.22
  -8  12   2    0.81    0.29
   8 -12  -1    2.50    0.36
  -8  12   1    2.72    0.34
   8 -12   0    3.10    0.31
  -8  12   0    2.55    0.46
   8 -12   1    0.77    0.21
  -8  12  -1    0.73    0.33
   8 -12   2    0.27    0.18
  -8  12  -2    0.63    0.28
   8 -12   3    0.31    0.18
  -8  12  -3    0.41    0.24
   8 -12   4    1.42    0.23
  -8  12  -4    1.50    0.42
   8 -12   5   -0.10    0.16
  -8  12  -5    0.16    0.25
   8 -12   6    1.98    0.26
  -8  12  -6    2.16    0.50
   8 -11  -6   -0.06    0.15
   8 -11  -5    5.36    0.42
  -8  11   5    5.33    0.37
   8 -11  -4    3.42    0.33
  -8  11   4    3.69    0.39
   8 -11  -3    0.07    0.14
  -8  11   3    0.00    0.14
   8 -11  -2    0.90    0.22
  -8  11   2    1.41    0.23
   8 -11  -1    4.29    0.33
  -8  11   1    4.61    0.41
   8 -11   0    2.14    0.25
  -8  11   0    1.66    0.33
   8 -11   1    0.87    0.22
  -8  11  -1    0.31    0.23
   8 -11   2    0.96    0.22
  -8  11  -2    0.85    0.26
   8 -11   3    0.10    0.16
  -8  11  -3    0.03    0.20
   8 -11   4    0.21    0.18
  -8  11  -4    0.38    0.24
   8 -11   5    2.94    0.27
  -8  11  -5    3.19    0.51
   8 -11   6    0.02    0.14
  -8  11  -6    0.08    0.25
   8 -11   7    1.21    0.20
  -8  11  -7    1.32    0.35
  -8  11  -8    1.86    0.52
   8 -10  -8    0.41    0.20
   8 -10  -7    4.51    0.37
   8 -10  -6    0.29    0.19
  -8  10   6    0.01    0.14
   8 -10  -5    2.14    0.26
  -8  10   5    1.77    0.22
   8 -10  -4    0.18    0.15
  -8  10   4    0.09    0.15
   8 -10  -3    0.42    0.22
  -8  10   3    0.79    0.18
   8 -10  -2   -0.12    0.14
  -8  10   2   -0.12    0.18
   8 -10  -1    0.62    0.21
  -8  10   1    1.22    0.27
   8 -10   0    0.43    0.15
  -8  10   0    0.53    0.24
   8 -10   1    6.46    0.35
  -8  10  -1    7.88    0.50
   8 -10   2    0.17    0.13
  -8  10  -2    0.45    0.20
   8 -10   3    0.54    0.19
  -8  10  -3    1.02    0.25
   8 -10   4    0.01    0.10
  -8  10  -4   -0.13    0.20
   8 -10   5    5.11    0.30
  -8  10  -5    5.42    0.49
   8 -10   6    1.00    0.20
  -8  10  -6    0.99    0.38
   8 -10   7    0.06    0.11
  -8  10  -7    0.34    0.23
   8 -10   9    0.11    0.22
   8  -9  -9    0.08    0.19
   8  -9  -8    1.02    0.21
   8  -9  -7   -0.08    0.15
   8  -9  -6    0.02    0.12
  -8   9   6    0.01    0.11
   8  -9  -5    0.86    0.19
  -8   9   5    0.87    0.20
   8  -9  -4   -0.05    0.12
  -8   9   4   -0.06    0.10
   8  -9  -3    0.61    0.21
  -8   9   3    0.94    0.18
   8  -9  -2    4.33    0.28
  -8   9   2    4.27    0.32
   8  -9  -1    0.02    0.13
  -8   9   1    0.18    0.16
   8  -9   0    1.67    0.18
  -8   9   0    1.41    0.30
   8  -9   1    0.10    0.10
  -8   9  -1    0.09    0.15
   8  -9   2   -0.02    0.11
  -8   9  -2   -0.10    0.18
   8  -9   3    1.49    0.20
  -8   9  -3    1.85    0.34
   8  -9   4    0.09    0.10
  -8   9  -4   -0.16    0.16
   8  -9   5    1.82    0.23
   8  -9   5    1.81    0.21
   8  -9   6    1.45    0.21
   8  -9   6    1.22    0.18
   8  -9   7    2.01    0.27
   8  -9   7    2.12    0.22
   8  -9   8    1.64    0.26
   8  -9   9    1.68    0.28
   8  -9  10    0.45    0.26
  -8   8  10    0.85    0.40
   8  -8  -9    2.61    0.26
  -8   8   9    2.55    0.44
   8  -8  -8    0.22    0.16
   8  -8  -8    0.22    0.14
   8  -8  -7    0.23    0.17
   8  -8  -7    0.24    0.10
   8  -8  -6    0.83    0.17
   8  -8  -6    0.63    0.12
  -8   8   6    0.65    0.12
   8  -8  -5    0.00    0.07
   8  -8  -5    0.04    0.10
  -8   8   5    0.06    0.11
   8  -8  -4    0.62    0.16
   8  -8  -4    0.62    0.12
  -8   8   4    0.66    0.14
   8  -8  -3    0.43    0.13
   8  -8  -3    0.40    0.10
  -8   8   3    0.18    0.17
   8  -8  -2    0.40    0.10
   8  -8  -2    0.51    0.14
  -8   8   2    0.76    0.15
   8  -8  -1    0.07    0.07
   8  -8  -1   -0.05    0.09
  -8   8   1    0.12    0.12
   8  -8   0    0.26    0.11
  -8   8   0    0.19    0.15
  -8   8   0    0.11    0.13
   8  -8   1    0.64    0.16
  -8   8  -1    0.74    0.19
  -8   8  -1    0.74    0.14
   8  -8   2    9.13    0.39
  -8   8  -2   10.08    0.51
  -8   8  -2    9.10    0.37
   8  -8   3    2.09    0.20
   8  -8   3    1.99    0.18
  -8   8  -3    1.49    0.16
   8  -8   4    0.05    0.11
   8  -8   4    0.05    0.10
  -8   8  -4    0.03    0.10
   8  -8   5    0.60    0.15
   8  -8   5    0.54    0.14
  -8   8  -5    0.68    0.12
   8  -8   6    0.16    0.13
   8  -8   6   -0.06    0.09
  -8   8  -6    0.23    0.11
   8  -8   7    0.19    0.15
  -8   8  -7    0.20    0.10
   8  -8   8    1.19    0.21
  -8   8  -8    0.62    0.14
   8  -8   9    1.73    0.24
  -8   8  -9    0.97    0.16
   8  -8  10    1.98    0.29
  -8   8 -10    2.59    0.26
   8  -8  11    1.48    0.28
  -8   8 -11    1.40    0.23
   8  -7 -11    0.32    0.15
  -8   7  11   -0.02    0.28
   8  -7 -10    0.80    0.20
  -8   7  10    0.11    0.29
   8  -7  -9    0.24    0.13
  -8   7   9    0.39    0.24
   8  -7  -8    0.16    0.14
  -8   7   8    0.15    0.22
   8  -7  -7    1.97    0.26
   8  -7  -7    1.80    0.17
   8  -7  -6    0.10    0.12
   8  -7  -6    0.19    0.09
  -8   7   6    0.13    0.10
   8  -7  -5    0.05    0.10
   8  -7  -5   -0.06    0.07
  -8   7   5    0.03    0.08
   8  -7  -4    0.88    0.14
   8  -7  -4    0.53    0.10
  -8   7   4    0.69    0.16
   8  -7  -3    0.23    0.11
   8  -7  -3    0.18    0.09
  -8   7   3    0.05    0.12
   8  -7  -2   18.54    0.45
   8  -7  -2   19.00    0.54
  -8   7   2   18.76    0.66
   8  -7  -1    0.24    0.09
   8  -7  -1    0.28    0.10
  -8   7   1    0.10    0.16
   8  -7   0    0.34    0.13
  -8   7   0    0.59    0.15
   8  -7   1    6.18    0.28
   8  -7   1    5.68    0.28
  -8   7  -1    6.39    0.35
   8  -7   2   10.14    0.37
   8  -7   2    9.35    0.35
  -8   7  -2    9.50    0.39
   8  -7   3    0.03    0.11
   8  -7   3    0.06    0.08
  -8   7  -3   -0.04    0.11
   8  -7   4    1.44    0.18
   8  -7   4    1.42    0.14
  -8   7  -4    1.11    0.15
   8  -7   5    1.16    0.19
   8  -7   5    0.99    0.11
  -8   7  -5    1.45    0.19
   8  -7   6    0.79    0.16
   8  -7   6    0.54    0.11
  -8   7  -6    0.62    0.17
   8  -7   7    1.31    0.21
  -8   7  -7    1.23    0.17
   8  -7   8    1.48    0.23
  -8   7  -8    1.43    0.18
   8  -7   9    0.95    0.25
  -8   7  -9    0.65    0.16
   8  -7  10    1.79    0.26
  -8   7 -10    1.32    0.24
   8  -7  11   -0.07    0.18
  -8   7 -11    0.18    0.13
   8  -6 -12    9.09    0.57
  -8   6  12   10.53    0.73
   8  -6 -11    3.98    0.32
  -8   6  11    4.44    0.48
   8  -6 -10    4.86    0.32
  -8   6  10    5.99    0.60
   8  -6  -9    0.21    0.13
  -8   6   9    0.38    0.23
   8  -6  -8    0.86    0.19
  -8   6   8    0.88    0.28
   8  -6  -7    2.01    0.19
  -8   6   7    1.93    0.29
   8  -6  -6    5.01    0.23
  -8   6   6    1.95    0.26
   8  -6  -5   10.49    0.44
   8  -6  -5   10.53    0.36
  -8   6   5   10.47    0.37
   8  -6  -4    0.28    0.10
   8  -6  -4   -0.05    0.08
  -8   6   4    0.08    0.10
   8  -6  -3    0.64    0.12
   8  -6  -3    0.82    0.13
  -8   6   3    0.76    0.16
   8  -6  -2    0.97    0.13
   8  -6  -2    1.16    0.11
  -8   6   2    1.32    0.19
   8  -6  -1   37.43    0.77
   8  -6  -1   37.02    0.83
   8  -6   0    1.31    0.14
   8  -6   0    1.29    0.14
   8  -6   0    1.61    0.16
   8  -6   1    9.58    0.33
   8  -6   1    9.53    0.32
  -8   6  -1    9.51    0.46
   8  -6   2    0.01    0.06
   8  -6   2   -0.09    0.09
  -8   6  -2    0.02    0.09
   8  -6   3   -0.09    0.09
   8  -6   3   -0.03    0.07
  -8   6  -3   -0.12    0.10
   8  -6   4    6.73    0.36
   8  -6   4    6.25    0.23
  -8   6  -4    5.89    0.34
   8  -6   5    0.92    0.16
   8  -6   5    0.80    0.10
  -8   6  -5    0.92    0.15
   8  -6   6    3.10    0.24
  -8   6  -6    2.72    0.23
   8  -6   7   -0.14    0.11
  -8   6  -7    0.07    0.12
   8  -6   8    3.77    0.36
  -8   6  -8    4.05    0.27
   8  -6   9    0.56    0.18
  -8   6  -9    0.31    0.15
   8  -6  10    0.51    0.20
  -8   6 -10    0.71    0.17
   8  -6  11    1.21    0.26
  -8   6 -11    1.22    0.20
   8  -6  12    2.28    0.32
  -8   6 -12    2.12    0.32
   8  -5 -12   12.23    0.59
  -8   5  12   11.56    0.87
   8  -5 -11    0.03    0.18
  -8   5  11    0.36    0.21
   8  -5 -10    0.69    0.21
  -8   5  10    0.63    0.28
   8  -5  -9    3.10    0.30
  -8   5   9    3.52    0.40
   8  -5  -8    0.16    0.11
  -8   5   8    0.18    0.18
   8  -5  -7    1.36    0.19
  -8   5   7    0.93    0.30
   8  -5  -6    3.68    0.22
  -8   5   6    4.57    0.40
   8  -5  -5    4.42    0.26
  -8   5   5    4.00    0.40
  -8   5   5    3.91    0.20
   8  -5  -4    0.41    0.09
  -8   5   4    0.21    0.16
  -8   5   4    0.09    0.10
   8  -5  -3    2.87    0.21
   8  -5  -3    2.81    0.21
  -8   5   3    2.69    0.22
   8  -5  -2   -0.05    0.06
   8  -5  -2   -0.02    0.09
   8  -5  -1    0.08    0.08
   8  -5  -1   -0.07    0.08
   8  -5  -1    0.04    0.06
   8  -5   0    3.12    0.20
   8  -5   0    3.06    0.17
   8  -5   0    3.03    0.16
   8  -5   1    0.04    0.11
   8  -5   1    0.23    0.08
  -8   5  -1    0.01    0.12
   8  -5   2    1.61    0.16
   8  -5   2    1.23    0.12
  -8   5  -2    1.24    0.24
   8  -5   3    8.70    0.35
   8  -5   3    8.91    0.26
  -8   5  -3    9.22    0.48
   8  -5   4    2.12    0.18
   8  -5   4    1.62    0.11
  -8   5  -4    1.89    0.20
   8  -5   5    1.05    0.17
  -8   5  -5    1.32    0.24
   8  -5   6    4.18    0.26
  -8   5  -6    4.39    0.34
   8  -5   7    0.71    0.17
  -8   5  -7    1.06    0.18
   8  -5   8    1.05    0.19
  -8   5  -8    0.86    0.24
   8  -5   9    0.33    0.19
  -8   5  -9    0.16    0.17
   8  -5  10    1.44    0.29
  -8   5 -10    1.41    0.28
   8  -5  11    0.18    0.19
  -8   5 -11    0.34    0.17
   8  -5  12    0.45    0.21
  -8   5 -12    0.09    0.21
   8  -4 -13    0.07    0.17
  -8   4  13    0.29    0.28
   8  -4 -12    0.86    0.22
  -8   4  12    1.49    0.32
   8  -4 -11    1.59    0.26
  -8   4  11    1.49    0.33
   8  -4 -10    0.33    0.17
  -8   4  10   -0.01    0.21
   8  -4  -9    6.84    0.41
  -8   4   9    7.55    0.52
   8  -4  -8    1.73    0.19
  -8   4   8    1.22    0.29
   8  -4  -7    0.91    0.18
  -8   4   7    0.31    0.25
   8  -4  -6    0.84    0.14
  -8   4   6    1.22    0.21
   8  -4  -5   27.32    0.70
  -8   4   5   27.51    0.89
   8  -4  -4    1.46    0.15
  -8   4   4    1.80    0.25
  -8   4   4    1.53    0.15
   8  -4  -3    0.44    0.09
   8  -4  -3    0.45    0.10
  -8   4   3    0.68    0.16
   8  -4  -2    7.33    0.25
   8  -4  -2    6.74    0.27
  -8   4   2    7.47    0.40
   8  -4  -1    1.40    0.14
   8  -4  -1    1.42    0.12
  -8   4   1    1.51    0.20
   8  -4   0    0.08    0.08
   8  -4   0    0.04    0.07
  -8   4   0    0.00    0.11
   8  -4   1    0.14    0.08
  -8   4  -1   -0.04    0.09
  -8   4  -1    0.09    0.08
   8  -4   2    0.21    0.09
  -8   4  -2    0.18    0.08
  -8   4  -2    0.04    0.14
   8  -4   3   46.15    1.04
  -8   4  -3   42.53    0.92
  -8   4  -3   49.41    1.31
   8  -4   4    2.49    0.20
  -8   4  -4    2.38    0.29
   8  -4   5   15.60    0.52
  -8   4  -5   16.47    0.67
   8  -4   6    0.86    0.16
  -8   4  -6    0.83    0.22
   8  -4   7    0.77    0.21
  -8   4  -7    0.99    0.20
   8  -4   8    0.67    0.17
  -8   4  -8    0.49    0.18
   8  -4   9    0.50    0.17
  -8   4  -9    0.47    0.17
   8  -4  10    2.04    0.32
  -8   4 -10    2.12    0.26
   8  -4  11    0.03    0.14
  -8   4 -11    0.00    0.17
   8  -4  12    1.60    0.28
  -8   4 -12    1.09    0.25
   8  -3 -13    2.23    0.34
  -8   3  13    2.26    0.37
   8  -3 -12    2.60    0.35
  -8   3  12    2.60    0.39
   8  -3 -11    5.28    0.37
  -8   3  11    5.54    0.55
   8  -3 -10    1.60    0.21
  -8   3  10    2.20    0.30
   8  -3  -9    3.16    0.25
  -8   3   9    2.52    0.34
   8  -3  -8    5.19    0.30
  -8   3   8    5.77    0.46
   8  -3  -7   11.32    0.43
  -8   3   7   10.86    0.54
   8  -3  -6    2.08    0.22
  -8   3   6    2.03    0.30
   8  -3  -5    0.80    0.14
  -8   3   5    0.70    0.23
   8  -3  -4   15.32    0.33
   8  -3  -4   16.26    0.48
  -8   3   4   16.99    0.60
   8  -3  -3    0.82    0.10
   8  -3  -3    1.22    0.17
  -8   3   3    1.54    0.20
   8  -3  -2    0.74    0.11
   8  -3  -2    1.03    0.13
  -8   3   2    1.01    0.15
   8  -3  -1    0.33    0.07
   8  -3  -1    0.25    0.11
  -8   3   1    0.23    0.14
   8  -3   0   14.95    0.39
   8  -3   0   14.76    0.45
  -8   3   0   15.76    0.48
   8  -3   1   21.33    0.55
   8  -3   1   19.92    0.51
  -8   3  -1   18.65    0.51
   8  -3   2    0.92    0.14
  -8   3  -2    1.22    0.21
  -8   3  -2    1.18    0.14
   8  -3   3   11.73    0.44
  -8   3  -3   11.28    0.52
   8  -3   4   70.98    1.49
  -8   3  -4   69.50    1.77
   8  -3   5    3.59    0.30
  -8   3  -5    3.57    0.35
   8  -3   6   27.47    0.78
  -8   3  -6   27.61    0.97
   8  -3   7    0.79    0.18
  -8   3  -7    0.93    0.20
   8  -3   8    0.94    0.20
  -8   3  -8    1.00    0.26
   8  -3   9    0.41    0.18
  -8   3  -9    0.47    0.23
   8  -3  10    2.88    0.33
  -8   3 -10    3.25    0.36
   8  -3  11    0.30    0.24
  -8   3 -11    0.22    0.18
   8  -3  12    0.99    0.26
  -8   3 -12    0.91    0.23
   8  -2 -13    0.16    0.17
  -8   2  13    0.09    0.20
   8  -2 -12    1.26    0.30
  -8   2  12    1.41    0.29
   8  -2 -11    0.94    0.19
  -8   2  11    0.70    0.27
   8  -2 -10    0.80    0.18
  -8   2  10    0.49    0.22
   8  -2  -9    0.64    0.17
  -8   2   9    0.76    0.21
   8  -2  -8    2.00    0.22
  -8   2   8    2.20    0.28
   8  -2  -7   12.48    0.47
  -8   2   7   12.21    0.55
   8  -2  -6    3.86    0.28
  -8   2   6    3.33    0.28
   8  -2  -5   11.73    0.43
  -8   2   5   11.72    0.48
   8  -2  -4    0.09    0.05
   8  -2  -4    0.09    0.09
  -8   2   4   -0.05    0.11
   8  -2  -3    1.08    0.10
   8  -2  -3    1.28    0.14
  -8   2   3    1.02    0.15
   8  -2  -2    8.67    0.26
   8  -2  -2    8.99    0.32
  -8   2   2    8.74    0.33
   8  -2  -1    5.50    0.24
   8  -2  -1    5.56    0.20
  -8   2   1    6.41    0.28
   8  -2   0   19.09    0.54
   8  -2   0   19.34    0.50
  -8   2   0   18.17    0.49
   8  -2   1   39.25    0.89
   8  -2   1   39.56    0.82
  -8   2  -1   35.46    0.70
   8  -2   2    0.02    0.08
  -8   2  -2    0.28    0.14
   8  -2   3    7.02    0.33
  -8   2  -3    8.28    0.48
   8  -2   4    0.19    0.11
  -8   2  -4    0.25    0.15
   8  -2   5    6.75    0.32
  -8   2  -5    7.27    0.40
   8  -2   6    7.05    0.33
  -8   2  -6    6.57    0.41
   8  -2   7    0.64    0.17
  -8   2  -7    0.60    0.19
   8  -2   8    1.54    0.22
  -8   2  -8    1.47    0.24
   8  -2   9    2.70    0.29
  -8   2  -9    2.44    0.31
   8  -2  10   -0.12    0.14
  -8   2 -10    0.07    0.14
   8  -2  11    0.13    0.18
  -8   2 -11    0.10    0.21
   8  -1 -13    1.55    0.26
  -8   1  13    1.24    0.32
   8  -1 -12    0.96    0.24
  -8   1  12    1.38    0.30
   8  -1 -11    1.48    0.24
  -8   1  11    1.50    0.28
   8  -1 -10    1.07    0.20
  -8   1  10    0.90    0.24
   8  -1  -9    1.32    0.24
  -8   1   9    1.21    0.23
   8  -1  -8    4.77    0.31
  -8   1   8    5.44    0.36
   8  -1  -7   26.90    0.79
  -8   1   7   29.93    0.97
   8  -1  -6   15.45    0.52
  -8   1   6   16.45    0.59
   8  -1  -5    5.04    0.26
  -8   1   5    5.61    0.31
   8  -1  -4    1.74    0.10
   8  -1  -4    1.73    0.21
  -8   1   4    1.92    0.18
   8  -1  -3   16.12    0.49
   8  -1  -3   15.75    0.35
  -8   1   3   16.90    0.54
   8  -1  -2    2.88    0.15
   8  -1  -2    2.94    0.23
  -8   1   2    2.89    0.18
   8  -1  -1    4.91    0.25
   8  -1  -1    5.09    0.21
  -8   1   1    5.08    0.24
   8  -1   0    0.02    0.08
   8  -1   0   -0.04    0.06
  -8   1   0   -0.03    0.07
   8  -1   1   16.26    0.44
  -8   1  -1   14.54    0.33
   8  -1   2    1.45    0.14
  -8   1  -2    1.54    0.23
   8  -1   3    3.45    0.21
  -8   1  -3    3.20    0.31
   8  -1   4   23.52    0.65
  -8   1  -4   22.25    0.81
   8  -1   5   10.30    0.42
  -8   1  -5    8.90    0.48
   8  -1   6    7.38    0.37
  -8   1  -6    6.86    0.47
   8  -1   7    2.24    0.25
  -8   1  -7    2.69    0.29
   8  -1   8    2.11    0.28
  -8   1  -8    2.42    0.31
   8  -1   9   -0.03    0.13
  -8   1  -9    0.11    0.18
   8  -1  10    2.91    0.31
  -8   1 -10    2.06    0.34
   8  -1  11   -0.21    0.20
  -8   1 -11   -0.18    0.18
   8   0 -13    1.01    0.23
  -8   0  13    0.47    0.26
   8   0 -12    0.76    0.21
  -8   0  12    1.04    0.25
   8   0 -11    1.99    0.26
  -8   0  11    1.71    0.30
   8   0 -10    0.19    0.16
  -8   0  10    0.22    0.18
   8   0  -9   -0.05    0.13
  -8   0   9   -0.13    0.14
   8   0  -8    3.79    0.28
  -8   0   8    3.79    0.31
   8   0  -7   23.33    0.73
  -8   0   7   24.02    0.80
   8   0  -6   25.02    0.74
  -8   0   6   24.29    0.75
   8   0  -5    4.75    0.27
  -8   0   5    5.24    0.32
   8   0  -4    0.75    0.14
   8   0  -4    0.72    0.08
  -8   0   4    0.73    0.16
   8   0  -3    0.48    0.08
   8   0  -3    0.62    0.13
  -8   0   3    0.67    0.11
   8   0  -2   14.03    0.44
   8   0  -2   13.65    0.35
  -8   0   2   11.81    0.35
   8   0  -1    0.71    0.12
   8   0  -1    0.64    0.09
  -8   0   1    0.81    0.09
   8   0   0    0.36    0.14
   8   0   0    0.35    0.09
  -8   0   0    0.32    0.08
   8   0   1    1.89    0.15
  -8   0  -1    1.70    0.10
  -8   0  -1    1.98    0.24
   8   0   2    0.91    0.16
  -8   0  -2    1.24    0.21
   8   0   3    0.55    0.13
  -8   0  -3    0.74    0.19
   8   0   4    2.52    0.21
  -8   0  -4    3.24    0.36
   8   0   5    0.02    0.12
  -8   0  -5   -0.07    0.13
   8   0   6    4.25    0.32
  -8   0  -6    4.28    0.35
   8   0   7    1.38    0.21
  -8   0  -7    1.21    0.24
   8   0   8    1.87    0.27
  -8   0  -8    1.60    0.34
   8   0   9    1.65    0.27
  -8   0  -9    1.77    0.34
   8   0  10    0.08    0.18
  -8   0 -10    0.19    0.21
   8   1 -13    0.59    0.23
  -8  -1  13    0.54    0.25
   8   1 -12    0.01    0.14
  -8  -1  12    0.02    0.15
   8   1 -11    1.22    0.23
  -8  -1  11    1.07    0.30
   8   1 -10    0.25    0.18
  -8  -1  10    1.02    0.20
   8   1  -9   -0.11    0.13
  -8  -1   9   -0.21    0.15
   8   1  -8    5.23    0.33
  -8  -1   8    5.95    0.40
   8   1  -7    1.10    0.19
  -8  -1   7    1.42    0.19
   8   1  -6    1.53    0.19
  -8  -1   6    2.16    0.23
   8   1  -5    4.15    0.27
  -8  -1   5    4.51    0.29
   8   1  -4    0.01    0.05
   8   1  -4    0.09    0.09
  -8  -1   4    0.08    0.08
   8   1  -3    0.57    0.09
   8   1  -3    0.66    0.14
  -8  -1   3    0.80    0.12
   8   1  -2   -0.01    0.08
   8   1  -2    0.04    0.05
  -8  -1   2    0.02    0.08
   8   1  -1    6.28    0.31
   8   1  -1    6.82    0.26
  -8  -1   1    6.37    0.25
   8   1   0    5.28    0.27
   8   1   0    5.18    0.25
  -8  -1   0    4.75    0.19
   8   1   1    0.84    0.12
  -8  -1  -1    1.34    0.22
   8   1   2    0.26    0.13
  -8  -1  -2    0.34    0.22
   8   1   3    0.01    0.09
  -8  -1  -3   -0.12    0.17
   8   1   4    2.88    0.25
  -8  -1  -4    3.67    0.32
   8   1   5    5.59    0.33
  -8  -1  -5    4.98    0.39
   8   1   6    0.81    0.17
  -8  -1  -6    0.41    0.26
   8   1   7    0.74    0.19
  -8  -1  -7    0.75    0.23
   8   1   8    0.31    0.20
  -8  -1  -8    0.52    0.21
   8   1   9    0.12    0.16
  -8  -1  -9   -0.21    0.16
   8   1  10    1.70    0.35
  -8  -1 -10    2.29    0.32
   8   2 -13    0.16    0.22
  -8  -2  13    0.65    0.23
   8   2 -12    0.35    0.21
  -8  -2  12    0.49    0.21
   8   2 -11    0.20    0.15
  -8  -2  11    0.08    0.17
   8   2 -10    0.76    0.20
  -8  -2  10    0.91    0.27
   8   2  -9    0.00    0.12
  -8  -2   9   -0.08    0.15
   8   2  -8    1.71    0.22
  -8  -2   8    1.85    0.23
   8   2  -7    0.06    0.12
  -8  -2   7    0.06    0.14
   8   2  -6    0.09    0.15
  -8  -2   6    0.05    0.13
   8   2  -5    0.79    0.20
  -8  -2   5    0.66    0.14
   8   2  -4    1.28    0.11
   8   2  -4    1.47    0.17
  -8  -2   4    1.47    0.15
   8   2  -3    2.03    0.19
   8   2  -3    1.92    0.14
  -8  -2   3    1.53    0.18
   8   2  -2    9.80    0.39
   8   2  -2    9.53    0.32
  -8  -2   2    9.86    0.31
   8   2  -1    0.12    0.11
   8   2  -1    0.22    0.08
  -8  -2   1    0.05    0.08
   8   2   0    0.38    0.12
   8   2   0    0.15    0.12
  -8  -2   0    0.25    0.08
   8   2   1    0.57    0.15
  -8  -2  -1    0.79    0.22
   8   2   2    1.91    0.18
  -8  -2  -2    2.23    0.30
   8   2   3    0.47    0.15
  -8  -2  -3    1.12    0.24
   8   2   4    0.23    0.14
  -8  -2  -4    0.40    0.20
   8   2   5    0.81    0.18
  -8  -2  -5    0.49    0.23
   8   2   6    1.80    0.23
  -8  -2  -6    0.98    0.27
   8   2   7    0.37    0.19
  -8  -2  -7    0.30    0.20
   8   2   8    3.48    0.35
  -8  -2  -8    2.69    0.37
   8   2   9    3.58    0.38
  -8  -2  -9    3.29    0.42
   8   3 -12    0.32    0.20
  -8  -3  12    0.38    0.21
   8   3 -11    0.23    0.17
  -8  -3  11    0.14    0.18
   8   3 -10    5.75    0.39
  -8  -3  10    5.85    0.40
   8   3  -9    0.05    0.19
  -8  -3   9    0.46    0.19
   8   3  -8    2.36    0.29
  -8  -3   8    2.37    0.25
   8   3  -7    2.58    0.25
  -8  -3   7    2.45    0.24
   8   3  -6    0.95    0.17
  -8  -3   6    0.83    0.19
   8   3  -5    0.30    0.13
  -8  -3   5    0.23    0.12
   8   3  -4    1.31    0.12
   8   3  -4    1.33    0.23
  -8  -3   4    1.39    0.18
   8   3  -3    0.69    0.15
   8   3  -3    0.74    0.12
  -8  -3   3    0.89    0.14
   8   3  -2    1.01    0.16
   8   3  -2    1.10    0.12
  -8  -3   2    0.93    0.13
   8   3  -1    1.98    0.22
   8   3  -1    1.45    0.17
  -8  -3   1    1.07    0.14
   8   3   0    0.07    0.08
  -8  -3   0   -0.02    0.06
  -8  -3   0   -0.05    0.16
   8   3   1    0.12    0.11
  -8  -3  -1    0.11    0.17
   8   3   2    0.07    0.10
  -8  -3  -2   -0.01    0.16
   8   3   3    4.19    0.33
  -8  -3  -3    4.01    0.39
   8   3   4    0.27    0.16
  -8  -3  -4   -0.09    0.17
   8   3   5    0.39    0.17
  -8  -3  -5    0.39    0.21
   8   3   6    1.70    0.25
  -8  -3  -6    1.92    0.29
   8   3   7    0.23    0.20
  -8  -3  -7   -0.07    0.17
   8   3   8    0.04    0.14
  -8  -3  -8   -0.07    0.16
   8   4 -12    0.14    0.19
  -8  -4  12   -0.03    0.16
   8   4 -11    2.05    0.32
  -8  -4  11    1.27    0.32
   8   4 -10    1.24    0.23
  -8  -4  10    1.45    0.23
   8   4  -9    0.58    0.22
  -8  -4   9    0.49    0.18
   8   4  -8    0.10    0.15
  -8  -4   8    0.02    0.12
   8   4  -7    0.93    0.18
  -8  -4   7    0.82    0.21
   8   4  -6    3.84    0.33
  -8  -4   6    3.84    0.25
   8   4  -5    0.87    0.21
  -8  -4   5    0.93    0.15
   8   4  -4    0.08    0.14
   8   4  -4    0.10    0.08
  -8  -4   4   -0.04    0.09
   8   4  -3    0.42    0.14
   8   4  -3    0.32    0.11
  -8  -4   3    0.32    0.11
   8   4  -2    0.98    0.18
   8   4  -2    0.54    0.14
  -8  -4   2    0.51    0.13
   8   4  -1    1.35    0.18
   8   4  -1    1.31    0.17
  -8  -4   1    0.98    0.12
   8   4   0    0.51    0.14
  -8  -4   0    1.17    0.24
   8   4   1    3.04    0.25
  -8  -4  -1    2.92    0.37
   8   4   2    0.11    0.15
  -8  -4  -2    0.19    0.22
   8   4   3    0.85    0.22
  -8  -4  -3    0.94    0.25
   8   4   4    0.17    0.16
  -8  -4  -4    0.44    0.25
   8   4   5    0.39    0.18
  -8  -4  -5    0.18    0.21
   8   4   6    0.01    0.18
  -8  -4  -6    0.07    0.17
   8   4   7    0.19    0.20
  -8  -4  -7    0.43    0.23
   8   5 -10    0.37    0.19
  -8  -5  10    0.62    0.19
   8   5  -9    0.06    0.15
  -8  -5   9    0.16    0.14
   8   5  -8    1.84    0.24
  -8  -5   8    1.61    0.22
   8   5  -7    0.11    0.13
  -8  -5   7    0.00    0.14
   8   5  -6    0.06    0.12
  -8  -5   6    0.04    0.11
   8   5  -5    1.99    0.22
  -8  -5   5    2.23    0.25
   8   5  -4    0.89    0.17
   8   5  -4    0.68    0.11
  -8  -5   4    0.95    0.17
   8   5  -3    1.54    0.20
   8   5  -3    1.56    0.16
  -8  -5   3    1.34    0.16
   8   5  -2    0.45    0.16
   8   5  -2    0.62    0.13
  -8  -5   2    0.66    0.11
   8   5  -1    2.58    0.25
  -8  -5   1    2.76    0.42
  -8  -5   1    2.53    0.20
   8   5   0    2.30    0.22
  -8  -5   0    2.86    0.37
   8   5   1   -0.11    0.11
  -8  -5  -1    0.19    0.22
   8   5   2    0.22    0.13
  -8  -5  -2   -0.21    0.17
   8   5   3   -0.00    0.12
  -8  -5  -3   -0.02    0.18
   8   5   4    0.03    0.19
  -8  -5  -4    0.20    0.19
   8   5   5    0.25    0.18
  -8  -5  -5    0.33    0.21
   8   6  -9    0.27    0.22
  -8  -6   9    0.36    0.17
   8   6  -8    0.52    0.20
  -8  -6   8    0.89    0.23
   8   6  -7   -0.04    0.11
  -8  -6   7    0.03    0.10
   8   6  -6    0.38    0.21
  -8  -6   6    0.54    0.18
   8   6  -5    0.50    0.20
  -8  -6   5    0.56    0.15
   8   6  -4    0.18    0.17
  -8  -6   4    0.25    0.15
   8   6  -3    0.29    0.15
   8   6  -3    0.32    0.12
  -8  -6   3    0.11    0.12
   8   6  -2    0.16    0.14
  -8  -6   2    0.14    0.10
  -8  -6   2    0.30    0.25
   8   6  -1   -0.13    0.11
  -8  -6   1    0.08    0.17
   8   6   0    0.13    0.13
  -8  -6   0    0.20    0.20
   8   6   1    2.27    0.24
  -8  -6  -1    2.05    0.43
   8   6   2    0.20    0.15
  -8  -6  -2    0.06    0.21
   8   6   3    0.31    0.21
  -8  -6  -3    0.34    0.23
   8   7  -6    0.44    0.16
  -8  -7   6    0.36    0.15
   8   7  -5    0.51    0.21
  -8  -7   5    0.73    0.20
   8   7  -4    0.16    0.17
  -8  -7   4    0.11    0.16
   8   7  -3   -0.07    0.14
  -8  -7   3   -0.08    0.13
  -8  -7   3    0.02    0.20
   8   7  -2    1.30    0.20
  -8  -7   2    1.28    0.33
   8   7  -1    0.51    0.22
  -8  -7   1    0.85    0.32
   8   7   0    0.12    0.17
  -8  -7   0    0.06    0.21
   9 -12  -1    0.13    0.18
  -9  12   1    0.33    0.26
   9 -12   0   -0.07    0.14
  -9  12   0    0.05    0.18
   9 -12   1    0.01    0.13
  -9  12  -1    0.08    0.19
   9 -12   2    0.46    0.18
  -9  12  -2    0.60    0.26
   9 -12   3    0.33    0.17
  -9  12  -3    0.26    0.25
   9 -11  -4    0.67    0.24
  -9  11   4    0.34    0.21
   9 -11  -3    2.08    0.28
  -9  11   3    1.77    0.33
   9 -11  -2    0.34    0.18
  -9  11   2    0.53    0.22
   9 -11  -1    0.45    0.18
  -9  11   1    0.37    0.27
   9 -11   0    0.05    0.13
  -9  11   0    0.08    0.17
   9 -11   1    0.06    0.13
  -9  11  -1    0.16    0.22
   9 -11   2    0.06    0.13
  -9  11  -2    0.26    0.25
   9 -11   3    0.85    0.21
  -9  11  -3    0.48    0.29
   9 -11   4    0.08    0.13
  -9  11  -4   -0.19    0.23
   9 -11   5    0.11    0.14
  -9  11  -5   -0.25    0.26
  -9  11  -6    0.16    0.25
   9 -10  -6    2.61    0.29
   9 -10  -5    0.26    0.16
  -9  10   5    0.10    0.19
   9 -10  -4    9.75    0.50
  -9  10   4   10.17    0.55
   9 -10  -3    2.27    0.26
  -9  10   3    2.34    0.34
   9 -10  -2    0.23    0.15
  -9  10   2    0.38    0.18
   9 -10  -1    0.04    0.13
  -9  10   1   -0.02    0.14
   9 -10   0    4.84    0.37
  -9  10   0    5.16    0.41
   9 -10   1    1.11    0.22
  -9  10  -1    0.85    0.32
   9 -10   2    2.01    0.21
  -9  10  -2    1.97    0.40
   9 -10   3    0.18    0.12
  -9  10  -3    0.19    0.21
   9 -10   4    2.06    0.25
  -9  10  -4    2.40    0.43
   9 -10   5    0.01    0.09
  -9  10  -5   -0.14    0.23
  -9  10  -6    6.45    0.59
   9 -10   7    2.57    0.31
   9 -10   8    2.02    0.30
   9  -9  -8    5.36    0.39
   9  -9  -7    2.47    0.35
   9  -9  -6    0.02    0.13
   9  -9  -5    2.91    0.27
  -9   9   5    2.55    0.24
   9  -9  -4    2.01    0.28
  -9   9   4    1.90    0.27
   9  -9  -3    0.11    0.12
  -9   9   3    0.01    0.14
   9  -9  -2    1.30    0.19
  -9   9   2    1.29    0.27
   9  -9  -1    0.60    0.15
  -9   9   1    0.61    0.20
   9  -9   0    1.36    0.18
  -9   9   0    0.99    0.24
   9  -9   1    0.07    0.11
  -9   9  -1    0.34    0.22
   9  -9   2    1.69    0.19
  -9   9  -2    1.71    0.29
   9  -9   3    0.10    0.13
  -9   9  -3    0.30    0.23
   9  -9   4    0.24    0.15
   9  -9   4    0.21    0.11
   9  -9   5    2.08    0.26
   9  -9   5    2.21    0.22
   9  -9   6    1.80    0.26
   9  -9   7    0.19    0.17
   9  -9   8    1.29    0.25
   9  -9   9    1.41    0.28
  -9   8   9    3.45    0.49
   9  -8  -8    1.46    0.19
  -9   8   8    1.80    0.46
   9  -8  -7    3.69    0.30
   9  -8  -7    3.41    0.28
   9  -8  -6    0.25    0.14
   9  -8  -6    0.07    0.12
   9  -8  -5    4.10    0.33
   9  -8  -5    3.71    0.25
  -9   8   5    4.10    0.28
   9  -8  -4    1.11    0.20
   9  -8  -4    0.60    0.14
  -9   8   4    0.97    0.19
   9  -8  -3    0.09    0.09
   9  -8  -3    0.18    0.11
  -9   8   3    0.10    0.16
   9  -8  -2    2.64    0.17
   9  -8  -2    3.13    0.22
  -9   8   2    3.24    0.32
   9  -8  -1    2.19    0.16
   9  -8  -1    2.30    0.20
  -9   8   1    2.55    0.32
   9  -8   0    0.26    0.11
  -9   8   0    0.48    0.20
  -9   8   0   -0.07    0.15
   9  -8   1    6.34    0.33
  -9   8  -1    6.51    0.43
  -9   8  -1    6.57    0.37
   9  -8   2   -0.07    0.14
   9  -8   2    0.14    0.12
  -9   8  -2    0.17    0.13
   9  -8   3   -0.15    0.11
   9  -8   3    0.13    0.08
   9  -8   4    2.34    0.29
   9  -8   4    2.33    0.17
  -9   8  -4    2.34    0.21
   9  -8   5    3.80    0.34
   9  -8   5    3.29    0.23
  -9   8  -5    3.37    0.24
   9  -8   6    2.69    0.27
  -9   8  -6    2.19    0.25
   9  -8   7    0.13    0.19
  -9   8  -7    0.09    0.11
   9  -8   8    0.63    0.24
  -9   8  -8    0.19    0.14
   9  -8   9    6.94    0.44
  -9   8  -9    5.16    0.39
   9  -7 -10    3.37    0.33
  -9   7  10    3.09    0.47
   9  -7  -9    1.89    0.26
  -9   7   9    1.89    0.37
   9  -7  -8    0.51    0.18
  -9   7   8    1.00    0.35
   9  -7  -7    0.79    0.18
  -9   7   7    1.12    0.29
   9  -7  -6    0.20    0.14
  -9   7   6    0.26    0.15
   9  -7  -5    1.17    0.18
   9  -7  -5    1.06    0.18
  -9   7   5    1.25    0.17
   9  -7  -4    0.87    0.15
   9  -7  -4    0.73    0.15
  -9   7   4    0.66    0.18
   9  -7  -3    2.80    0.22
   9  -7  -3    2.46    0.20
  -9   7   3    3.05    0.27
   9  -7  -2    1.71    0.14
   9  -7  -2    1.94    0.18
  -9   7   2    1.99    0.25
   9  -7  -1    4.16    0.21
   9  -7  -1    4.04    0.22
  -9   7   1    3.63    0.30
   9  -7   0    4.40    0.26
  -9   7   0    4.65    0.30
   9  -7   1    2.50    0.21
   9  -7   1    2.55    0.18
  -9   7  -1    2.39    0.28
   9  -7   2    0.84    0.18
   9  -7   2    0.77    0.14
  -9   7  -2    0.76    0.21
   9  -7   3    0.46    0.14
   9  -7   3    0.48    0.12
  -9   7  -3    0.59    0.15
   9  -7   4    1.51    0.24
   9  -7   4    1.48    0.15
  -9   7  -4    1.24    0.20
   9  -7   5    1.46    0.22
  -9   7  -5    1.82    0.20
   9  -7   6    0.07    0.14
  -9   7  -6    0.13    0.13
   9  -7   7    7.71    0.44
  -9   7  -7    7.98    0.46
   9  -7   8    3.02    0.31
  -9   7  -8    3.07    0.30
   9  -7   9   -0.06    0.16
  -9   7  -9    0.14    0.13
   9  -7  10    4.10    0.48
  -9   7 -10    4.15    0.34
   9  -6 -11    0.26    0.20
  -9   6  11    0.17    0.35
   9  -6 -10    1.02    0.24
  -9   6  10    0.92    0.36
   9  -6  -9    0.82    0.19
  -9   6   9    1.39    0.32
   9  -6  -8    0.06    0.15
  -9   6   8    0.29    0.20
   9  -6  -7    0.31    0.16
  -9   6   7    0.50    0.23
   9  -6  -6    1.17    0.19
  -9   6   6    1.01    0.27
   9  -6  -5    2.42    0.23
  -9   6   5    1.86    0.31
   9  -6  -4   -0.11    0.09
  -9   6   4    0.20    0.17
  -9   6   4   -0.16    0.11
   9  -6  -3    0.83    0.17
   9  -6  -3    1.08    0.14
  -9   6   3    0.92    0.18
   9  -6  -2    0.19    0.09
   9  -6  -2    0.07    0.10
  -9   6   2    0.27    0.14
   9  -6  -1    0.12    0.09
   9  -6  -1   -0.03    0.10
   9  -6  -1    0.04    0.10
   9  -6   0    0.37    0.11
   9  -6   0    0.21    0.12
   9  -6   0    0.16    0.09
   9  -6   1    1.11    0.14
   9  -6   1    0.68    0.14
  -9   6  -1    1.37    0.19
   9  -6   2    0.79    0.14
   9  -6   2    0.65    0.12
  -9   6  -2    0.97    0.19
   9  -6   3    0.59    0.17
   9  -6   3    0.36    0.10
  -9   6  -3    0.47    0.16
   9  -6   4    0.97    0.21
   9  -6   4    0.73    0.12
  -9   6  -4    1.34    0.23
   9  -6   5    2.84    0.26
  -9   6  -5    3.66    0.32
   9  -6   6    0.11    0.17
  -9   6  -6    0.14    0.13
   9  -6   7    0.71    0.18
  -9   6  -7    0.18    0.22
   9  -6   8    0.20    0.16
  -9   6  -8    0.09    0.18
   9  -6   9    0.19    0.19
  -9   6  -9   -0.01    0.16
   9  -6  10    0.03    0.18
  -9   6 -10   -0.05    0.16
   9  -5 -11    0.47    0.19
  -9   5  11    0.27    0.29
   9  -5 -10    0.03    0.13
  -9   5  10    0.17    0.21
   9  -5  -9    0.44    0.18
  -9   5   9    0.37    0.25
   9  -5  -8    0.33    0.13
  -9   5   8    0.05    0.21
   9  -5  -7    0.52    0.13
  -9   5   7    0.12    0.21
   9  -5  -6    0.81    0.16
  -9   5   6    1.41    0.24
   9  -5  -5    1.78    0.22
  -9   5   5    2.28    0.27
   9  -5  -4    8.73    0.36
  -9   5   4    8.82    0.54
  -9   5   4    8.65    0.35
   9  -5  -3   -0.02    0.07
  -9   5   3    0.04    0.10
  -9   5   3   -0.02    0.11
   9  -5  -2    6.18    0.28
   9  -5  -2    6.74    0.28
  -9   5   2    6.54    0.37
   9  -5  -1    5.62    0.29
   9  -5  -1    6.20    0.27
  -9   5   1    6.10    0.33
   9  -5   0   -0.05    0.08
   9  -5   0   -0.02    0.08
  -9   5   0   -0.01    0.10
   9  -5   1    2.82    0.23
  -9   5  -1    2.67    0.21
  -9   5  -1    2.77    0.33
   9  -5   2    1.92    0.19
  -9   5  -2    1.00    0.16
  -9   5  -2    2.06    0.24
   9  -5   3    0.87    0.16
  -9   5  -3    0.75    0.13
  -9   5  -3    0.96    0.21
   9  -5   4   10.76    0.44
  -9   5  -4   10.67    0.59
   9  -5   5    2.21    0.22
  -9   5  -5    2.16    0.27
   9  -5   6    0.96    0.20
  -9   5  -6    1.32    0.22
   9  -5   7    0.34    0.16
  -9   5  -7    0.46    0.22
   9  -5   8    0.51    0.16
  -9   5  -8   -0.04    0.21
   9  -5   9    0.44    0.23
  -9   5  -9    0.30    0.21
   9  -5  10    0.25    0.20
  -9   5 -10    0.56    0.23
   9  -4 -12    2.08    0.29
  -9   4  12    2.08    0.46
   9  -4 -11    1.47    0.31
  -9   4  11    1.97    0.33
   9  -4 -10    0.49    0.17
  -9   4  10    0.37    0.25
   9  -4  -9    0.81    0.22
  -9   4   9    0.79    0.28
   9  -4  -8    2.85    0.25
  -9   4   8    3.13    0.35
   9  -4  -7    0.21    0.13
  -9   4   7    0.34    0.19
   9  -4  -6    0.07    0.11
  -9   4   6    0.11    0.16
   9  -4  -5   10.03    0.43
  -9   4   5   10.52    0.58
   9  -4  -4    4.31    0.26
  -9   4   4    3.91    0.23
  -9   4   4    3.97    0.38
   9  -4  -3    3.97    0.17
   9  -4  -3    4.73    0.29
  -9   4   3    4.87    0.36
   9  -4  -2   10.32    0.40
   9  -4  -2    9.06    0.32
  -9   4   2    9.68    0.44
   9  -4  -1    2.43    0.19
   9  -4  -1    2.84    0.20
  -9   4   1    3.60    0.26
   9  -4   0    1.05    0.15
   9  -4   0    1.11    0.14
  -9   4   0    0.97    0.19
   9  -4   1    0.54    0.12
  -9   4  -1    0.81    0.15
  -9   4  -1    0.44    0.24
   9  -4   2   11.29    0.40
  -9   4  -2   10.63    0.39
  -9   4  -2   12.13    0.58
   9  -4   3    4.47    0.26
  -9   4  -3    5.55    0.38
   9  -4   4    2.17    0.21
  -9   4  -4    2.25    0.26
   9  -4   5    0.17    0.12
  -9   4  -5    0.28    0.16
   9  -4   6    1.39    0.21
  -9   4  -6    1.72    0.28
   9  -4   7    2.78    0.26
  -9   4  -7    2.82    0.30
   9  -4   8    2.35    0.27
  -9   4  -8    2.78    0.30
   9  -4   9   -0.01    0.12
  -9   4  -9    0.01    0.13
   9  -4  10    0.38    0.20
  -9   4 -10    0.19    0.18
   9  -3 -12   11.07    0.58
  -9   3  12   11.24    0.80
   9  -3 -11    0.23    0.17
  -9   3  11    0.12    0.21
   9  -3 -10    1.89    0.26
  -9   3  10    1.85    0.40
   9  -3  -9    0.81    0.19
  -9   3   9    1.00    0.25
   9  -3  -8    1.30    0.24
  -9   3   8    1.39    0.26
   9  -3  -7    1.15    0.19
  -9   3   7    1.42    0.29
   9  -3  -6    6.94    0.36
  -9   3   6    8.07    0.52
   9  -3  -5    0.01    0.10
  -9   3   5   -0.03    0.11
   9  -3  -4    0.09    0.06
   9  -3  -4    0.29    0.11
  -9   3   4   -0.24    0.13
   9  -3  -3    1.65    0.14
   9  -3  -3    2.83    0.19
  -9   3   3    2.22    0.23
   9  -3  -2    1.68    0.21
   9  -3  -2    1.74    0.15
  -9   3   2    2.56    0.24
   9  -3  -1    1.35    0.14
   9  -3  -1    1.20    0.19
  -9   3   1    1.31    0.16
   9  -3   0    0.39    0.10
   9  -3   0    0.89    0.12
  -9   3   0    0.19    0.11
   9  -3   1    3.80    0.22
  -9   3  -1    3.75    0.21
  -9   3  -1    4.17    0.35
   9  -3   2    2.87    0.21
  -9   3  -2    3.75    0.33
   9  -3   3    0.26    0.11
  -9   3  -3   -0.00    0.17
   9  -3   4    4.76    0.29
  -9   3  -4    4.28    0.36
   9  -3   5    0.12    0.12
  -9   3  -5    0.04    0.16
   9  -3   6    3.65    0.28
  -9   3  -6    3.65    0.40
   9  -3   7    0.25    0.15
  -9   3  -7    0.22    0.18
   9  -3   8    0.20    0.19
  -9   3  -8    0.50    0.20
   9  -3   9    0.30    0.20
  -9   3  -9    0.33    0.19
   9  -3  10    0.15    0.21
  -9   3 -10    0.03    0.16
   9  -2 -12    0.89    0.26
  -9   2  12    1.14    0.29
   9  -2 -11    0.37    0.18
  -9   2  11    0.30    0.27
   9  -2 -10    1.10    0.27
  -9   2  10    1.04    0.27
   9  -2  -9    2.24    0.25
  -9   2   9    2.21    0.32
   9  -2  -8    0.20    0.16
  -9   2   8    0.11    0.17
   9  -2  -7    1.06    0.23
  -9   2   7    1.13    0.27
   9  -2  -6    2.10    0.22
  -9   2   6    2.18    0.25
   9  -2  -5   22.01    0.68
  -9   2   5   21.88    0.81
   9  -2  -4    2.54    0.21
  -9   2   4    1.86    0.26
   9  -2  -3    0.45    0.09
   9  -2  -3    0.53    0.13
  -9   2   3    0.12    0.16
   9  -2  -2    1.31    0.13
   9  -2  -2    1.09    0.16
  -9   2   2    1.64    0.19
   9  -2  -1   -0.00    0.09
   9  -2  -1    0.05    0.08
  -9   2   1    0.04    0.09
   9  -2   0    6.11    0.29
   9  -2   0    5.01    0.26
  -9   2   0    5.08    0.25
   9  -2   1    3.93    0.22
  -9   2  -1    3.40    0.34
   9  -2   2    3.40    0.21
  -9   2  -2    3.92    0.36
   9  -2   3    5.45    0.28
  -9   2  -3    5.49    0.43
   9  -2   4    8.88    0.38
  -9   2  -4    9.22    0.51
   9  -2   5   11.66    0.49
  -9   2  -5   12.61    0.62
   9  -2   6    0.13    0.13
  -9   2  -6    0.13    0.15
   9  -2   7    2.70    0.27
  -9   2  -7    3.18    0.38
   9  -2   8    0.00    0.14
  -9   2  -8    0.08    0.15
   9  -2   9    3.45    0.34
  -9   2  -9    3.11    0.36
   9  -2  10    1.98    0.37
  -9   2 -10    2.06    0.37
   9  -1 -12    7.24    0.49
  -9   1  12    6.90    0.54
   9  -1 -11    0.11    0.11
  -9   1  11   -0.17    0.14
   9  -1 -10    0.93    0.22
  -9   1  10    1.34    0.26
   9  -1  -9    1.29    0.21
  -9   1   9    1.32    0.31
   9  -1  -8    5.53    0.35
  -9   1   8    4.81    0.40
   9  -1  -7    5.21    0.33
  -9   1   7    5.15    0.45
   9  -1  -6    3.81    0.27
  -9   1   6    4.14    0.37
   9  -1  -5    1.50    0.19
  -9   1   5    1.27    0.24
   9  -1  -4   16.77    0.58
  -9   1   4   17.54    0.58
   9  -1  -3   11.06    0.47
   9  -1  -3   10.50    0.30
  -9   1   3   10.37    0.41
   9  -1  -2    4.48    0.25
   9  -1  -2    4.18    0.18
  -9   1   2    4.11    0.25
   9  -1  -1    0.30    0.10
   9  -1  -1    0.00    0.09
  -9   1   1   -0.03    0.07
   9  -1   0    2.59    0.21
   9  -1   0    2.17    0.16
  -9   1   0    1.94    0.14
   9  -1   1   15.60    0.47
  -9   1  -1   15.27    0.71
   9  -1   2    0.16    0.11
  -9   1  -2    0.60    0.23
   9  -1   3   26.40    0.75
  -9   1  -3   28.00    1.17
   9  -1   4    0.42    0.15
  -9   1  -4    0.43    0.20
   9  -1   5    1.29    0.21
  -9   1  -5    1.68    0.26
   9  -1   6    3.48    0.29
  -9   1  -6    2.99    0.32
   9  -1   7    2.35    0.28
  -9   1  -7    2.39    0.37
   9  -1   8    0.88    0.24
  -9   1  -8    0.96    0.32
   9  -1   9    0.07    0.19
  -9   1  -9    0.31    0.24
   9  -1  10    0.45    0.27
  -9   1 -10    0.25    0.23
   9   0 -12    0.22    0.19
  -9   0  12    0.35    0.22
   9   0 -11    0.81    0.24
  -9   0  11    1.21    0.26
   9   0 -10    0.10    0.17
  -9   0  10   -0.05    0.20
   9   0  -9    3.23    0.30
  -9   0   9    3.64    0.34
   9   0  -8    9.10    0.54
  -9   0   8    9.02    0.51
   9   0  -7    0.31    0.19
  -9   0   7    0.48    0.17
   9   0  -6    0.21    0.13
  -9   0   6    0.03    0.13
   9   0  -5    0.32    0.18
  -9   0   5    0.49    0.15
   9   0  -4    0.12    0.12
  -9   0   4    0.13    0.10
   9   0  -3    3.55    0.18
   9   0  -3    3.60    0.25
  -9   0   3    4.14    0.26
   9   0  -2   22.38    0.68
   9   0  -2   21.40    0.56
  -9   0   2   20.96    0.57
   9   0  -1    0.01    0.10
   9   0  -1    0.09    0.07
  -9   0   1   -0.04    0.08
   9   0   0    0.11    0.09
   9   0   0   -0.02    0.09
  -9   0   0   -0.05    0.06
   9   0   1    5.20    0.26
  -9   0  -1    4.71    0.40
   9   0   2    0.19    0.13
  -9   0  -2    2.15    0.28
   9   0   3   14.83    0.53
  -9   0  -3   14.06    0.68
   9   0   4    5.09    0.32
  -9   0  -4    4.63    0.41
   9   0   5    2.16    0.25
  -9   0  -5    2.08    0.31
   9   0   6   16.57    0.76
  -9   0  -6   16.27    0.83
   9   0   7    0.92    0.25
  -9   0  -7    1.08    0.27
   9   0   8    0.21    0.19
  -9   0  -8    0.14    0.19
   9   0   9   -0.06    0.16
  -9   0  -9    0.02    0.17
   9   1 -12   -0.11    0.19
  -9  -1  12    0.03    0.18
   9   1 -11    0.07    0.15
  -9  -1  11   -0.16    0.16
   9   1 -10    2.03    0.29
  -9  -1  10    2.87    0.32
   9   1  -9    0.07    0.12
  -9  -1   9   -0.05    0.13
   9   1  -8   14.91    0.69
  -9  -1   8   15.88    0.66
   9   1  -7   15.06    0.66
  -9  -1   7   15.44    0.67
   9   1  -6    1.13    0.21
  -9  -1   6    1.43    0.19
   9   1  -5   20.22    0.73
  -9  -1   5   19.79    0.65
   9   1  -4    1.99    0.27
  -9  -1   4    2.48    0.20
   9   1  -3    2.07    0.21
   9   1  -3    1.60    0.15
  -9  -1   3    1.72    0.15
   9   1  -2    4.38    0.27
   9   1  -2    4.37    0.22
  -9  -1   2    4.04    0.21
   9   1  -1    0.15    0.11
   9   1  -1    0.04    0.09
  -9  -1   1    0.03    0.06
   9   1   0    1.27    0.18
   9   1   0    1.09    0.14
   9   1   1    0.26    0.12
  -9  -1  -1   -0.16    0.19
   9   1   2    1.15    0.17
  -9  -1  -2    2.10    0.30
   9   1   3    0.40    0.14
  -9  -1  -3    0.07    0.21
   9   1   4    4.30    0.35
  -9  -1  -4    4.19    0.43
   9   1   5    1.42    0.23
  -9  -1  -5    1.25    0.29
   9   1   6    1.27    0.24
  -9  -1  -6    1.01    0.28
   9   1   7    2.35    0.35
  -9  -1  -7    1.91    0.42
   9   1   8   -0.09    0.18
  -9  -1  -8    0.09    0.19
   9   2 -11    2.11    0.34
  -9  -2  11    1.71    0.36
   9   2 -10    0.70    0.29
  -9  -2  10    1.18    0.28
   9   2  -9    0.40    0.20
  -9  -2   9    0.98    0.24
   9   2  -8    0.31    0.16
  -9  -2   8    0.12    0.15
   9   2  -7   21.80    0.78
  -9  -2   7   20.42    0.73
   9   2  -6    4.26    0.32
  -9  -2   6    4.17    0.29
   9   2  -5    5.48    0.34
  -9  -2   5    5.32    0.34
   9   2  -4    1.17    0.18
  -9  -2   4    0.99    0.19
   9   2  -3    1.25    0.19
   9   2  -3    1.41    0.14
  -9  -2   3    1.11    0.18
   9   2  -2    4.58    0.28
   9   2  -2    3.54    0.23
  -9  -2   2    3.34    0.22
   9   2  -1    1.07    0.18
   9   2  -1    0.83    0.16
  -9  -2   1    1.16    0.12
   9   2   0    0.55    0.12
  -9  -2   0    0.53    0.23
   9   2   1    0.18    0.11
  -9  -2  -1    0.13    0.19
   9   2   2    0.35    0.14
  -9  -2  -2    0.29    0.22
   9   2   3    0.18    0.14
  -9  -2  -3    0.16    0.22
   9   2   4    7.03    0.41
  -9  -2  -4    6.74    0.52
   9   2   5    0.12    0.18
  -9  -2  -5    0.04    0.19
   9   2   6    3.37    0.34
  -9  -2  -6    3.27    0.49
   9   2   7    0.29    0.20
  -9  -2  -7    0.30    0.27
   9   3 -11    1.51    0.29
  -9  -3  11    1.44    0.29
   9   3 -10    0.04    0.15
  -9  -3  10   -0.09    0.14
   9   3  -9    0.44    0.23
  -9  -3   9    0.41    0.19
   9   3  -8    0.23    0.17
  -9  -3   8    0.33    0.16
   9   3  -7    4.17    0.40
  -9  -3   7    4.90    0.32
   9   3  -6    1.70    0.22
  -9  -3   6    0.98    0.24
   9   3  -5    0.23    0.18
  -9  -3   5    0.21    0.15
   9   3  -4    2.39    0.24
  -9  -3   4    2.35    0.20
   9   3  -3   -0.06    0.12
   9   3  -3    0.02    0.09
  -9  -3   3   -0.08    0.08
   9   3  -2    0.49    0.19
   9   3  -2    0.85    0.14
  -9  -3   2    0.39    0.13
   9   3  -1    0.24    0.15
   9   3  -1    0.34    0.11
   9   3   0    1.15    0.20
  -9  -3   0    1.15    0.36
   9   3   1    0.33    0.14
  -9  -3  -1    0.56    0.24
   9   3   2    0.94    0.20
  -9  -3  -2    1.63    0.30
   9   3   3    0.02    0.11
  -9  -3  -3   -0.01    0.20
   9   3   4    0.61    0.26
  -9  -3  -4    1.01    0.28
   9   3   5   -0.06    0.18
  -9  -3  -5    0.17    0.19
   9   3   6    0.11    0.23
  -9  -3  -6    0.19    0.23
   9   4 -10    0.28    0.19
  -9  -4  10    0.27    0.19
   9   4  -9    1.86    0.32
  -9  -4   9    1.19    0.24
   9   4  -8    2.67    0.30
  -9  -4   8    2.42    0.26
   9   4  -7    0.32    0.23
  -9  -4   7    0.64    0.16
   9   4  -6    0.08    0.12
  -9  -4   6    0.00    0.11
   9   4  -5    4.33    0.32
  -9  -4   5    4.06    0.26
   9   4  -4   -0.00    0.11
  -9  -4   4    0.01    0.10
   9   4  -3    2.28    0.24
   9   4  -3    1.70    0.17
  -9  -4   3    1.90    0.18
   9   4  -2    1.13    0.20
   9   4  -2    1.08    0.18
  -9  -4   2    0.85    0.14
   9   4  -1    4.07    0.27
  -9  -4   1    3.85    0.53
   9   4   0    0.70    0.16
  -9  -4   0    0.83    0.28
   9   4   1    0.02    0.14
  -9  -4  -1    0.05    0.18
   9   4   2   -0.03    0.12
  -9  -4  -2    0.02    0.23
   9   4   3    0.97    0.22
  -9  -4  -3    1.71    0.33
   9   4   4    2.36    0.29
  -9  -4  -4    2.56    0.39
   9   4   5    1.13    0.25
  -9  -4  -5    1.14    0.31
   9   5  -8    0.45    0.23
  -9  -5   8    0.23    0.20
   9   5  -7   -0.12    0.18
  -9  -5   7    0.13    0.12
   9   5  -6    1.63    0.24
  -9  -5   6    1.14    0.20
   9   5  -5   -0.00    0.12
  -9  -5   5    0.00    0.11
   9   5  -4    0.05    0.14
  -9  -5   4    0.11    0.13
   9   5  -3   -0.10    0.14
  -9  -5   3    0.17    0.11
   9   5  -2    1.73    0.21
  -9  -5   2    1.81    0.36
   9   5  -1    0.06    0.11
  -9  -5   1   -0.09    0.24
   9   5   0    0.12    0.15
  -9  -5   0   -0.11    0.19
   9   5   1   -0.04    0.11
  -9  -5  -1    0.10    0.17
   9   5   2    0.85    0.21
  -9  -5  -2    0.50    0.27
   9   6  -5    0.04    0.15
  -9  -6   5    0.24    0.16
   9   6  -4    0.06    0.14
  -9  -6   3    0.35    0.18
  -9  -6   2    0.11    0.28
   9   6  -1    1.05    0.19
  -9  -6   1    0.63    0.34
  10 -11  -2    0.37    0.19
 -10  11   2    0.41    0.23
  10 -11  -1    0.54    0.20
 -10  11   1    1.03    0.31
  10 -11   0    1.77    0.25
 -10  11   0    2.08    0.33
  10 -11   1    0.11    0.17
 -10  11  -1    0.02    0.23
  10 -11   2    0.28    0.15
 -10  11  -2    0.23    0.25
  10 -11   3    4.26    0.37
 -10  11  -3    4.93    0.50
  10 -10  -5    0.16    0.16
  10 -10  -4    0.24    0.21
  10 -10  -3    2.23    0.31
 -10  10   3    1.60    0.34
  10 -10  -2    0.50    0.18
 -10  10   2    0.51    0.22
  10 -10  -1    0.33    0.17
 -10  10   1    0.51    0.21
  10 -10   0    0.21    0.14
 -10  10   0    0.13    0.21
  10 -10   1    1.10    0.24
 -10  10  -1    1.58    0.29
  10 -10   2    0.03    0.10
 -10  10  -2   -0.01    0.17
  10 -10   3    4.49    0.36
 -10  10  -3    6.17    0.49
  10 -10   4    0.11    0.14
 -10  10  -4    0.11    0.22
 -10  10  -5    0.12    0.24
  10 -10   6    1.03    0.26
 -10   9   7    3.92    0.41
  10  -9  -6    1.38    0.24
  10  -9  -5    2.89    0.30
  10  -9  -4    0.02    0.12
  10  -9  -3    2.27    0.25
 -10   9   3    2.22    0.27
  10  -9  -2    0.63    0.17
 -10   9   2    0.63    0.20
  10  -9  -1    0.27    0.16
 -10   9   1    0.10    0.17
  10  -9   0    0.18    0.13
 -10   9   0    0.18    0.19
  10  -9   1    0.08    0.13
 -10   9  -1    0.09    0.17
  10  -9   2    0.62    0.15
 -10   9  -2    0.76    0.26
  10  -9   3    0.20    0.12
 -10   9  -3    0.16    0.15
  10  -9   4    3.15    0.30
  10  -9   4    2.75    0.21
  10  -9   5    0.18    0.16
  10  -9   6    0.38    0.19
  10  -9   7    0.46    0.21
 -10   8   8    0.74    0.32
  10  -8  -7    0.08    0.15
 -10   8   7    0.22    0.22
  10  -8  -6    1.11    0.16
 -10   8   6    1.33    0.33
  10  -8  -5   -0.00    0.13
  10  -8  -5    0.20    0.10
  10  -8  -4    4.24    0.27
  10  -8  -4    4.11    0.30
 -10   8   4    4.19    0.30
  10  -8  -3    1.49    0.18
  10  -8  -3    1.24    0.20
 -10   8   3    1.16    0.25
  10  -8  -2    0.30    0.13
  10  -8  -2    0.24    0.16
 -10   8   2    0.47    0.17
  10  -8  -1    1.98    0.21
 -10   8   1    2.15    0.32
  10  -8   0    3.85    0.28
 -10   8   0    3.73    0.37
 -10   8   0    4.23    0.33
  10  -8   1    2.63    0.24
 -10   8  -1    2.42    0.24
 -10   8  -1    2.76    0.32
  10  -8   2    0.94    0.19
  10  -8   2    0.88    0.14
 -10   8  -2    0.60    0.22
  10  -8   3    2.40    0.29
  10  -8   3    2.31    0.21
 -10   8  -3    2.12    0.30
  10  -8   4    2.07    0.30
 -10   8  -4    1.75    0.27
  10  -8   5    0.07    0.20
 -10   8  -5    0.35    0.15
  10  -8   6    4.80    0.39
 -10   8  -6    5.08    0.41
  10  -8   7    0.87    0.24
 -10   8  -7    0.89    0.23
  10  -8   8    6.35    0.47
 -10   8  -8    6.11    0.43
  10  -7  -9    1.47    0.22
 -10   7   9    1.40    0.39
  10  -7  -8    0.39    0.15
 -10   7   8    0.15    0.25
  10  -7  -7    3.55    0.27
 -10   7   7    3.14    0.43
  10  -7  -6    0.76    0.19
 -10   7   6    0.40    0.34
  10  -7  -5    1.78    0.24
 -10   7   5    1.98    0.34
  10  -7  -4    0.20    0.14
 -10   7   4    0.22    0.21
  10  -7  -3    0.10    0.08
  10  -7  -3   -0.03    0.10
 -10   7   3   -0.02    0.11
  10  -7  -2    0.64    0.13
  10  -7  -2    0.75    0.14
 -10   7   2    0.65    0.22
  10  -7  -1    0.66    0.13
  10  -7  -1    0.95    0.18
 -10   7   1    0.84    0.20
  10  -7   0   -0.00    0.10
  10  -7   0    0.11    0.09
 -10   7   0    0.19    0.14
  10  -7   1    0.82    0.21
  10  -7   1    1.05    0.16
 -10   7  -1    1.23    0.26
  10  -7   2    4.72    0.34
  10  -7   2    4.43    0.26
 -10   7  -2    4.56    0.39
  10  -7   3    1.13    0.18
  10  -7   3    0.80    0.12
 -10   7  -3    1.10    0.25
  10  -7   4    0.29    0.16
 -10   7  -4    0.34    0.17
  10  -7   5    2.44    0.28
 -10   7  -5    2.29    0.29
  10  -7   6    5.96    0.41
 -10   7  -6    6.40    0.47
  10  -7   7    0.04    0.14
 -10   7  -7    0.01    0.16
  10  -7   8   -0.02    0.16
 -10   7  -8    0.26    0.18
  10  -6 -10    1.49    0.24
 -10   6  10    1.35    0.44
  10  -6  -9    1.23    0.21
 -10   6   9    1.58    0.43
  10  -6  -8    4.34    0.31
 -10   6   8    4.51    0.49
  10  -6  -7    0.07    0.12
 -10   6   7    0.26    0.20
  10  -6  -6    0.27    0.13
 -10   6   6   -0.09    0.25
  10  -6  -5    1.01    0.17
 -10   6   5    1.17    0.26
  10  -6  -4    1.84    0.20
 -10   6   4    1.70    0.33
  10  -6  -3    0.08    0.12
 -10   6   3    0.07    0.15
 -10   6   3    0.11    0.14
  10  -6  -2    4.82    0.29
 -10   6   2    4.96    0.31
 -10   6   2    4.78    0.39
  10  -6  -1   -0.05    0.09
  10  -6  -1    0.01    0.10
 -10   6   1    0.28    0.13
  10  -6   0    0.11    0.10
 -10   6   0   -0.25    0.14
 -10   6   0    0.01    0.09
  10  -6   1    2.94    0.22
 -10   6  -1    2.73    0.35
 -10   6  -1    2.79    0.25
  10  -6   2    0.58    0.17
 -10   6  -2    0.35    0.14
 -10   6  -2    0.21    0.23
  10  -6   3    0.07    0.11
 -10   6  -3   -0.02    0.13
  10  -6   4    1.08    0.20
 -10   6  -4    1.50    0.25
  10  -6   5    0.25    0.15
 -10   6  -5    0.21    0.22
  10  -6   6    2.68    0.32
 -10   6  -6    2.80    0.32
  10  -6   7    0.18    0.17
 -10   6  -7    0.19    0.18
  10  -6   8    0.41    0.18
 -10   6  -8   -0.07    0.17
  10  -6   9    7.06    0.50
 -10   6  -9    6.93    0.47
  10  -5 -10    1.56    0.30
 -10   5  10    1.81    0.41
  10  -5  -9    2.02    0.24
 -10   5   9    1.43    0.36
  10  -5  -8    1.14    0.25
 -10   5   8    1.44    0.30
  10  -5  -7    2.48    0.29
 -10   5   7    2.63    0.37
  10  -5  -6    1.25    0.19
 -10   5   6    1.41    0.28
  10  -5  -5    3.49    0.31
 -10   5   5    4.50    0.39
  10  -5  -4    0.03    0.12
 -10   5   4    0.04    0.18
  10  -5  -3    0.86    0.16
 -10   5   3    1.23    0.26
  10  -5  -2    2.87    0.22
  10  -5  -2    2.69    0.18
 -10   5   2    2.82    0.27
  10  -5  -1    6.64    0.27
  10  -5  -1    5.36    0.29
 -10   5   1    6.00    0.41
  10  -5   0    3.89    0.23
  10  -5   0    3.55    0.25
 -10   5   0    3.64    0.32
  10  -5   1    4.15    0.25
 -10   5  -1    4.09    0.32
 -10   5  -1    4.19    0.37
  10  -5   2    1.36    0.18
 -10   5  -2    0.94    0.26
  10  -5   3    0.23    0.14
 -10   5  -3    0.42    0.24
  10  -5   4    8.51    0.46
 -10   5  -4    8.03    0.53
  10  -5   5    1.63    0.22
 -10   5  -5    1.56    0.28
  10  -5   6    0.82    0.19
 -10   5  -6    0.34    0.23
  10  -5   7    0.44    0.22
 -10   5  -7    0.49    0.26
  10  -5   8    0.01    0.16
 -10   5  -8    0.21    0.21
  10  -5   9    1.93    0.31
 -10   5  -9    1.28    0.38
  10  -4 -11    0.57    0.22
 -10   4  11    0.67    0.36
  10  -4 -10    2.24    0.34
 -10   4  10    2.46    0.40
  10  -4  -9    0.07    0.13
 -10   4   9   -0.02    0.23
  10  -4  -8    3.43    0.34
 -10   4   8    3.24    0.37
  10  -4  -7    0.97    0.22
  10  -4  -6    0.97    0.18
 -10   4   6    1.00    0.24
  10  -4  -5    0.16    0.12
 -10   4   5    0.12    0.17
  10  -4  -4    2.57    0.22
 -10   4   4    2.24    0.34
  10  -4  -3    2.15    0.23
  10  -4  -3    1.81    0.16
 -10   4   3    1.53    0.23
  10  -4  -2    0.19    0.11
  10  -4  -2    0.05    0.10
 -10   4   2    0.27    0.16
  10  -4  -1    7.13    0.33
  10  -4  -1    8.16    0.38
 -10   4   1    7.18    0.37
  10  -4   0    0.54    0.15
  10  -4   0    0.67    0.15
 -10   4   0    0.35    0.16
  10  -4   1    2.06    0.22
 -10   4  -1    1.76    0.21
 -10   4  -1    2.87    0.31
  10  -4   2    1.14    0.17
 -10   4  -2    1.32    0.27
  10  -4   3    0.29    0.13
 -10   4  -3   -0.17    0.24
  10  -4   4    0.62    0.16
 -10   4  -4    0.72    0.23
  10  -4   5    0.12    0.13
 -10   4  -5   -0.03    0.16
  10  -4   6    0.18    0.13
 -10   4  -6   -0.06    0.17
  10  -4   7    7.33    0.44
 -10   4  -7    7.93    0.53
  10  -4   8    0.08    0.20
 -10   4  -8    0.15    0.19
  10  -4   9    0.11    0.22
 -10   4  -9   -0.26    0.19
  10  -3 -11    0.04    0.14
 -10   3  11   -0.07    0.24
  10  -3 -10   -0.09    0.15
 -10   3  10    0.01    0.19
  10  -3  -9    0.20    0.17
 -10   3   9    0.24    0.21
  10  -3  -8    0.95    0.20
 -10   3   8    1.20    0.27
  10  -3  -7    0.70    0.20
 -10   3   7    1.22    0.25
  10  -3  -6    1.93    0.22
 -10   3   6    2.48    0.34
  10  -3  -5    0.25    0.17
 -10   3   5    0.31    0.17
  10  -3  -4    3.69    0.30
 -10   3   4    3.56    0.30
  10  -3  -3    0.76    0.18
  10  -3  -3    0.32    0.11
 -10   3   3    0.32    0.16
  10  -3  -2    0.89    0.17
  10  -3  -2    0.93    0.14
 -10   3   2    0.99    0.21
  10  -3  -1    0.05    0.08
  10  -3  -1   -0.04    0.13
 -10   3   1    0.15    0.12
  10  -3   0    0.06    0.10
  10  -3   0    0.05    0.11
 -10   3   0   -0.01    0.10
  10  -3   1    6.36    0.29
 -10   3  -1    5.83    0.46
  10  -3   2    4.72    0.28
 -10   3  -2    6.28    0.53
  10  -3   3    2.66    0.28
 -10   3  -3    3.01    0.36
  10  -3   4    0.12    0.13
 -10   3  -4    0.19    0.18
  10  -3   5    0.34    0.18
 -10   3  -5    0.03    0.20
  10  -3   6    1.02    0.21
 -10   3  -6    1.17    0.26
  10  -3   7    1.42    0.26
 -10   3  -7    2.20    0.38
  10  -3   8    0.28    0.17
 -10   3  -8   -0.15    0.25
  10  -3   9    0.89    0.27
 -10   3  -9    1.41    0.37
  10  -2 -11    0.65    0.21
 -10   2  11    0.55    0.27
  10  -2 -10    0.28    0.18
 -10   2  10    0.33    0.23
  10  -2  -9    0.87    0.22
 -10   2   9    0.98    0.26
  10  -2  -8    2.35    0.27
 -10   2   8    2.84    0.39
  10  -2  -7    1.11    0.21
 -10   2   7    1.28    0.25
  10  -2  -6    1.38    0.21
 -10   2   6    1.29    0.30
  10  -2  -5    2.91    0.26
 -10   2   5    2.87    0.34
  10  -2  -4    0.06    0.11
 -10   2   4    0.04    0.11
  10  -2  -3    5.89    0.33
  10  -2  -3    4.87    0.24
 -10   2   3    6.22    0.37
  10  -2  -2    0.17    0.09
  10  -2  -2   -0.01    0.15
 -10   2   2    0.23    0.13
  10  -2  -1    4.75    0.30
  10  -2  -1    4.56    0.25
 -10   2   1    4.65    0.28
  10  -2   0    1.17    0.18
  10  -2   0    0.73    0.14
  10  -2   1    0.43    0.15
 -10   2  -1    0.37    0.22
  10  -2   2    1.71    0.20
 -10   2  -2    1.90    0.38
  10  -2   3   10.69    0.44
 -10   2  -3   10.75    0.64
  10  -2   4    4.99    0.32
 -10   2  -4    5.24    0.52
  10  -2   5    0.12    0.17
 -10   2  -5    0.16    0.20
  10  -2   6    1.56    0.28
 -10   2  -6    0.94    0.27
  10  -2   7    2.66    0.35
 -10   2  -7    2.47    0.35
  10  -2   8    0.11    0.16
 -10   2  -8    0.01    0.19
  10  -1 -11    0.90    0.26
 -10   1  11    1.12    0.29
  10  -1 -10    0.11    0.18
 -10   1  10    0.33    0.21
  10  -1  -9   -0.01    0.14
 -10   1   9    0.18    0.20
  10  -1  -8   -0.04    0.13
 -10   1   8    0.09    0.15
  10  -1  -7    0.57    0.18
 -10   1   7    0.42    0.19
  10  -1  -6    5.33    0.36
 -10   1   6    5.55    0.36
  10  -1  -5    0.18    0.16
 -10   1   5    0.04    0.16
  10  -1  -4    4.76    0.31
 -10   1   4    4.21    0.30
  10  -1  -3    0.49    0.12
  10  -1  -3    0.63    0.16
 -10   1   3    0.84    0.17
  10  -1  -2    4.09    0.29
  10  -1  -2    3.21    0.19
 -10   1   2    3.88    0.24
  10  -1  -1    1.71    0.20
  10  -1  -1    1.89    0.19
 -10   1   1    1.41    0.14
  10  -1   0    0.13    0.11
  10  -1   0   -0.07    0.09
  10  -1   1    0.21    0.13
 -10   1  -1    0.17    0.19
  10  -1   2    4.69    0.32
 -10   1  -2    4.74    0.46
  10  -1   3    2.69    0.29
 -10   1  -3    2.94    0.42
  10  -1   4    2.61    0.26
 -10   1  -4    3.19    0.38
  10  -1   5    1.14    0.22
 -10   1  -5    1.19    0.28
  10  -1   6    6.11    0.41
 -10   1  -6    5.78    0.49
  10  -1   7    0.39    0.29
 -10   1  -7    1.05    0.27
  10  -1   8    0.11    0.19
 -10   1  -8    0.26    0.22
  10   0 -11    0.29    0.26
 -10   0  11    0.64    0.30
  10   0 -10    1.97    0.35
 -10   0  10    1.48    0.30
  10   0  -9    0.12    0.17
 -10   0   9    0.06    0.17
  10   0  -8    0.96    0.28
 -10   0   8    1.21    0.25
  10   0  -7    1.18    0.23
 -10   0   7    1.57    0.24
  10   0  -6   -0.03    0.15
 -10   0   6    0.05    0.14
  10   0  -5   10.15    0.47
 -10   0   5    9.00    0.48
  10   0  -4    0.08    0.12
 -10   0   4    0.05    0.13
  10   0  -3    3.14    0.29
 -10   0   3    2.48    0.24
  10   0  -2    2.13    0.22
  10   0  -2    1.88    0.18
 -10   0   2    2.05    0.17
  10   0  -1    2.50    0.25
  10   0  -1    2.50    0.21
  10   0   0    0.18    0.12
 -10   0   0    0.08    0.14
  10   0   1    0.05    0.10
 -10   0  -1    0.22    0.19
  10   0   2    0.83    0.21
 -10   0  -2    1.04    0.30
  10   0   3    0.49    0.16
 -10   0  -3    0.98    0.26
  10   0   4    3.28    0.31
 -10   0  -4    3.12    0.46
  10   0   5    3.70    0.32
 -10   0  -5    2.58    0.41
  10   0   6    0.28    0.20
 -10   0  -6    0.49    0.24
  10   0   7    2.20    0.32
 -10   0  -7    1.67    0.34
  10   1 -10    1.31    0.27
 -10  -1  10    1.90    0.29
  10   1  -9    0.92    0.26
 -10  -1   9    1.46    0.26
  10   1  -8    0.39    0.18
 -10  -1   8    0.35    0.22
  10   1  -7    0.42    0.20
 -10  -1   7    0.77    0.19
  10   1  -6   17.52    0.71
 -10  -1   6   19.19    0.71
  10   1  -5    0.16    0.15
 -10  -1   5    0.28    0.16
  10   1  -4    0.85    0.23
 -10  -1   4    0.81    0.15
  10   1  -3    1.30    0.20
 -10  -1   3    1.20    0.17
  10   1  -2    2.37    0.24
  10   1  -2    2.02    0.20
 -10  -1   2    2.25    0.20
  10   1  -1    0.21    0.17
  10   1  -1    0.03    0.12
  10   1   0    0.80    0.15
 -10  -1   0    0.68    0.28
  10   1   1    0.07    0.10
 -10  -1  -1    0.02    0.19
  10   1   2    3.56    0.29
 -10  -1  -2    4.03    0.44
  10   1   3    1.28    0.28
 -10  -1  -3    1.89    0.39
  10   1   4   10.00    0.54
 -10  -1  -4    9.57    0.78
  10   1   5    5.14    0.41
 -10  -1  -5    4.85    0.52
  10   1   6    3.27    0.43
 -10  -1  -6    3.45    0.45
  10   2  -9    1.76    0.28
 -10  -2   9    1.85    0.28
  10   2  -8    1.03    0.30
 -10  -2   8    1.07    0.29
  10   2  -7    2.27    0.32
 -10  -2   7    1.31    0.23
  10   2  -6   -0.11    0.14
 -10  -2   6    0.07    0.12
  10   2  -5    0.35    0.18
 -10  -2   5    0.45    0.14
  10   2  -4    1.50    0.27
 -10  -2   4    1.49    0.22
  10   2  -3    1.02    0.19
 -10  -2   3    0.26    0.15
  10   2  -2    0.84    0.20
  10   2  -2    0.64    0.15
  10   2  -1    0.79    0.19
  10   2  -1    0.53    0.17
  10   2   0    0.16    0.14
 -10  -2   0   -0.09    0.26
  10   2   1    0.02    0.11
 -10  -2  -1    0.23    0.25
  10   2   2    0.78    0.19
 -10  -2  -2    1.06    0.31
  10   2   3   10.40    0.53
 -10  -2  -3   10.57    0.70
  10   2   4    0.05    0.15
 -10  -2  -4    0.05    0.21
  10   2   5    2.24    0.31
 -10  -2  -5    2.78    0.42
  10   3  -8   19.82    0.83
 -10  -3   8   18.43    0.83
  10   3  -7    0.13    0.16
 -10  -3   7    0.14    0.18
  10   3  -6    0.17    0.13
 -10  -3   6   -0.09    0.11
  10   3  -5    7.48    0.47
 -10  -3   5    7.85    0.40
  10   3  -4   -0.01    0.12
 -10  -3   4   -0.01    0.11
  10   3  -3    0.07    0.17
  10   3  -2   -0.02    0.15
  10   3  -2    0.00    0.10
  10   3  -1   -0.04    0.10
 -10  -3   1    0.01    0.23
  10   3   0    0.43    0.18
 -10  -3   0    0.61    0.33
  10   3   1    0.85    0.19
 -10  -3  -1    1.07    0.40
  10   3   2    0.31    0.20
 -10  -3  -2    0.12    0.31
  10   3   3    1.65    0.28
 -10  -3  -3    2.59    0.46
  10   4  -6   -0.08    0.14
 -10  -4   6    0.01    0.11
  10   4  -5    0.46    0.21
 -10  -4   5    0.82    0.19
  10   4  -4    2.02    0.32
  10   4  -3   -0.00    0.11
 -10  -4   2    0.11    0.17
  10   4  -1    0.16    0.17
 -10  -4   1    0.20    0.25
  10   4   0    0.14    0.15
 -10  -4   0    0.23    0.26
  10   4   1    1.51    0.24
 -10  -4  -1    1.23    0.37
  11 -10  -1    1.28    0.22
 -11  10   1    1.61    0.35
  11 -10   0    1.92    0.24
 -11  10   0    1.86    0.34
  11 -10   1    0.97    0.25
 -11  10  -1    1.62    0.39
  11 -10   2    4.71    0.37
 -11  10  -2    5.36    0.59
  11  -9  -4    0.10    0.14
  11  -9  -3    1.26    0.22
  11  -9  -2    0.13    0.16
 -11   9   2    0.07    0.19
  11  -9  -1   -0.13    0.13
 -11   9   1    0.07    0.21
  11  -9   0    0.71    0.17
 -11   9   0    0.82    0.25
  11  -9   1    0.94    0.17
 -11   9  -1    1.21    0.36
  11  -9   2    0.11    0.12
 -11   9  -2    0.20    0.25
  11  -9   3    0.24    0.18
  11  -9   4    0.21    0.16
 -11   8   6    1.93    0.39
  11  -8  -5    1.08    0.18
 -11   8   5    1.26    0.40
  11  -8  -4    1.58    0.19
 -11   8   4    1.27    0.34
  11  -8  -3    2.55    0.26
 -11   8   3    2.44    0.36
  11  -8  -2    1.40    0.18
  11  -8  -2    1.40    0.21
 -11   8   2    1.66    0.31
  11  -8  -1    0.90    0.17
 -11   8   1    1.11    0.30
 -11   8   1    1.34    0.29
  11  -8   0    0.81    0.16
 -11   8   0    1.07    0.29
 -11   8   0    0.53    0.28
  11  -8   1    0.54    0.15
  11  -8   1    0.30    0.15
 -11   8  -1    0.34    0.19
  11  -8   2    0.49    0.20
 -11   8  -2    0.26    0.24
  11  -8   3    4.89    0.36
 -11   8  -3    5.55    0.47
  11  -8   4    3.89    0.33
 -11   8  -4    3.82    0.43
  11  -8   5    1.40    0.24
 -11   8  -5    0.89    0.24
  11  -8   6    0.12    0.19
  11  -7  -7    0.38    0.22
 -11   7   7    0.64    0.29
  11  -7  -6   -0.07    0.11
 -11   7   6    0.11    0.19
  11  -7  -5    2.26    0.26
 -11   7   5    1.67    0.37
  11  -7  -4    1.01    0.20
 -11   7   4    0.61    0.27
  11  -7  -3    4.86    0.34
 -11   7   3    6.16    0.47
  11  -7  -2    0.46    0.17
 -11   7   2    0.26    0.21
 -11   7   2    0.33    0.21
  11  -7  -1    0.56    0.14
 -11   7   1    0.51    0.20
 -11   7   1    0.14    0.20
  11  -7   0    0.14    0.11
 -11   7   0   -0.16    0.19
 -11   7   0    0.09    0.16
  11  -7   1    3.57    0.31
 -11   7  -1    3.02    0.32
 -11   7  -1    3.64    0.44
  11  -7   2    0.99    0.18
 -11   7  -2    0.50    0.24
  11  -7   3    5.18    0.43
 -11   7  -3    6.55    0.51
  11  -7   4    3.12    0.36
 -11   7  -4    3.03    0.36
  11  -7   5   -0.05    0.14
 -11   7  -5    0.18    0.19
  11  -7   6    0.59    0.21
 -11   7  -6    0.22    0.26
  11  -6  -8    1.25    0.23
 -11   6   8    2.24    0.43
  11  -6  -7   -0.07    0.17
 -11   6   7   -0.17    0.21
  11  -6  -6    0.65    0.17
 -11   6   6    1.01    0.27
  11  -6  -5    0.29    0.18
 -11   6   5    0.42    0.28
  11  -6  -4    1.38    0.20
 -11   6   4    2.05    0.37
  11  -6  -3    0.95    0.17
 -11   6   3    1.17    0.31
  11  -6  -2    1.72    0.20
 -11   6   2    1.70    0.27
  11  -6  -1    2.59    0.20
  11  -6  -1    2.29    0.27
 -11   6   1    2.48    0.34
  11  -6   0    0.31    0.12
 -11   6   0    0.12    0.19
 -11   6   0    0.09    0.19
  11  -6   1    5.04    0.32
 -11   6  -1    5.17    0.45
  11  -6   2    0.14    0.15
 -11   6  -2   -0.07    0.18
  11  -6   3    1.11    0.22
 -11   6  -3    1.42    0.28
  11  -6   4    0.08    0.15
 -11   6  -4   -0.07    0.15
  11  -6   5    1.06    0.23
 -11   6  -5    1.22    0.35
  11  -6   6    1.32    0.27
 -11   6  -6    2.01    0.37
  11  -6   7   -0.22    0.18
 -11   6  -7    0.13    0.24
  11  -5  -9    2.50    0.29
 -11   5   9    2.02    0.38
  11  -5  -8    0.17    0.20
 -11   5   8    0.65    0.31
  11  -5  -7    0.79    0.21
 -11   5   7    0.66    0.28
  11  -5  -6    1.46    0.23
 -11   5   6    1.35    0.31
  11  -5  -5    1.31    0.19
 -11   5   5    0.70    0.32
  11  -5  -4    1.08    0.22
 -11   5   4    0.69    0.29
  11  -5  -3    0.94    0.18
 -11   5   3    1.21    0.23
  11  -5  -2    0.92    0.22
  11  -5  -2    1.11    0.17
 -11   5   2    1.60    0.24
  11  -5  -1    2.59    0.21
  11  -5  -1    3.06    0.25
 -11   5   1    2.68    0.29
  11  -5   0    0.31    0.12
 -11   5   0    0.13    0.21
 -11   5   0    0.20    0.17
  11  -5   1    0.08    0.12
 -11   5  -1    0.29    0.25
  11  -5   2    1.59    0.25
 -11   5  -2    1.86    0.34
  11  -5   3    4.55    0.37
 -11   5  -3    5.45    0.55
  11  -5   4    0.06    0.15
 -11   5  -4    0.37    0.21
  11  -5   5    1.98    0.26
 -11   5  -5    1.72    0.32
  11  -5   6    6.47    0.45
 -11   5  -6    7.21    0.54
  11  -5   7    1.23    0.33
 -11   5  -7    1.50    0.30
  11  -4  -9    0.09    0.18
 -11   4   9    0.32    0.24
  11  -4  -8    0.88    0.26
 -11   4   8    1.02    0.30
  11  -4  -7    0.46    0.18
 -11   4   7    0.30    0.23
  11  -4  -6    0.22    0.15
 -11   4   6    0.10    0.19
  11  -4  -5    0.27    0.20
 -11   4   5    0.49    0.24
  11  -4  -4    0.20    0.14
 -11   4   4    0.03    0.20
  11  -4  -3   -0.00    0.12
 -11   4   3    0.14    0.16
  11  -4  -2    1.94    0.22
  11  -4  -2    1.66    0.19
 -11   4   2    2.14    0.29
  11  -4  -1    0.41    0.15
  11  -4  -1    0.52    0.15
 -11   4   1    0.34    0.18
  11  -4   0   -0.08    0.10
 -11   4   0   -0.05    0.18
  11  -4   1    3.42    0.26
 -11   4  -1    3.57    0.41
  11  -4   2    0.84    0.18
 -11   4  -2    1.41    0.29
  11  -4   3    0.17    0.12
 -11   4  -3   -0.17    0.24
  11  -4   4    0.85    0.20
 -11   4  -4    1.01    0.28
  11  -4   5    0.99    0.22
 -11   4  -5    1.31    0.30
  11  -4   6    1.01    0.23
 -11   4  -6    1.25    0.30
  11  -4   7    2.99    0.34
 -11   4  -7    3.28    0.43
  11  -3  -9    0.74    0.22
 -11   3   9    0.39    0.33
  11  -3  -8    5.54    0.39
 -11   3   8    5.27    0.48
  11  -3  -7    0.35    0.20
 -11   3   7    0.06    0.20
  11  -3  -6    0.96    0.25
 -11   3   6    1.01    0.30
  11  -3  -5    0.33    0.17
 -11   3   5    0.66    0.23
  11  -3  -4    0.26    0.19
 -11   3   4    0.28    0.20
  11  -3  -3    0.19    0.15
 -11   3   3    0.24    0.15
  11  -3  -2    6.53    0.30
  11  -3  -2    6.73    0.38
 -11   3   2    6.77    0.37
  11  -3  -1    0.09    0.09
  11  -3  -1   -0.00    0.12
 -11   3   1    0.05    0.12
  11  -3   0    0.92    0.15
 -11   3   0    1.21    0.29
  11  -3   1    0.76    0.19
 -11   3  -1    0.32    0.27
  11  -3   2    0.33    0.17
 -11   3  -2    0.31    0.24
  11  -3   3    3.33    0.28
 -11   3  -3    3.71    0.43
  11  -3   4    0.05    0.14
 -11   3  -4    0.06    0.24
  11  -3   5    0.23    0.16
 -11   3  -5    0.09    0.28
  11  -3   6    0.11    0.16
 -11   3  -6    0.12    0.25
  11  -2  -9    0.95    0.23
 -11   2   9    0.26    0.26
  11  -2  -8    0.11    0.18
 -11   2   8   -0.05    0.17
  11  -2  -7    2.98    0.32
 -11   2   7    3.07    0.41
  11  -2  -6    0.88    0.22
 -11   2   6    0.99    0.29
  11  -2  -5    1.93    0.26
 -11   2   5    2.21    0.28
  11  -2  -4   -0.01    0.13
 -11   2   4   -0.14    0.16
  11  -2  -3    0.49    0.18
 -11   2   3    0.55    0.19
  11  -2  -2    4.77    0.28
  11  -2  -2    5.71    0.35
 -11   2   2    5.24    0.29
  11  -2  -1    7.02    0.36
  11  -2  -1    8.64    0.45
  11  -2   0    3.20    0.26
 -11   2   0    2.56    0.42
  11  -2   1    1.30    0.22
 -11   2  -1    1.03    0.31
  11  -2   2    0.68    0.17
 -11   2  -2    0.69    0.29
  11  -2   3    1.01    0.20
 -11   2  -3    0.74    0.28
  11  -2   4    6.55    0.41
 -11   2  -4    6.64    0.64
  11  -2   5    0.35    0.22
 -11   2  -5    0.20    0.32
  11  -2   6    0.50    0.28
 -11   2  -6    1.02    0.35
  11  -1  -9    0.05    0.17
 -11   1   9    0.33    0.24
  11  -1  -8    0.34    0.18
 -11   1   8    0.18    0.21
  11  -1  -7    0.18    0.23
 -11   1   7    0.39    0.19
  11  -1  -6    0.73    0.25
 -11   1   6    0.72    0.25
  11  -1  -5    0.40    0.17
 -11   1   5    0.49    0.20
  11  -1  -4    0.72    0.18
 -11   1   4    0.69    0.20
  11  -1  -3    1.05    0.20
 -11   1   3    0.49    0.15
  11  -1  -2    1.63    0.29
  11  -1  -1   -0.07    0.15
  11  -1  -1   -0.01    0.10
  11  -1   0    0.83    0.16
 -11   1   0    1.14    0.35
  11  -1   1    0.15    0.16
 -11   1  -1    0.32    0.26
  11  -1   2    1.52    0.22
 -11   1  -2    2.22    0.36
  11  -1   3    0.89    0.18
 -11   1  -3    0.29    0.31
  11  -1   4    3.95    0.32
 -11   1  -4    3.64    0.45
  11  -1   5    0.53    0.25
 -11   1  -5    0.50    0.29
  11   0  -8    0.00    0.19
 -11   0   8    0.50    0.19
  11   0  -7    0.17    0.17
 -11   0   7    0.05    0.15
  11   0  -6    0.83    0.22
 -11   0   6    0.75    0.20
  11   0  -5    5.20    0.36
 -11   0   5    4.59    0.33
  11   0  -4    2.23    0.32
 -11   0   4    1.78    0.25
  11   0  -3    1.68    0.24
 -11   0   3    1.73    0.22
  11   0  -2    0.17    0.15
  11   0  -1    2.22    0.27
  11   0  -1    1.61    0.21
  11   0   0    1.53    0.22
 -11   0   0    1.74    0.37
  11   0   1    1.03    0.22
 -11   0  -1    1.09    0.31
  11   0   2    1.96    0.29
 -11   0  -2    1.86    0.39
  11   0   3    8.34    0.46
 -11   0  -3    8.66    0.70
  11   0   4    1.65    0.30
 -11   0  -4    1.13    0.41
  11   1  -8   -0.11    0.17
 -11  -1   8   -0.06    0.19
  11   1  -7    1.12    0.24
 -11  -1   7    0.83    0.21
  11   1  -6    0.44    0.23
 -11  -1   6    0.29    0.16
  11   1  -5    0.21    0.14
 -11  -1   5   -0.29    0.14
  11   1  -4    9.89    0.50
 -11  -1   4    7.73    0.44
  11   1  -3    0.11    0.16
  11   1  -2    0.26    0.18
  11   1  -1    0.08    0.13
 -11  -1   1    0.02    0.15
  11   1   0    0.39    0.14
 -11  -1   0    0.28    0.28
  11   1   1    0.11    0.14
 -11  -1  -1    0.24    0.24
  11   1   2    1.78    0.31
 -11  -1  -2    1.96    0.40
  11   1   3    6.57    0.46
 -11  -1  -3    6.93    0.62
  11   2  -6    0.74    0.28
 -11  -2   6    1.03    0.24
  11   2  -5    4.44    0.36
 -11  -2   5    3.53    0.34
  11   2  -4    0.28    0.18
  11   2  -3    0.16    0.20
  11   2  -2    0.07    0.15
 -11  -2   1    0.16    0.26
  11   2   0    0.48    0.20
 -11  -2   0    0.77    0.33
  11   2   1   -0.05    0.13
 -11  -2  -1    0.03    0.27
 -12   8   2    0.12    0.20
 -12   8   1    0.42    0.28
 -12   8   0    0.63    0.26
  12  -8   1    3.82    0.32
  12  -7  -4    0.14    0.14
 -12   7   4    0.32    0.23
  12  -7  -3    0.40    0.19
 -12   7   3    0.32    0.24
  12  -7  -2    1.00    0.24
 -12   7   2    0.98    0.34
 -12   7   1    0.57    0.31
  12  -7   0    0.69    0.21
 -12   7   0    0.52    0.26
  12  -7   1    0.27    0.19
 -12   7  -1    0.49    0.24
  12  -7   2    0.59    0.19
 -12   7  -2    0.40    0.26
  12  -7   3   -0.01    0.15
 -12   7  -3   -0.30    0.24
  12  -6  -5   -0.08    0.14
 -12   6   5   -0.11    0.21
  12  -6  -4    2.26    0.26
 -12   6   4    2.45    0.42
  12  -6  -3    0.25    0.19
 -12   6   3    0.26    0.20
  12  -6  -2    0.99    0.19
 -12   6   2    0.71    0.26
  12  -6  -1    0.65    0.16
 -12   6   1    0.87    0.20
  12  -6   0    2.29    0.25
 -12   6   0    0.71    0.41
  12  -6   1    1.59    0.22
 -12   6  -1    1.76    0.41
  12  -6   2    2.87    0.29
 -12   6  -2    2.41    0.49
  12  -6   3    0.26    0.21
 -12   6  -3    0.56    0.30
  12  -6   4    1.25    0.24
 -12   6  -4    1.74    0.40
  12  -5  -6    1.42    0.32
 -12   5   6    2.30    0.40
  12  -5  -5    0.78    0.22
 -12   5   5    0.93    0.27
  12  -5  -4    1.52    0.23
 -12   5   4    1.09    0.34
  12  -5  -3    6.16    0.37
 -12   5   3    5.66    0.53
  12  -5  -2    3.35    0.34
 -12   5   2    2.64    0.37
  12  -5  -1    0.84    0.20
  12  -5   0    2.37    0.27
 -12   5   0    2.13    0.48
  12  -5   1    2.43    0.24
 -12   5  -1    3.46    0.50
  12  -5   2    0.76    0.22
 -12   5  -2    0.60    0.36
  12  -5   3    5.74    0.44
 -12   5  -3    5.61    0.63
  12  -5   4   -0.01    0.15
 -12   5  -4    0.33    0.25
  12  -4  -6    2.70    0.38
 -12   4   6    2.94    0.45
  12  -4  -5    0.01    0.14
 -12   4   5    0.19    0.21
  12  -4  -4    0.39    0.17
 -12   4   4    0.17    0.22
  12  -4  -3    0.18    0.21
 -12   4   3    0.37    0.22
  12  -4  -2    3.27    0.31
  12  -4  -1    1.09    0.22
  12  -4   0   -0.08    0.09
 -12   4   0    0.28    0.17
  12  -4   1    1.75    0.26
 -12   4  -1    1.70    0.37
  12  -4   2   -0.09    0.15
 -12   4  -2    0.07    0.20
  12  -4   3    0.20    0.21
 -12   4  -3    1.09    0.29
  12  -4   4    1.16    0.29
 -12   4  -4    1.79    0.37
  12  -3  -6   -0.07    0.13
 -12   3   6    0.11    0.15
  12  -3  -5    0.13    0.15
 -12   3   5    0.00    0.17
  12  -3  -4   -0.13    0.14
 -12   3   4    0.10    0.16
  12  -3  -3    2.69    0.30
  12  -3  -2   -0.00    0.12
  12  -3  -1    2.36    0.28
  12  -3   0    0.58    0.20
 -12   3   0    1.32    0.31
  12  -3   1    0.86    0.18
 -12   3  -1    1.06    0.33
  12  -3   2    0.26    0.14
 -12   3  -2   -0.31    0.25
  12  -3   3    3.57    0.33
 -12   3  -3    3.69    0.49
  12  -2  -6    1.35    0.28
 -12   2   6    0.37    0.29
  12  -2  -5    0.39    0.24
 -12   2   5    0.53    0.19
  12  -2  -4    0.18    0.16
 -12   2   4    0.13    0.16
  12  -2  -3    0.68    0.20
  12  -2  -2    1.03    0.24
  12  -2   0    0.50    0.15
 -12   2   0    0.80    0.30
  12  -2   1    1.22    0.19
 -12   2  -1    0.93    0.37
  12  -2   2   -0.05    0.18
 -12   2  -2    0.43    0.23
  12  -2   3   -0.16    0.13
 -12   2  -3    0.45    0.21
  12  -1  -5    0.27    0.19
 -12   1   5    0.37    0.20
  12  -1  -4    0.15    0.17
  12  -1  -3    0.73    0.21
  12  -1  -2    1.46    0.26
 -12   1   1    0.02    0.21
 -12   1   0    0.07    0.24
  12  -1   1    2.81    0.28
 -12   1  -1    2.69    0.47
  12  -1   2   -0.13    0.15
 -12   1  -2   -0.10    0.32
  12   0  -4    0.22    0.19
  12   0  -3    2.47    0.37
  12   0  -2    4.47    0.39
 -12   0   1    0.66    0.40
   0   0   0    0.00    0.00
;
_shelx_hkl_checksum              37134
loop_
_space_group_symop_operation_xyz
'x, y, z'
'-x, -y, -z'
loop_
_atom_site_label
_atom_site_type_symbol
_atom_site_fract_x
_atom_site_fract_y
_atom_site_fract_z
_atom_site_U_iso_or_equiv
_atom_site_adp_type
_atom_site_occupancy
_atom_site_site_symmetry_order
_atom_site_calc_flag
_atom_site_refinement_flags_posn
_atom_site_refinement_flags_adp
S1 S 0.93446(8) 0.65287(9) 0.09633(6) 0.0491(2) Uani 1 1 d . .
C29 C 0.9362(3) 0.5207(3) 0.0028(2) 0.0335(6) Uani 1 1 d . .
C28 C 0.8053(3) 0.4682(3) -0.0601(2) 0.0397(6) Uani 1 1 d . .
H28 H 0.7845 0.3954 -0.1176 0.048 Uiso 1 1 calc R U
C26 C 0.7595(3) 0.6361(3) 0.0520(2) 0.0476(7) Uani 1 1 d . .
H26 H 0.7074 0.6916 0.0816 0.057 Uiso 1 1 calc R U
C27 C 0.7051(3) 0.5329(3) -0.0311(2) 0.0433(7) Uani 1 1 d . .
H27 H 0.6092 0.5072 -0.0660 0.052 Uiso 1 1 calc R U
O7 O 0.41248(14) 0.84127(14) 0.07091(9) 0.0149(3) Uani 1 1 d . .
O5 O 0.35416(15) 0.83577(14) -0.39102(10) 0.0175(3) Uani 1 1 d . .
O6 O 0.56244(16) 0.71507(15) -0.38149(10) 0.0191(3) Uani 1 1 d . .
O4 O 0.15529(19) 0.93991(19) -0.08760(11) 0.0315(4) Uani 1 1 d . .
O1 O 0.48913(16) 0.83258(15) 0.43301(10) 0.0174(3) Uani 1 1 d . .
O2 O 0.13144(16) 1.00488(16) 0.30913(11) 0.0223(3) Uani 1 1 d . .
O3 O 0.09372(16) 1.00750(16) 0.10788(11) 0.0242(3) Uani 1 1 d . .
C6 C 0.2675(2) 0.9241(2) 0.18516(14) 0.0149(4) Uani 1 1 d . .
N2 N 1.30350(19) 0.27371(18) -0.39338(13) 0.0217(4) Uani 1 1 d . .
C9 C 0.3387(2) 0.8630(2) -0.01546(14) 0.0153(4) Uani 1 1 d . .
C7 C 0.1914(2) 0.9537(2) 0.09839(15) 0.0182(4) Uani 1 1 d . .
C2 C 0.4540(2) 0.83446(19) 0.24895(14) 0.0148(4) Uani 1 1 d . .
H2 H 0.5274 0.7952 0.2357 0.018 Uiso 1 1 calc R U
C12 C 0.4050(2) 0.81145(19) -0.29738(14) 0.0137(4) Uani 1 1 d . .
N1 N 0.76683(19) 0.59628(18) -0.34836(13) 0.0219(4) Uani 1 1 d . .
C18 C 0.9760(2) 0.4639(2) -0.35992(15) 0.0180(4) Uani 1 1 d . .
C4 C 0.3117(2) 0.91837(19) 0.37024(14) 0.0149(4) Uani 1 1 d . .
H4 H 0.2906 0.9356 0.4398 0.018 Uiso 1 1 calc R U
C1 C 0.3774(2) 0.86724(19) 0.16890(14) 0.0136(4) Uani 1 1 d . .
C25 C 1.2275(2) 0.4568(2) -0.31587(17) 0.0225(4) Uani 1 1 d . .
H25 H 1.2519 0.5415 -0.2697 0.027 Uiso 1 1 calc R U
C11 C 0.3467(2) 0.84729(19) -0.20941(14) 0.0144(4) Uani 1 1 d . .
H11 H 0.2734 0.8885 -0.2151 0.017 Uiso 1 1 calc R U
C14 C 0.5606(2) 0.7262(2) -0.19454(15) 0.0176(4) Uani 1 1 d . .
H14 H 0.6335 0.6845 -0.1892 0.021 Uiso 1 1 calc R U
C10 C 0.3947(2) 0.82332(19) -0.11110(14) 0.0146(4) Uani 1 1 d . .
C17 C 0.8466(2) 0.4167(2) -0.42742(16) 0.0202(4) Uani 1 1 d . .
H17 H 0.8273 0.3380 -0.4795 0.024 Uiso 1 1 calc R U
C5 C 0.2362(2) 0.9496(2) 0.28945(14) 0.0155(4) Uani 1 1 d . .
C3 C 0.4201(2) 0.86092(19) 0.34974(14) 0.0140(4) Uani 1 1 d . .
C21 C 1.0881(2) 0.3962(2) -0.36952(15) 0.0176(4) Uani 1 1 d . .
C15 C 0.5030(2) 0.7625(2) -0.10600(14) 0.0176(4) Uani 1 1 d . .
H15 H 0.5375 0.7459 -0.0405 0.021 Uiso 1 1 calc R U
C13 C 0.5132(2) 0.74986(19) -0.29125(14) 0.0146(4) Uani 1 1 d . .
C8 C 0.2301(2) 0.9172(2) -0.00386(14) 0.0191(4) Uani 1 1 d . .
C16 C 0.7457(2) 0.4839(2) -0.41896(16) 0.0211(4) Uani 1 1 d . .
H16 H 0.6576 0.4487 -0.4654 0.025 Uiso 1 1 calc R U
C22 C 1.0605(2) 0.2716(2) -0.43494(17) 0.0251(5) Uani 1 1 d . .
H22 H 0.9668 0.2255 -0.4727 0.030 Uiso 1 1 calc R U
C19 C 0.9960(2) 0.5787(2) -0.28413(17) 0.0250(5) Uani 1 1 d . .
H19 H 1.0812 0.6140 -0.2348 0.030 Uiso 1 1 calc R U
C24 C 1.3302(2) 0.3927(2) -0.33045(17) 0.0238(5) Uani 1 1 d . .
H24 H 1.4248 0.4360 -0.2935 0.029 Uiso 1 1 calc R U
C20 C 0.8899(2) 0.6405(2) -0.28179(18) 0.0272(5) Uani 1 1 d . .
H20 H 0.9054 0.7187 -0.2300 0.033 Uiso 1 1 calc R U
C23 C 1.1702(2) 0.2152(2) -0.44478(18) 0.0270(5) Uani 1 1 d . .
H23 H 1.1493 0.1306 -0.4904 0.032 Uiso 1 1 calc R U
H5O H 0.409(3) 0.830(3) -0.434(2) 0.034(7) Uiso 1 1 d . .
H4O H 0.089(3) 0.961(3) -0.069(2) 0.048(9) Uiso 1 1 d . .
H6O H 0.626(3) 0.689(3) -0.370(2) 0.048(9) Uiso 1 1 d . .
H2O H 0.106(3) 1.020(3) 0.252(2) 0.048(9) Uiso 1 1 d . .
H1O H 0.554(3) 0.804(3) 0.421(2) 0.046(9) Uiso 1 1 d . .
loop_
_atom_site_aniso_label
_atom_site_aniso_U_11
_atom_site_aniso_U_22
_atom_site_aniso_U_33
_atom_site_aniso_U_23
_atom_site_aniso_U_13
_atom_site_aniso_U_12
S1 0.0404(4) 0.0678(5) 0.0392(4) 0.0050(3) -0.0016(3) 0.0216(4)
C29 0.0287(12) 0.0344(13) 0.0384(13) 0.0211(11) 0.0048(11) 0.0052(10)
C28 0.0312(13) 0.0328(14) 0.0503(16) 0.0132(12) -0.0063(12) 0.0042(11)
C26 0.0439(16) 0.063(2) 0.0460(16) 0.0232(14) 0.0073(13) 0.0264(15)
C27 0.0313(14) 0.0469(16) 0.0553(17) 0.0277(14) 0.0000(13) 0.0111(12)
O7 0.0178(7) 0.0252(7) 0.0063(6) 0.0020(5) 0.0017(5) 0.0140(6)
O5 0.0205(7) 0.0299(8) 0.0077(6) 0.0050(5) 0.0038(6) 0.0148(6)
O6 0.0222(8) 0.0325(8) 0.0113(6) 0.0041(6) 0.0058(6) 0.0201(7)
O4 0.0338(9) 0.0690(12) 0.0100(7) 0.0082(7) 0.0044(6) 0.0420(9)
O1 0.0206(7) 0.0302(8) 0.0093(6) 0.0055(5) 0.0034(5) 0.0182(6)
O2 0.0253(8) 0.0408(9) 0.0111(7) 0.0038(6) 0.0038(6) 0.0254(7)
O3 0.0244(8) 0.0452(9) 0.0144(7) 0.0051(6) 0.0034(6) 0.0275(7)
C6 0.0149(9) 0.0227(10) 0.0102(8) 0.0025(7) 0.0017(7) 0.0108(8)
N2 0.0248(9) 0.0300(10) 0.0178(8) 0.0064(7) 0.0057(7) 0.0179(8)
C9 0.0165(9) 0.0228(10) 0.0097(8) 0.0043(7) -0.0001(7) 0.0107(8)
C7 0.0187(10) 0.0260(11) 0.0139(9) 0.0028(8) 0.0018(8) 0.0132(8)
C2 0.0148(9) 0.0213(10) 0.0122(9) 0.0029(7) 0.0027(7) 0.0110(8)
C12 0.0144(9) 0.0187(9) 0.0088(8) 0.0022(7) 0.0004(7) 0.0070(7)
N1 0.0216(9) 0.0279(10) 0.0227(9) 0.0038(7) 0.0064(7) 0.0165(8)
C18 0.0165(10) 0.0196(10) 0.0213(10) 0.0042(8) 0.0055(8) 0.0097(8)
C4 0.0166(9) 0.0228(10) 0.0088(8) 0.0023(7) 0.0047(7) 0.0108(8)
C1 0.0155(9) 0.0197(10) 0.0085(8) 0.0027(7) 0.0036(7) 0.0092(7)
C25 0.0218(11) 0.0221(11) 0.0262(11) 0.0022(8) 0.0014(9) 0.0122(8)
C11 0.0143(9) 0.0193(9) 0.0123(9) 0.0030(7) 0.0018(7) 0.0093(7)
C14 0.0191(10) 0.0241(10) 0.0150(9) 0.0034(8) 0.0026(8) 0.0145(8)
C10 0.0153(9) 0.0204(10) 0.0109(8) 0.0014(7) 0.0024(7) 0.0104(7)
C17 0.0205(10) 0.0222(10) 0.0206(10) 0.0014(8) 0.0028(8) 0.0117(8)
C5 0.0158(9) 0.0225(10) 0.0115(9) 0.0016(7) 0.0030(7) 0.0113(8)
C3 0.0168(9) 0.0169(9) 0.0108(8) 0.0036(7) 0.0010(7) 0.0086(7)
C21 0.0182(10) 0.0204(10) 0.0182(9) 0.0045(8) 0.0063(8) 0.0106(8)
C15 0.0193(10) 0.0272(11) 0.0117(9) 0.0046(7) 0.0017(7) 0.0149(8)
C13 0.0167(9) 0.0203(10) 0.0093(8) 0.0015(7) 0.0038(7) 0.0095(7)
C8 0.0209(10) 0.0322(11) 0.0097(9) 0.0038(8) 0.0007(8) 0.0168(9)
C16 0.0192(10) 0.0273(11) 0.0202(10) 0.0049(8) 0.0021(8) 0.0121(8)
C22 0.0176(10) 0.0291(12) 0.0282(11) -0.0033(9) 0.0001(9) 0.0115(9)
C19 0.0200(10) 0.0273(12) 0.0278(11) -0.0026(9) -0.0018(9) 0.0120(9)
C24 0.0185(10) 0.0285(11) 0.0260(11) 0.0038(9) -0.0010(9) 0.0115(9)
C20 0.0258(11) 0.0297(12) 0.0280(11) -0.0043(9) 0.0015(9) 0.0162(9)
C23 0.0270(12) 0.0278(12) 0.0292(11) -0.0030(9) 0.0041(9) 0.0165(9)
loop_
_atom_type_symbol
_atom_type_description
_atom_type_scat_dispersion_real
_atom_type_scat_dispersion_imag
_atom_type_scat_source
C C 0.0033 0.0016 'International Tables Vol C Tables 4.2.6.8 and 6.1.1.4'
H H 0.0000 0.0000 'International Tables Vol C Tables 4.2.6.8 and 6.1.1.4'
N N 0.0061 0.0033 'International Tables Vol C Tables 4.2.6.8 and 6.1.1.4'
O O 0.0106 0.0060 'International Tables Vol C Tables 4.2.6.8 and 6.1.1.4'
S S 0.1246 0.1234 'International Tables Vol C Tables 4.2.6.8 and 6.1.1.4'
loop_
_geom_angle_atom_site_label_1
_geom_angle_atom_site_label_2
_geom_angle_atom_site_label_3
_geom_angle
_geom_angle_site_symmetry_1
_geom_angle_site_symmetry_3
C26 S1 C29 92.61(14) . .
C28 C29 C29 128.8(3) . 2_765
C28 C29 S1 110.0(2) . .
C29 C29 S1 121.2(3) 2_765 .
C29 C28 C27 113.3(3) . .
C29 C28 H28 123.4 . .
C27 C28 H28 123.4 . .
C27 C26 S1 111.0(2) . .
C27 C26 H26 124.5 . .
S1 C26 H26 124.5 . .
C26 C27 C28 113.1(3) . .
C26 C27 H27 123.5 . .
C28 C27 H27 123.5 . .
C1 O7 C9 122.05(14) . .
C12 O5 H5O 110.2(19) . .
C13 O6 H6O 110(2) . .
C8 O4 H4O 109(2) . .
C3 O1 H1O 115(2) . .
C5 O2 H2O 103(2) . .
C1 C6 C5 117.72(16) . .
C1 C6 C7 119.79(16) . .
C5 C6 C7 122.50(16) . .
C24 N2 C23 117.16(17) . .
C8 C9 O7 119.85(16) . .
C8 C9 C10 128.96(17) . .
O7 C9 C10 111.19(15) . .
O3 C7 C6 122.98(17) . .
O3 C7 C8 120.37(17) . .
C6 C7 C8 116.65(16) . .
C1 C2 C3 117.66(16) . .
C1 C2 H2 121.2 . .
C3 C2 H2 121.2 . .
O5 C12 C11 118.43(16) . .
O5 C12 C13 120.70(16) . .
C11 C12 C13 120.86(16) . .
C20 N1 C16 117.00(17) . .
C17 C18 C19 116.75(18) . .
C17 C18 C21 121.29(17) . .
C19 C18 C21 121.96(18) . .
C5 C4 C3 119.73(16) . .
C5 C4 H4 120.1 . .
C3 C4 H4 120.1 . .
O7 C1 C2 116.87(16) . .
O7 C1 C6 120.29(16) . .
C2 C1 C6 122.84(16) . .
C24 C25 C21 119.45(19) . .
C24 C25 H25 120.3 . .
C21 C25 H25 120.3 . .
C12 C11 C10 120.59(17) . .
C12 C11 H11 119.7 . .
C10 C11 H11 119.7 . .
C15 C14 C13 120.76(17) . .
C15 C14 H14 119.6 . .
C13 C14 H14 119.6 . .
C15 C10 C11 117.96(16) . .
C15 C10 C9 119.63(16) . .
C11 C10 C9 122.39(16) . .
C16 C17 C18 120.24(18) . .
C16 C17 H17 119.9 . .
C18 C17 H17 119.9 . .
O2 C5 C4 119.78(16) . .
O2 C5 C6 119.89(16) . .
C4 C5 C6 120.33(16) . .
O1 C3 C2 121.99(16) . .
O1 C3 C4 116.28(16) . .
C2 C3 C4 121.73(16) . .
C22 C21 C25 116.81(18) . .
C22 C21 C18 121.78(18) . .
C25 C21 C18 121.38(18) . .
C14 C15 C10 121.18(17) . .
C14 C15 H15 119.4 . .
C10 C15 H15 119.4 . .
O6 C13 C14 124.15(17) . .
O6 C13 C12 117.21(16) . .
C14 C13 C12 118.64(16) . .
O4 C8 C9 121.24(17) . .
O4 C8 C7 117.50(17) . .
C9 C8 C7 121.27(17) . .
N1 C16 C17 122.97(19) . .
N1 C16 H16 118.5 . .
C17 C16 H16 118.5 . .
C23 C22 C21 119.7(2) . .
C23 C22 H22 120.1 . .
C21 C22 H22 120.1 . .
C20 C19 C18 119.2(2) . .
C20 C19 H19 120.4 . .
C18 C19 H19 120.4 . .
N2 C24 C25 123.58(19) . .
N2 C24 H24 118.2 . .
C25 C24 H24 118.2 . .
N1 C20 C19 123.8(2) . .
N1 C20 H20 118.1 . .
C19 C20 H20 118.1 . .
N2 C23 C22 123.3(2) . .
N2 C23 H23 118.4 . .
C22 C23 H23 118.4 . .
loop_
_geom_bond_atom_site_label_1
_geom_bond_atom_site_label_2
_geom_bond_distance
_geom_bond_site_symmetry_2
S1 C26 1.712(3) .
S1 C29 1.718(3) .
C29 C28 1.373(3) .
C29 C29 1.450(5) 2_765
C28 C27 1.405(4) .
C28 H28 0.9500 .
C26 C27 1.359(4) .
C26 H26 0.9500 .
C27 H27 0.9500 .
O7 C1 1.360(2) .
O7 C9 1.371(2) .
O5 C12 1.365(2) .
O5 H5O 0.82(3) .
O6 C13 1.352(2) .
O6 H6O 0.77(3) .
O4 C8 1.354(2) .
O4 H4O 0.80(3) .
O1 C3 1.347(2) .
O1 H1O 0.80(3) .
O2 C5 1.352(2) .
O2 H2O 0.81(3) .
O3 C7 1.260(2) .
C6 C1 1.402(2) .
C6 C5 1.423(2) .
C6 C7 1.426(3) .
N2 C24 1.332(3) .
N2 C23 1.333(3) .
C9 C8 1.363(3) .
C9 C10 1.460(2) .
C7 C8 1.446(3) .
C2 C1 1.379(2) .
C2 C3 1.390(2) .
C2 H2 0.9500 .
C12 C11 1.378(3) .
C12 C13 1.406(3) .
N1 C20 1.338(3) .
N1 C16 1.338(3) .
C18 C17 1.391(3) .
C18 C19 1.397(3) .
C18 C21 1.488(3) .
C4 C5 1.371(3) .
C4 C3 1.402(2) .
C4 H4 0.9500 .
C25 C24 1.386(3) .
C25 C21 1.393(3) .
C25 H25 0.9500 .
C11 C10 1.409(2) .
C11 H11 0.9500 .
C14 C15 1.381(3) .
C14 C13 1.387(3) .
C14 H14 0.9500 .
C10 C15 1.401(3) .
C17 C16 1.385(3) .
C17 H17 0.9500 .
C21 C22 1.392(3) .
C15 H15 0.9500 .
C16 H16 0.9500 .
C22 C23 1.386(3) .
C22 H22 0.9500 .
C19 C20 1.387(3) .
C19 H19 0.9500 .
C24 H24 0.9500 .
C20 H20 0.9500 .
C23 H23 0.9500 .
