#------------------------------------------------------------------------------
#$Date: 2016-03-31 05:06:23 +0300 (Thu, 31 Mar 2016) $
#$Revision: 180634 $
#$URL: svn://www.crystallography.net/cod/cif/1/54/29/1542982.cif $
#------------------------------------------------------------------------------
#
# This file is available in the Crystallography Open Database (COD),
# http://www.crystallography.net/
#
# All data on this site have been placed in the public domain by the
# contributors.
#
data_1542982
loop_
_publ_author_name
'Hanif, Muhammad'
'Hartinger, Christian G.'
'Shaheen, Muhammad Ashraf'
'Tahir, Muhammad Nawaz'
_publ_section_title
;
 <i>N</i>-(4-Benzoylphenyl)pyridine-2-carbothioamide
;
_journal_coeditor_code           HB4032
_journal_issue                   3
_journal_name_full               IUCrData
_journal_page_first              x160471
_journal_paper_doi               10.1107/S2414314616004715
_journal_volume                  1
_journal_year                    2016
_chemical_formula_iupac          'C19 H14 N2 O S'
_chemical_formula_moiety         'C19 H14 N2 O S'
_chemical_formula_sum            'C19 H14 N2 O S'
_chemical_formula_weight         318.38
_chemical_name_systematic
;
<i>N</i>-(4-Benzoylphenyl)pyridine-2-carbothioamide
;
_space_group_crystal_system      triclinic
_space_group_IT_number           2
_space_group_name_Hall           '-P 1'
_space_group_name_H-M_alt        'P -1'
_symmetry_space_group_name_Hall  '-P 1'
_symmetry_space_group_name_H-M   'P -1'
_atom_sites_solution_hydrogens   geom
_atom_sites_solution_primary     direct
_atom_sites_solution_secondary   difmap
_audit_creation_method           SHELXL-2014/7
_cell_angle_alpha                75.990(5)
_cell_angle_beta                 89.069(6)
_cell_angle_gamma                87.074(6)
_cell_formula_units_Z            4
_cell_length_a                   9.7001(14)
_cell_length_b                   12.1805(14)
_cell_length_c                   13.8660(17)
_cell_measurement_reflns_used    3316
_cell_measurement_temperature    296(2)
_cell_measurement_theta_max      26.000
_cell_measurement_theta_min      1.514
_cell_volume                     1587.5(4)
_computing_cell_refinement
;
SAINT (Bruker, 2007)
;
_computing_data_collection
;
APEX2 (Bruker, 2007)
;
_computing_data_reduction
;
SAINT (Bruker, 2007)
;
_computing_molecular_graphics
;
ORTEP-3 for Windows (Farrugia, 2012) and PLATON (Spek, 2009)
;
_computing_publication_material
;
WinGX (Farrugia, 2012) and PLATON (Spek, 2009)
;
_computing_structure_refinement
;
SHELXL2014  (Sheldrick, 2015)
;
_computing_structure_solution
;
SHELXS97 (Sheldrick, 2008)
;
_diffrn_ambient_temperature      296(2)
_diffrn_detector_area_resol_mean 7.80
_diffrn_measured_fraction_theta_full 0.990
_diffrn_measured_fraction_theta_max 0.990
_diffrn_measurement_device_type  'Bruker Kappa APEXII CCD'
_diffrn_measurement_method       \w
_diffrn_radiation_monochromator  graphite
_diffrn_radiation_source         'fine-focus sealed tube'
_diffrn_radiation_type           MoK\a
_diffrn_radiation_wavelength     0.71073
_diffrn_reflns_limit_h_max       11
_diffrn_reflns_limit_h_min       -11
_diffrn_reflns_limit_k_max       15
_diffrn_reflns_limit_k_min       -14
_diffrn_reflns_limit_l_max       17
_diffrn_reflns_limit_l_min       -6
_diffrn_reflns_number            6168
_diffrn_reflns_theta_full        26.000
_diffrn_reflns_theta_max         26.000
_diffrn_reflns_theta_min         1.514
_diffrn_standards_number         0
_exptl_absorpt_coefficient_mu    0.209
_exptl_absorpt_correction_T_max  0.958
_exptl_absorpt_correction_T_min  0.895
_exptl_absorpt_correction_type   multi-scan
_exptl_absorpt_process_details
;
(SADABS; Bruker, 2005)
;
_exptl_crystal_colour            'light brown'
_exptl_crystal_density_diffrn    1.332
_exptl_crystal_density_method    'not measured'
_exptl_crystal_description       needle
_exptl_crystal_F_000             664
_exptl_crystal_size_max          0.40
_exptl_crystal_size_mid          0.22
_exptl_crystal_size_min          0.20
_refine_diff_density_max         0.241
_refine_diff_density_min         -0.375
_refine_ls_extinction_coef       0.0062(19)
_refine_ls_extinction_expression Fc^*^=kFc[1+0.001xFc^2^\l^3^/sin(2\q)]^-1/4^
_refine_ls_extinction_method
;
SHELXL2014 (Sheldrick 2015)
;
_refine_ls_goodness_of_fit_ref   1.000
_refine_ls_hydrogen_treatment    constr
_refine_ls_matrix_type           full
_refine_ls_number_parameters     417
_refine_ls_number_reflns         6168
_refine_ls_number_restraints     0
_refine_ls_restrained_S_all      1.000
_refine_ls_R_factor_all          0.1242
_refine_ls_R_factor_gt           0.0603
_refine_ls_shift/su_max          0.000
_refine_ls_shift/su_mean         0.000
_refine_ls_structure_factor_coef Fsqd
_refine_ls_weighting_details
'w=1/[\s^2^(Fo^2^)+(0.1058P)^2^] where P=(Fo^2^+2Fc^2^)/3'
_refine_ls_weighting_scheme      calc
_refine_ls_wR_factor_gt          0.1626
_refine_ls_wR_factor_ref         0.2000
_reflns_number_gt                3316
_reflns_number_total             6168
_reflns_threshold_expression     I>2\s(I)
_cod_data_source_file            hb4032sup1.cif
_cod_data_source_block           I
_cod_database_code               1542982
_shelx_space_group_comment
;
The symmetry employed for this shelxl refinement is uniquely defined
by the following loop, which should always be used as a source of
symmetry information in preference to the above space-group names.
They are only intended as comments.
;
_shelx_hkl_file
;
  -1   0   0   32816     998  -2
   1   0   0   32816     998   1
  -2   0   0  991635   18557  -2
   2   0   0  991635   18557   1
  -3   0   0    7913     428  -2
   3   0   0    7913     428   1
  -4   0   0  326130    6143  -2
   4   0   0  326130    6143   1
  -5   0   0   31141    1117  -2
   5   0   0   31141    1117   1
  -6   0   0    9736     955  -2
   6   0   0    9736     955   1
  -7   0   0     585     613  -2
   7   0   0     585     613   1
  -8   0   0   11885    1170  -2
   8   0   0   11885    1170   1
   9   0   0    1743     986   1
  10   0   0    4381    1655   1
  11   0   0    -157    2662   1
 -11   1   0    1548    1479   1
 -10   1   0    4437    1285   1
  -9   1   0   10771    1522   1
  -8   1   0     323     846   1
  -7   1   0   21467    1526   1
  -6   1   0     331     359   1
  -5   1   0   53426    1731   1
  -4   1   0    -398     265   1
  -3   1   0  228547    4552   1
  -2   1   0   34853     921   1
  -1   1   0   11932     350   1
   0   1   0   12703     470   1
   1   1   0   14546     485   1
   2   1   0    2336     204   1
   3   1   0   30418     742   1
   4   1   0   14347     605   1
   5   1   0    8097     612   1
   6   1   0   11821     749   1
   7   1   0   13415    1457   1
   8   1   0    3815     842   1
   9   1   0    2185     838   1
  10   1   0    6098    1720   1
  11   1   0    7550    2142   1
  11  -2  -1    2668    1421  -2
 -11   2   0    2668    1421   1
  10  -2  -1     -68    1688  -2
 -10   2   0     -68    1688   1
   9  -2  -1    4898    1421  -2
  -9   2   0    4898    1421   1
   8  -2  -1    5273    3603  -2
  -8   2   0    5273    3603   1
   7  -2  -1   14753    1264  -2
  -7   2   0   14753    1264   1
   6  -2  -1  183900    4772  -2
  -6   2   0  183900    4772   1
   5  -2  -1   86213    2117  -2
  -5   2   0   86213    2117   1
   4  -2  -1   41215    1807  -2
  -4   2   0   41215    1807   1
   3  -2  -1  131450    2590  -2
  -3   2   0  131450    2590   1
   2  -2  -1  172991    3216  -2
  -2   2   0  172991    3216   1
   1  -2  -1 1424533   22264  -2
  -1   2   0 1424533   22264   1
   1   2   0  409955    7196   1
   2   2   0   17196     648   1
   3   2   0    1824     321   1
   4   2   0   68383    1586   1
   5   2   0    5209     682   1
   6   2   0    2443     487   1
   7   2   0    4026     685   1
   8   2   0    3130     707   1
   9   2   0    -248     712   1
  10   2   0    -225    1107   1
  11   2   0   -1111    1688   1
 -11   3   0     352    1349   1
 -10   3   0    2736    1386   1
  -9   3   0    8583    1721   1
  -8   3   0    7203    1525   1
  -7   3   0    9079     979   1
  -6   3   0   33775    1610   1
  -5   3   0   80743    2206   1
  -4   3   0   29447    1318   1
  -3   3   0   32929     999   1
  -2   3   0      86     231   1
  -1   3   0     196     159   1
   0   3   0   66467    1348   1
   1   3   0   87577    1859   1
   2   3   0  575330   10103   1
   3   3   0  154566    2931   1
   4   3   0       4     331   1
   5   3   0   69367    1811   1
   6   3   0   42249    1453   1
   7   3   0    3727     614   1
   8   3   0   51289    2018   1
   9   3   0    1186     747   1
  10   3   0   10917    1901   1
  11   3   0    6297    2467   1
  11  -4  -2    2945    1583  -2
 -11   4   0    2945    1583   1
  10  -4  -2     -32    1194  -2
 -10   4   0     -32    1194   1
  -9   4   0   -1377     918   1
  -8   4   0     999    1053   1
  -7   4   0   43288    2229   1
  -6   4   0    1148     561   1
  -5   4   0    1129     503   1
  -4   4   0   45244    2383   1
  -3   4   0  100407    2671   1
  -2   4   0   40142    1089   1
  -1   4   0  281934    4907   1
   0   4   0  123952    2318   1
   1   4   0   34605     765   1
   2   4   0   51059    1220   1
   3   4   0   96362    2052   1
   4   4   0   14916     621   1
   5   4   0   56504    1405   1
   6   4   0    1073     435   1
   7   4   0     -95     456   1
   8   4   0    4703     755   1
   9   4   0    6569    1101   1
  10   4   0     -25    1199   1
  11   4   0    -454    1623   1
 -11   5   0     966    2402   1
 -10   5   0    2042    1496   1
  -9   5   0   25694    2796   1
  -8   5   0   54454    3969   1
  -7   5   0   -1139     760   1
  -6   5   0     655     703   1
  -5   5   0   11720     921   1
  -4   5   0    -438     404   1
  -3   5   0     186     334   1
  -2   5   0    1871     320   1
  -1   5   0   22179     630   1
   0   5   0   14816     501   1
   1   5   0   20319     900   1
   2   5   0    1300     214   1
   3   5   0     154     256   1
   4   5   0  156447    3525   1
   5   5   0   31664    1043   1
   6   5   0    4797     548   1
   7   5   0   11575     820   1
   8   5   0    1232     653   1
   9   5   0    2003    1883   1
  10   5   0   -1582    1076   1
  11   5   0   -1948    1298   1
 -10   6   0    -949    1165   1
  -9   6   0    2986    1377   1
  -8   6   0   26966    2753   1
  -7   6   0   49960    2934   1
  -6   6   0     928     666   1
  -5   6   0    5989     760   1
  -4   6   0   12659     837   1
  -3   6   0    7622     614   1
  -2   6   0   60861    1554   1
  -1   6   0      92     217   1
   0   6   0   43966    1045   1
   1   6   0  224623    5747   1
   2   6   0    1956     233   1
   3   6   0   44799    1174   1
   4   6   0   18111     783   1
   5   6   0   10039     628   1
   6   6   0    3960     541   1
   7   6   0    1738     556   1
   8   6   0     676     734   1
   9   6   0    1942    1247   1
  10   6   0    1182    2857   1
  11   6   0    -519    1753   1
 -10   7   0       0    1753   1
  -9   7   0     682    1285   1
  -8   7   0   12822    2066   1
  -7   7   0    1260     867   1
  -6   7   0   15410    1187   1
  -5   7   0    7310     774   1
  -4   7   0    2968     520   1
  -3   7   0   13881     800   1
  -2   7   0      -8     424   1
  -1   7   0    2181     307   1
   0   7   0     612     177   1
   1   7   0   20316    1337   1
   2   7   0   10414    1246   1
   3   7   0   67970    1494   1
   4   7   0   30337    1004   1
  -5  -7  -4   10254     919  -2
   5   7   0   10254     919   1
  -6  -7  -4    7451     566  -2
   6   7   0    7451     566   1
  -7  -7  -4    8204     856  -2
   7   7   0    8204     856   1
  -8  -7  -4    7566    1181  -2
   8   7   0    7566    1181   1
  -9  -7  -4    2544    1200  -2
   9   7   0    2544    1200   1
 -10  -7  -4     907    1263  -2
  10   7   0     907    1263   1
  -9   8   0    8245    2727   1
  -8   8   0    4301    1619   1
  -7   8   0    2265     946   1
  -6   8   0   13156    1216   1
  -5   8   0    3711     737   1
  -4   8   0    -470     459   1
  -3   8   0     272     392   1
  -2   8   0    9772     656   1
  -1   8   0   16059     797   1
   0   8   0   35447     903   1
   1   8   0      62     526   1
   2   8   0     365     547   1
   3   8   0    1396     399   1
   4   8   0   10234     553   1
   5   8   0   28318    1077   1
   6   8   0     489     548   1
   7   8   0     801     640   1
   8   8   0    1292     827   1
   9   8   0     351    1104   1
  10   8   0   -1615    1785   1
  -9   9   0    2662    2077   1
  -8   9   0    3441    2077   1
  -7   9   0    5193    1285   1
  -6   9   0    3765    1158   1
   5  -9  -5   19954    1551  -2
  -5   9   0   19954    1551   1
   4  -9  -5   10528     913  -2
  -4   9   0   10528     913   1
   3  -9  -5    1116     435  -2
  -3   9   0    1116     435   1
   2  -9  -5    1658     589  -2
  -2   9   0    1658     589   1
   1  -9  -5     329     303  -2
  -1   9   0     329     303   1
   0  -9  -5    6644     976  -2
   0   9   0    6644     976   1
  -1  -9  -5    6647    1054  -2
   1   9   0    6647    1054   1
  -2  -9  -5    8377    1174  -2
   2   9   0    8377    1174   1
  -3  -9  -5    9996     839  -2
   3   9   0    9996     839   1
  -4  -9  -5    1764     594  -2
   4   9   0    1764     594   1
  -5  -9  -5    1528     480  -2
   5   9   0    1528     480   1
  -6  -9  -5   20275    1319  -2
   6   9   0   20275    1319   1
  -7  -9  -5    2789     829  -2
   7   9   0    2789     829   1
  -8  -9  -5    4750    1038  -2
   8   9   0    4750    1038   1
  -9  -9  -5    2536    1310  -2
   9   9   0    2536    1310   1
  -8  10   0    -130    1753   1
  -7  10   0     -46    1165   1
  -6  10   0     915    1116   1
  -5  10   0    2161     950   1
  -4  10   0    8423    1061   1
  -3  10   0    -127     576   1
  -2  10   0   21077    1095   1
  -1  10   0   23746    1112   1
   0  10   0   96988    2746   1
   1  10   0   13859    1018   1
   2  10   0   24991    2030   1
   3  10   0     507     544   1
   4  10   0    4611    1298   1
   5  10   0    2572    1032   1
   6  10   0    2207     964   1
   7  10   0      95     685   1
   8  10   0     127    1070   1
   9  10   0   -1558    1298   1
   7 -11  -6    5399    1625  -2
  -7  11   0    5399    1625   1
   6 -11  -6    3021    1322  -2
  -6  11   0    3021    1322   1
   5 -11  -6     825     798  -2
  -5  11   0     825     798   1
   4 -11  -6    1479     775  -2
  -4  11   0    1479     775   1
   3 -11  -6    3565     830  -2
  -3  11   0    3565     830   1
   2 -11  -6    9378     947  -2
  -2  11   0    9378     947   1
   1 -11  -6     519     448  -2
  -1  11   0     519     448   1
   0 -11  -6    1348     720  -2
   0  11   0    1348     720   1
  -1 -11  -6    4059     941  -2
   1  11   0    4059     941   1
  -2 -11  -6    9918    1136  -2
   2  11   0    9918    1136   1
  -3 -11  -6    1169     844  -2
   3  11   0    1169     844   1
   4  11   0     974     909   1
   5  11   0    8050    1688   1
   6  11   0     993    1071   1
   7  11   0    4473     837   1
   8  11   0     277     793   1
  -6  12   0    6591    1717   1
  -5  12   0    1750    1154   1
  -4  12   0    5942    1375   1
  -3  12   0    1966     914   1
  -2  12   0    5741     975   1
  -1  12   0   24150    2662   1
   0  12   0     519    1104   1
   1  12   0    -584     844   1
   2  12   0    8699    1298   1
   3  12   0     779     844   1
   4  12   0    2272    1104   1
   5  12   0    2013    1233   1
   6  12   0     779    1363   1
   7  12   0    1502    1753   1
  -4  13   0     553    1061   1
  -3  13   0    -182     888   1
  -2  13   0     331     676   1
  -1  13   0    2467    1493   1
   0  13   0    -260    1169   1
   1  13   0    5648    1428   1
   2  13   0    1104    1039   1
   3  13   0     714    1039   1
   4  13   0     130    1039   1
   5  13   0     909    1169   1
  -2  14   0    2013    1623   1
  -1  14   0    2467    1688   1
   0  14   0     584    1298   1
   1  14   0    -454    1169   1
   2  14   0    2207    1169   1
   3  14   0     779    1104   1
  -3 -14   1    1104    1233   1
  -2 -14   1    -260    1169   1
  -1 -14   1    1428    1493   1
   0 -14   1    4544    1688   1
   1 -14   1     325    1558   1
   2 -14   1    2727    1883   1
  -5 -13   1     519    1298   1
  -4 -13   1    3311    1363   1
  -3 -13   1    -779    1039   1
  -2 -13   1    5129    1428   1
  -1 -13   1     519    1169   1
   0 -13   1    1753    1363   1
   1 -13   1    4025    1623   1
   2 -13   1    -801    1818   1
   3 -13   1    1914    1526   1
   4 -13   1    1556    1493   1
  -6 -12   1       0    1428   1
  -5 -12   1       0    1233   1
  -4 -12   1    2662    1233   1
  -3 -12   1     649     909   1
  -2 -12   1   22463    2337   1
  -1 -12   1   15581    2013   1
   0 -12   1    2142    1363   1
   1 -12   1    5683     875   1
   2 -12   1     933     840   1
   3 -12   1    4170    1118   1
   4 -12   1    1384    1076   1
   5 -12   1    -523    1165   1
   6 -12   1    3696    1915   1
  -8 -11   1    3424    1312   1
  -7 -11   1     955     715   1
  -6 -11   1    -130    1298   1
  -5 -11   1   13568    2077   1
  -4 -11   1    3636    1169   1
   3  11   7     130     909  -2
  -3 -11   1     130     909   1
   2  11   7     325     909  -2
  -2 -11   1     325     909   1
   1  11   7    2173    1785  -2
  -1 -11   1    2173    1785   1
   0  11   7    1655     920  -2
   0 -11   1    1655     920   1
  -1  11   7    5073     941  -2
   1 -11   1    5073     941   1
  -2  11   7    2248     836  -2
   2 -11   1    2248     836   1
  -3  11   7    -159     849  -2
   3 -11   1    -159     849   1
  -4  11   7    -590     842  -2
   4 -11   1    -590     842   1
  -5  11   7    1547    1016  -2
   5 -11   1    1547    1016   1
  -6  11   7    1045    1329  -2
   6 -11   1    1045    1329   1
  -7  11   7     672    1340  -2
   7 -11   1     672    1340   1
  -8 -10   1    1234     897   1
  -7 -10   1    7676    1098   1
  -6 -10   1    2841    1915   1
  -5 -10   1    -426     560   1
  -4 -10   1   14153    1818   1
  -3 -10   1    3826     975   1
  -2 -10   1   44370    3696   1
  -1 -10   1    8588     980   1
   0 -10   1   55398    1660   1
   1 -10   1    5935     880   1
   2 -10   1   15471    1399   1
   3 -10   1     106     754   1
   4 -10   1   30529    2235   1
   5 -10   1     709    1179   1
   6 -10   1    1255    1352   1
   7 -10   1    6673    1664   1
   8 -10   1     909    1623   1
   9   9   6    -183    1199  -2
  -9  -9   1    -183    1199   1
   8   9   6    1753    1224  -2
  -8  -9   1    1753    1224   1
   7   9   6    3962     918  -2
  -7  -9   1    3962     918   1
   6   9   6   26543    2024  -2
  -6  -9   1   26543    2024   1
   5   9   6    9770     958  -2
  -5  -9   1    9770     958   1
   4   9   6   18816     858  -2
  -4  -9   1   18816     858   1
   3   9   6    3085     614  -2
  -3  -9   1    3085     614   1
   2   9   6    4483     853  -2
  -2  -9   1    4483     853   1
   1   9   6    1425     414  -2
  -1  -9   1    1425     414   1
   0   9   6    8987     535  -2
   0  -9   1    8987     535   1
  -1   9   6    8017     599  -2
   1  -9   1    8017     599   1
  -2   9   6    6127     655  -2
   2  -9   1    6127     655   1
  -3   9   6      53     493  -2
   3  -9   1      53     493   1
  -4   9   6    1246    1640  -2
   4  -9   1    1246    1640   1
  -5   9   6     609     894  -2
   5  -9   1     609     894   1
   6  -9   1    2793    1094   1
   7  -9   1    3142    1179   1
   8  -9   1   -1753    1558   1
 -10  -8   1    1449    1356   1
  -9  -8   1    -590    1032   1
  -8  -8   1     381     809   1
  -7  -8   1    1071     769   1
  -6  -8   1    8610    1322   1
  -5  -8   1    3839     526   1
  -4  -8   1     183     326   1
  -3  -8   1     782     507   1
  -2  -8   1   14865    1007   1
  -1  -8   1    8032     429   1
   0  -8   1   16002     698   1
   1  -8   1   19846    1142   1
   2  -8   1   27934    1221   1
   3  -8   1   61502    1815   1
   4  -8   1    8589     796   1
   5  -8   1   44531    1943   1
   6  -8   1   41252    2340   1
   7  -8   1      65     981   1
   8  -8   1    -919    1183   1
   9  -8   1    1493    1948   1
  10   7   5     139    1294  -2
 -10  -7   1     139    1294   1
   9   7   5    -974     934  -2
  -9  -7   1    -974     934   1
   8   7   5     851    1161  -2
  -8  -7   1     851    1161   1
   7   7   5   10049    1083  -2
  -7  -7   1   10049    1083   1
   6   7   5   30903    1242  -2
  -6  -7   1   30903    1242   1
   5   7   5   10844     680  -2
  -5  -7   1   10844     680   1
  -4  -7   1     418     335   1
  -3  -7   1   23962    1018   1
  -2  -7   1     -77     218   1
  -1  -7   1     149     224   1
   0  -7   1   27753     877   1
   1  -7   1     773     311   1
   2  -7   1    3321     433   1
   3  -7   1      21     366   1
   4  -7   1    2170     529   1
   5  -7   1      31     501   1
   6  -7   1   84403    3003   1
   7  -7   1   58801    3917   1
   8  -7   1   22572    3882   1
   9  -7   1    -305    1087   1
  10  -7   1    3830    2532   1
 -11  -6   1    -390    1688   1
 -10  -6   1     185    1246   1
  -9  -6   1     803    1099   1
  -8  -6   1    1058     819   1
  -7  -6   1     919     527   1
  -6  -6   1    -357     369   1
  -5  -6   1    3053     448   1
  -4  -6   1   52117    1376   1
  -3  -6   1   43490    1212   1
  -2  -6   1      24     198   1
  -1  -6   1  127940    2429   1
   0  -6   1   21653     736   1
   1  -6   1   13217     605   1
   2  -6   1    5197     484   1
   3  -6   1     -45     342   1
   4  -6   1    7612     748   1
   5  -6   1   23119    1182   1
   6  -6   1   10969    1331   1
   7  -6   1    5396    1174   1
   8  -6   1     325    1010   1
   9  -6   1    1063    1211   1
  10  -6   1   -1391    1118   1
 -11  -5   1     390    1753   1
 -10  -5   1    6330    1756   1
  -9  -5   1    1192    1200   1
  -8  -5   1    1535     600   1
  -7  -5   1   31396    1467   1
  -6  -5   1    3417     513   1
  -5  -5   1   31701    1148   1
  -4  -5   1   88877    2037   1
  -3  -5   1   15114     625   1
  -2  -5   1    5593     374   1
  -1  -5   1     341     181   1
   0  -5   1   53794    1061   1
   1  -5   1   27561     791   1
   2  -5   1     421     327   1
   3  -5   1   13281     748   1
   4  -5   1   18604    1040   1
   5  -5   1    2631     617   1
   6  -5   1   53706    2359   1
   7  -5   1    1948     883   1
   8  -5   1   19326    2315   1
   9  -5   1      32    1056   1
  10  -5   1    2185    1487   1
 -11  -4   1     584    1753   1
 -10  -4   1    2299    1980   1
  -9  -4   1    1949     944   1
  -8  -4   1     253     563   1
  -7  -4   1     855     498   1
  -6  -4   1   11659     756   1
  -5  -4   1    2024     409   1
  -4  -4   1   20004     797   1
  -3  -4   1   41374    1068   1
  -2  -4   1    4987     340   1
  -1  -4   1   14896     446   1
   0  -4   1   16926     513   1
   1  -4   1    3226     308   1
   2  -4   1   51354    1247   1
   3  -4   1     860     658   1
   4  -4   1  182285    4598   1
   5  -4   1   30119    1466   1
   6  -4   1    2919    1040   1
   7  -4   1    5211    1488   1
   8  -4   1     553     980   1
   9  -4   1    2045    1194   1
 -10   4   3     585    1257  -2
  10  -4   1     585    1257   1
 -11   4   3    2797    1513  -2
  11  -4   1    2797    1513   1
 -11  -3   1    2532    1948   1
 -10  -3   1     821    1883   1
  -9  -3   1    -821     882   1
  -8  -3   1    -191     534   1
  -7  -3   1    -686     457   1
  -6  -3   1    9508     726   1
  -5  -3   1   25118     983   1
  -4  -3   1    4967     440   1
  -3  -3   1      -3     213   1
  -2  -3   1   39031     957   1
  -1  -3   1     125     159   1
   0  -3   1  515734    8881   1
   1  -3   1     615     189   1
   2  -3   1   32078     860   1
   3  -3   1    2848     462   1
   4  -3   1    7227     818   1
   5  -3   1   37944    1463   1
   6  -3   1    1000     525   1
   7  -3   1   53004    2539   1
   8  -3   1   37703    3138   1
   9  -3   1    4970    1688   1
  10  -3   1     394    1099   1
  11  -3   1      87    1216   1
 -11  -2   1    4265    2435   1
 -10  -2   1    -894    1039   1
  -9  -2   1     656     730   1
  -8  -2   1    7247     871   1
  -7  -2   1    4004     633   1
  -6  -2   1    9582     869   1
  -5  -2   1   52225    1494   1
  -4  -2   1   18258     738   1
  -3  -2   1    1358     302   1
  -2  -2   1 6219012  101292   1
  -1  -2   1  379875    6679   1
   0  -2   1  365435    5641   1
  -1   2   2   54304    1028  -2
   1  -2   1   54304    1028   1
  -2   2   2  246694    4513  -2
   2  -2   1  246694    4513   1
  -3   2   2  456423    8225  -2
   3  -2   1  456423    8225   1
  -4   2   2   21024     829  -2
   4  -2   1   21024     829   1
  -5   2   2   25008    1117  -2
   5  -2   1   25008    1117   1
  -6   2   2    2418     578  -2
   6  -2   1    2418     578   1
  -7   2   2    4989    1471  -2
   7  -2   1    4989    1471   1
  -8   2   2    8269    2824  -2
   8  -2   1    8269    2824   1
  -9   2   2    7310    1553  -2
   9  -2   1    7310    1553   1
 -10   2   2    2197    1130  -2
  10  -2   1    2197    1130   1
 -11   2   2    4141    2110  -2
  11  -2   1    4141    2110   1
 -11  -1   1   -2386    1591   1
 -10  -1   1      70    1124   1
  -9  -1   1    -234     729   1
  -8  -1   1    8676     940   1
  -7  -1   1   48134    1835   1
  -6  -1   1    -342     411   1
  -5  -1   1  150768    3392   1
  -4  -1   1    7114     551   1
  -3  -1   1  307169    5729   1
  -2  -1   1  143397    2651   1
  -1  -1   1   37623     785   1
   0  -1   1    6968     284   1
   1  -1   1    3733     242   1
   2  -1   1   87755    2095   1
   3  -1   1    6023     446   1
   4  -1   1  198123    3832   1
   5  -1   1     206     378   1
   6  -1   1   19210    1462   1
   7  -1   1    1807     968   1
   8  -1   1   47373    2390   1
   9  -1   1    4126    1131   1
  10  -1   1    -729     954   1
  11  -1   1   -1250    1072   1
 -11   0   1    1473    1303   1
 -10   0   1      80    1099   1
  -9   0   1     447     879   1
   8   0   1   49843    2278  -2
  -8   0   1   49843    2278   1
   7   0   1    2678     633  -2
  -7   0   1    2678     633   1
   6   0   1   33347    1678  -2
  -6   0   1   33347    1678   1
   5   0   1  116316    2642  -2
  -5   0   1  116316    2642   1
   4   0   1   13480     624  -2
  -4   0   1   13480     624   1
   3   0   1  788464   13923  -2
  -3   0   1  788464   13923   1
   2   0   1  105574    3735  -2
  -2   0   1  105574    3735   1
   1   0   1   51540    1486  -2
  -1   0   1   51540    1486   1
   0   0   1  348942    6314  -2
   0   0   1  348942    6314   1
  -1   0   1  172875    3665  -2
   1   0   1  172875    3665   1
  -2   0   1  332297    6882  -2
   2   0   1  332297    6882   1
  -3   0   1  201948    9415  -2
   3   0   1  201948    9415   1
  -4   0   1    3618     407  -2
   4   0   1    3618     407   1
  -5   0   1   48417    2642  -2
   5   0   1   48417    2642   1
  -6   0   1   46901    2037  -2
   6   0   1   46901    2037   1
  -7   0   1    3780     636  -2
   7   0   1    3780     636   1
  -8   0   1   14192    1221  -2
   8   0   1   14192    1221   1
   9   0   1    1566    1377   1
  10   0   1    4844    1242   1
  11   0   1    1052    1354   1
 -11   1   1    1855    1623   1
 -10   1   1    6648    1721   1
  -9   1   1    2796    2968   1
  -8   1   1   11687    1783   1
  -7   1   1    6393     829   1
  -6   1   1  123004    3432   1
  -5   1   1   41525    1299   1
  -4   1   1  256683    4834   1
  -3   1   1  519219    9930   1
  -2   1   1  123004    2499   1
  -1   1   1     -22     125   1
   0   1   1   15120     320   1
   1   1   1     437     114   1
   2   1   1    1119     379   1
   3   1   1   74774    1521   1
   4   1   1    7959     468   1
   5   1   1   21561    1101   1
   6   1   1   51056    1467   1
   7   1   1    2778     973   1
   8   1   1   11856    1049   1
   9   1   1     226     707   1
  10   1   1     -24    1111   1
  11   1   1   13881    2294   1
  11  -2   0     741    1303  -2
 -11   2   1     741    1303   1
  10  -2   0     621    1145  -2
 -10   2   1     621    1145   1
   9  -2   0    9266    1883  -2
  -9   2   1    9266    1883   1
   8  -2   0   10061    1645  -2
  -8   2   1   10061    1645   1
   7  -2   0   15686    1264  -2
  -7   2   1   15686    1264   1
   6  -2   0   81554    2514  -2
  -6   2   1   81554    2514   1
   5  -2   0   45912    1359  -2
  -5   2   1   45912    1359   1
   4  -2   0   62289    2022  -2
  -4   2   1   62289    2022   1
   3  -2   0   29862     930  -2
  -3   2   1   29862     930   1
   2  -2   0   33530     823  -2
  -2   2   1   33530     823   1
   0   2   1 1886264   31300   1
   1   2   1  102481    2629   1
   2   2   1  430052    7575   1
   3   2   1  333883    5362   1
   4   2   1    7080     453   1
   5   2   1   55343    1660   1
   6   2   1     516     416   1
   7   2   1   38282    1500   1
   8   2   1     -51     562   1
   9   2   1    -213     826   1
  10   2   1    1363    1194   1
  11   2   1    -848    1216   1
 -11   3   1    2708    1625   1
 -10   3   1     252    1753   1
  -9   3   1    9776    1836   1
  -8   3   1    3049    1237   1
  -7   3   1   25961    1499   1
  -6   3   1    5183     739   1
  -5   3   1   22907    1104   1
  -4   3   1    4487     494   1
  -3   3   1   26027    1011   1
  -2   3   1   58590    1352   1
  -1   3   1      15     150   1
   0   3   1   10591     423   1
   1   3   1   14929     527   1
   2   3   1    9712     426   1
   3   3   1   28406     752   1
   4   3   1   60834    1385   1
   5   3   1    1909     421   1
   6   3   1   13501     818   1
   7   3   1    1549     598   1
   8   3   1   14368    1213   1
   9   3   1    -160     673   1
  10   3   1    2220    2857   1
  11   3   1    -844    1623   1
  11  -4  -1    -357    1285  -2
 -11   4   1    -357    1285   1
  10  -4  -1    3140    1467  -2
 -10   4   1    3140    1467   1
  -9   4   1   18826    2448   1
  -8   4   1    1911    1145   1
  -7   4   1    5326     975   1
  -6   4   1     812     527   1
  -5   4   1    3194     543   1
  -4   4   1   14200     940   1
  -3   4   1   24922    1473   1
  -2   4   1    2962     333   1
  -1   4   1  823317   13796   1
   0   4   1   20294     728   1
   1   4   1  400667   12877   1
   2   4   1   41236    1010   1
   3   4   1    9170     499   1
   4   4   1   61566    1395   1
   5   4   1   11715     623   1
   6   4   1   22847    1042   1
   7   4   1     339     447   1
   8   4   1    1569     605   1
   9   4   1    5098     938   1
  10   4   1    1796    1308   1
  11   4   1   -1169    1623   1
 -11   5   1     533    1467   1
 -10   5   1    2543    1537   1
  -9   5   1   18086    2407   1
  -8   5   1     615    1053   1
  -7   5   1   10763    1619   1
  -6   5   1    3932     771   1
  -5   5   1    4240     643   1
  -4   5   1     560     430   1
  -3   5   1   17815     831   1
  -2   5   1   15975     647   1
  -1   5   1    3386     269   1
   0   5   1    3185     368   1
   1   5   1  140674    5050   1
   2   5   1   32039     859   1
   3   5   1    8216     445   1
   4   5   1   68342    1620   1
   5   5   1      83     310   1
   6   5   1    1122     410   1
   7   5   1    5970     656   1
   8   5   1    1303     585   1
   9   5   1    3513    1130   1
  10   5   1    2330    1294   1
  11   5   1    5843    2272   1
 -10   6   1    2518    1482   1
  -9   6   1    2098    2337   1
  -8   6   1    1631    1558   1
  -7   6   1   -1356    1437   1
  -6   6   1    2012     645   1
  -5   6   1    1002     528   1
  -4   6   1   55813    1682   1
  -3   6   1     188     368   1
  -2   6   1   33777    2760   1
  -1   6   1  128646    2306   1
   0   6   1  210245    4129   1
   1   6   1    -139     479   1
   2   6   1   31374    1415   1
   3   6   1   18611     650   1
   4   6   1   64538    1647   1
   5   6   1     -43     291   1
   6   6   1     529     371   1
   7   6   1     393     730   1
   8   6   1     580     622   1
   9   6   1    2697    1247   1
  10   6   1   -1513    1009   1
  11   6   1   -1428    1558   1
 -10   7   1    1363    1818   1
  -9   7   1     609    1216   1
  -8   7   1   26584    2799   1
  -7   7   1    9287    1378   1
  -6   7   1    1412     663   1
  -5   7   1    -294     457   1
  -4   7   1    7002     673   1
  -3   7   1     349     367   1
  -2   7   1    9523     592   1
  -1   7   1     352     243   1
   0   7   1    4678     436   1
   1   7   1    5629     865   1
   2   7   1    5546     743   1
   3   7   1    5769     610   1
   4   7   1    7901     661   1
  -5  -7  -3    6982     518  -2
   5   7   1    6982     518   1
  -6  -7  -3    3518     505  -2
   6   7   1    3518     505   1
  -7  -7  -3     160     629  -2
   7   7   1     160     629   1
  -8  -7  -3    3341     845  -2
   8   7   1    3341     845   1
  -9  -7  -3     613    1688  -2
   9   7   1     613    1688   1
 -10  -7  -3   -1159    1104  -2
  10   7   1   -1159    1104   1
  -9   8   1     714    1818   1
  -8   8   1    -282    1310   1
  -7   8   1    2486    1087   1
  -6   8   1   15990    1638   1
  -5   8   1   19063    1245   1
  -4   8   1   20626    1089   1
  -3   8   1   10782     727   1
  -2   8   1  109468    2528   1
  -1   8   1  194135    3625   1
   0   8   1   98246    2972   1
   1   8   1   18132    1651   1
   2   8   1   19876    1705   1
   3   8   1   50004    2111   1
   4   8   1   24225     950   1
   5   8   1   16523     751   1
   6   8   1     -44     513   1
   7   8   1    -219     582   1
   8   8   1    -956     716   1
   9   8   1      79    1014   1
  10   8   1    -166    1199   1
  -9   9   1    1169    1883   1
  -8   9   1    1169    1753   1
  -7   9   1    5289    1302   1
  -6   9   1     300     877   1
   5  -9  -4    3160     804  -2
  -5   9   1    3160     804   1
   4  -9  -4    2752     620  -2
  -4   9   1    2752     620   1
   3  -9  -4    2752     767  -2
  -3   9   1    2752     767   1
   2  -9  -4    9743     912  -2
  -2   9   1    9743     912   1
   1  -9  -4    4610     595  -2
  -1   9   1    4610     595   1
   0  -9  -4     752     461  -2
   0   9   1     752     461   1
  -1  -9  -4   12060    1682  -2
   1   9   1   12060    1682   1
  -2  -9  -4   16532    1518  -2
   2   9   1   16532    1518   1
  -3  -9  -4   12796    1413  -2
   3   9   1   12796    1413   1
  -4  -9  -4    1409     677  -2
   4   9   1    1409     677   1
  -5  -9  -4    3077     492  -2
   5   9   1    3077     492   1
  -6  -9  -4   12239    1181  -2
   6   9   1   12239    1181   1
  -7  -9  -4    2692     819  -2
   7   9   1    2692     819   1
  -8  -9  -4     818     940  -2
   8   9   1     818     940   1
  -9  -9  -4    1601    1199  -2
   9   9   1    1601    1199   1
  -8  10   1   -1298    1493   1
  -7  10   1   -1019    1107   1
  -6  10   1     723    1028   1
  -5  10   1    1432     985   1
  -4  10   1     704     688   1
  -3  10   1   38461    1815   1
  -2  10   1   27078    1210   1
  -1  10   1   17230     622   1
   0  10   1  102531    3259   1
   1  10   1    -626     644   1
   2  10   1   27880    2130   1
   3  10   1    2539     973   1
   4  10   1    -330     599   1
   5  10   1   14719    1602   1
   6  10   1    -164     526   1
   7  10   1     599     676   1
   8  10   1    -717     751   1
   9  10   1    -269    1091   1
   7 -11  -5    4024    1507  -2
  -7  11   1    4024    1507   1
   6 -11  -5    7821    1629  -2
  -6  11   1    7821    1629   1
   5 -11  -5    6287    1064  -2
  -5  11   1    6287    1064   1
   4 -11  -5     434     697  -2
  -4  11   1     434     697   1
   3 -11  -5     580     620  -2
  -3  11   1     580     620   1
   2 -11  -5    6574     826  -2
  -2  11   1    6574     826   1
   1 -11  -5     994     630  -2
  -1  11   1     994     630   1
   0 -11  -5    2787     629  -2
   0  11   1    2787     629   1
  -1 -11  -5    1623    1753  -2
   1  11   1    1623    1753   1
  -2 -11  -5    6687    2337  -2
   2  11   1    6687    2337   1
  -3 -11  -5   -1039    1558  -2
   3  11   1   -1039    1558   1
   4  11   1    7661    1233   1
   5  11   1       0     974   1
   6  11   1    1006     872   1
   7  11   1    3919    1191   1
   8  11   1     154     787   1
  -6  12   1    3697    1441   1
  -5  12   1    4879    1460   1
  -4  12   1    6139    1104   1
  -3  12   1    1154     738   1
  -2  12   1    1313     618   1
  -1  12   1   43420    2410   1
   0  12   1    2437     756   1
   4  12   1      65     844   1
   5  12   1    1688    1104   1
   6  12   1     905     858   1
   7  12   1    1104    1428   1
  -5  13   1     770    1266   1
  -4  13   1    -383     920   1
  -3  13   1    2058     818   1
  -2  13   1    1722    1266   1
  -1  13   1    1233     872   1
   0  13   1    1558    1104   1
   1  13   1    -649     844   1
   4  13   1    -779     844   1
   5  13   1    -909    1104   1
   6  13   1    3388    1785   1
  -3  14   1    5778    2142   1
  -2  14   1    1363    1428   1
  -1  14   1    3246    1558   1
   0  14   1       0    1104   1
   1  14   1     909    1169   1
   4  14   1     195     974   1
  -1 -14   2    -325    1428   1
   0 -14   2    -519    1428   1
  -4 -13   2    -130    1233   1
  -3 -13   2     844    1298   1
  -2 -13   2    -325    1233   1
  -1 -13   2    -325    1298   1
   0 -13   2    1428    1493   1
   1 -13   2    -909    1493   1
   2 -13   2     516     901   1
   3 -13   2    2353    1123   1
  -6 -12   2     714    1558   1
  -5 -12   2     714    1363   1
  -4 -12   2    8180    1818   1
  -3 -12   2    1688    1233   1
  -2 -12   2   14607    2142   1
  -1 -12   2   24865    2662   1
   0 -12   2    2662    1493   1
   1 -12   2    5635    1104   1
   2 -12   2    9177    1396   1
   3 -12   2    4654    1326   1
   4 -12   2     789    1266   1
   5 -12   2     875    1283   1
  -7 -11   2     541     776   1
  -6 -11   2    3184     885   1
  -5 -11   2    2727    1428   1
  -4 -11   2    1428    1169   1
   3  11   8    1883    1169  -2
  -3 -11   2    1883    1169   1
   2  11   8    4934    1363  -2
  -2 -11   2    4934    1363   1
   1  11   8    6702    1237  -2
  -1 -11   2    6702    1237   1
   0  11   8    6113     798  -2
   0 -11   2    6113     798   1
  -1  11   8    2254     730  -2
   1 -11   2    2254     730   1
  -2  11   8    3146    1026  -2
   2 -11   2    3146    1026   1
  -3  11   8    2231     974  -2
   3 -11   2    2231     974   1
  -4  11   8    8297    1426  -2
   4 -11   2    8297    1426   1
  -5  11   8    2453    1150  -2
   5 -11   2    2453    1150   1
  -6  11   8     822    1322  -2
   6 -11   2     822    1322   1
  -8 -10   2     241     916   1
  -7 -10   2    4196     972   1
  -6 -10   2    1962     913   1
  -5 -10   2    -178     659   1
  -4 -10   2    -157     448   1
  -3 -10   2    7512    1493   1
  -2 -10   2   10186    1186   1
  -1 -10   2     885     394   1
   0 -10   2    1421     478   1
   1 -10   2   10335     844   1
   2 -10   2    2257    1083   1
   3 -10   2    6466    1132   1
   4 -10   2    -795     835   1
   5 -10   2     314    1130   1
   6 -10   2    -385    1034   1
   7 -10   2    2276    1400   1
   9   9   7    -283    1396  -2
  -9  -9   2    -283    1396   1
   8   9   7    -311     785  -2
  -8  -9   2    -311     785   1
   7   9   7    4137    1128  -2
  -7  -9   2    4137    1128   1
   6   9   7    2283    1136  -2
  -6  -9   2    2283    1136   1
   5   9   7    4380     861  -2
  -5  -9   2    4380     861   1
   4   9   7    4851     595  -2
  -4  -9   2    4851     595   1
   3   9   7   24881    1041  -2
  -3  -9   2   24881    1041   1
   2   9   7   26641     941  -2
  -2  -9   2   26641     941   1
   1   9   7   12267     667  -2
  -1  -9   2   12267     667   1
   0   9   7    6243     512  -2
   0  -9   2    6243     512   1
  -1   9   7    3109     480  -2
   1  -9   2    3109     480   1
  -2   9   7    8000     748  -2
   2  -9   2    8000     748   1
  -3   9   7   13305    1122  -2
   3  -9   2   13305    1122   1
  -4   9   7   59079    3397  -2
   4  -9   2   59079    3397   1
  -5   9   7    4164    1268  -2
   5  -9   2    4164    1268   1
   6  -9   2   15297    2626   1
   7  -9   2    2772    1201   1
   8  -9   2    1883    1948   1
  -9  -8   2     164    1129   1
  -8  -8   2   -1027     735   1
  -7  -8   2    1367     835   1
  -6  -8   2    8076    1124   1
  -5  -8   2   20244    1072   1
  -4  -8   2    5120     572   1
  -3  -8   2    8842     558   1
  -2  -8   2     750     309   1
  -1  -8   2   40069    1245   1
   0  -8   2    -102     300   1
   1  -8   2   11832     681   1
   2  -8   2     315     424   1
   3  -8   2    1817     556   1
   4  -8   2   35858    1669   1
   5  -8   2   88074    4076   1
   6  -8   2    -790     700   1
   7  -8   2   15812    1907   1
   8  -8   2    2801    1589   1
   9  -8   2   -1039    1623   1
  10   7   6    -659    1101  -2
 -10  -7   2    -659    1101   1
   9   7   6    6828    1753  -2
  -9  -7   2    6828    1753   1
   8   7   6    1029     897  -2
  -8  -7   2    1029     897   1
   7   7   6   14279    1387  -2
  -7  -7   2   14279    1387   1
   6   7   6    7512     856  -2
  -6  -7   2    7512     856   1
   5   7   6   47396    1667  -2
  -5  -7   2   47396    1667   1
  -4  -7   2    3967     470   1
  -3  -7   2    5568    1205   1
  -2  -7   2    7953     660   1
  -1  -7   2    6340     543   1
   0  -7   2   23409     830   1
   1  -7   2    2093     373   1
   2  -7   2    1529     433   1
   3  -7   2   16987    1028   1
   4  -7   2    4344     881   1
   5  -7   2    3384     712   1
   6  -7   2    3321     935   1
   7  -7   2    2038    1143   1
   8  -7   2    1500    1881   1
   9  -7   2    1425    1511   1
 -10  -6   2     104    1263   1
  -9  -6   2   -1531    1021   1
  -8  -6   2    -112     797   1
  -7  -6   2    3149     639   1
  -6  -6   2     129     409   1
  -5  -6   2     593     387   1
  -4  -6   2    4892     521   1
  -3  -6   2   10349     613   1
  -2  -6   2    6220     433   1
  -1  -6   2  105235    2252   1
   0  -6   2   32257     925   1
   1  -6   2    4316     619   1
   2  -6   2   16370    1050   1
   3  -6   2   53034    1786   1
   4  -6   2    1466     794   1
   5  -6   2    2127     617   1
   6  -6   2   60123    2863   1
   7  -6   2     -65     714   1
   8  -6   2    -587     967   1
   9  -6   2     550    1262   1
  10  -6   2   -1530    1136   1
 -11  -5   2      65    1688   1
 -10  -5   2    3565    1463   1
  -9  -5   2     984    1138   1
  -8  -5   2    1521     703   1
  -7  -5   2    1084     508   1
  -6  -5   2   27969    1167   1
  -5  -5   2    4285     527   1
  -4  -5   2   43223    1247   1
  -3  -5   2    -185     231   1
  -2  -5   2  134807    2495   1
  -1  -5   2  249836    4350   1
   0  -5   2   24267     766   1
   1  -5   2   16908     908   1
   2  -5   2    7114     593   1
   3  -5   2   31121    1299   1
   4  -5   2   22147    1168   1
   5  -5   2    4045     698   1
   6  -5   2   41857    2517   1
   7  -5   2   69043    3246   1
   8  -5   2     898    1118   1
   9  -5   2    1915    1285   1
  10  -5   2    3373    1579   1
 -11  -4   2    -584    1558   1
 -10  -4   2    5323    2142   1
  -9  -4   2    -746     805   1
  -8  -4   2    5162     789   1
  -7  -4   2   13644     926   1
  -6  -4   2     639     417   1
  -5  -4   2    1969     473   1
  -4  -4   2  288943    6141   1
  -3  -4   2    1217     333   1
  -2  -4   2   28937    1485   1
  -1  -4   2    9974     470   1
   0  -4   2   50345    1471   1
   1  -4   2  161367    2995   1
   2  -4   2   62357    1994   1
   3  -4   2   99364    2562   1
   4  -4   2   89004    2904   1
   5  -4   2     701     547   1
   6  -4   2   18534    1635   1
   7  -4   2   24801    2035   1
   8  -4   2   10859    1829   1
   9  -4   2     857    1145   1
 -10   4   4    -296    1137  -2
  10  -4   2    -296    1137   1
 -11   4   4    1719    2499  -2
  11  -4   2    1719    2499   1
 -11  -3   2    2077    1948   1
 -10  -3   2    3415    1400   1
  -9  -3   2    8161    1358   1
  -8  -3   2    5883     838   1
  -7  -3   2    9699     813   1
  -6  -3   2   47441    1921   1
  -5  -3   2   28497    1282   1
  -4  -3   2  113376    2679   1
  -3  -3   2   55094    1343   1
  -2  -3   2  144126    2585   1
  -1  -3   2   40743     887   1
   0  -3   2  296941    4981   1
   1  -3   2   20021     613   1
   2  -3   2   35812    1011   1
   3  -3   2   27851    1086   1
   4  -3   2   16506    1229   1
   5  -3   2   54010    1881   1
   6  -3   2    8980    1899   1
   7  -3   2    6374     979   1
   8  -3   2    -692     940   1
   9  -3   2    1298    1148   1
  10  -3   2   -1096     974   1
  11  -3   2    4837    1744   1
 -11  -2   2    2330    1818   1
 -10  -2   2     130    1078   1
  -9  -2   2     609    1432   1
  -8  -2   2    -226     557   1
  -7  -2   2     890     557   1
  -6  -2   2     482     412   1
  -5  -2   2   29522    1340   1
  -4  -2   2   30714    1870   1
  -3  -2   2   59169    1419   1
  -2  -2   2 2179519   37557   1
  -1  -2   2 1427048   22224   1
   0  -2   2  303249    4971   1
  -1   2   3  447967    7579  -2
   1  -2   2  447967    7579   1
  -2   2   3    5777     450  -2
   2  -2   2    5777     450   1
  -3   2   3  289009    5724  -2
   3  -2   2  289009    5724   1
  -4   2   3   24135    1048  -2
   4  -2   2   24135    1048   1
  -5   2   3   55213    1864  -2
   5  -2   2   55213    1864   1
  -6   2   3    9814    1001  -2
   6  -2   2    9814    1001   1
  -7   2   3    1098     843  -2
   7  -2   2    1098     843   1
  -8   2   3   18112    2727  -2
   8  -2   2   18112    2727   1
  -9   2   3    -408     856  -2
   9  -2   2    -408     856   1
 -10   2   3    7241    1411  -2
  10  -2   2    7241    1411   1
 -11   2   3      -9    1232  -2
  11  -2   2      -9    1232   1
 -11  -1   2   -2013    2013   1
 -10  -1   2   12528    2066   1
  -9  -1   2    -459    1164   1
  -8  -1   2   57176    2958   1
  -7  -1   2    5469     764   1
  -6  -1   2   56563    2330   1
  -5  -1   2   36798    1440   1
  -4  -1   2     888     342   1
  -3  -1   2    2055     322   1
  -2  -1   2  169751    3150   1
  -1  -1   2    2610     251   1
   0  -1   2   28308     598   1
   1  -1   2   20008     618   1
   2  -1   2    4377     400   1
   3  -1   2   90421    2199   1
   4  -1   2    3292     441   1
   5  -1   2    6192     671   1
   6  -1   2   13631    1147   1
   7  -1   2    -541     487   1
   8  -1   2   17043    1432   1
   9  -1   2   30555    2948   1
  10  -1   2    2695    1134   1
  11  -1   2    4221    1629   1
 -11   0   2    2863    1400   1
 -10   0   2    3298    1329   1
  -9   0   2    -814     849   1
   8   0   2    1934     984  -2
  -8   0   2    1934     984   1
   7   0   2   11784    1068  -2
  -7   0   2   11784    1068   1
   6   0   2    2005     618  -2
  -6   0   2    2005     618   1
   5   0   2   68217    4689  -2
  -5   0   2   68217    4689   1
   4   0   2   25641     920  -2
  -4   0   2   25641     920   1
   3   0   2  348030    6487  -2
  -3   0   2  348030    6487   1
   2   0   2 4489677   80093  -2
  -2   0   2 4489677   80093   1
   1   0   2  470884    8725  -2
  -1   0   2  470884    8725   1
   0   0   2   82811    1457  -2
   0   0   2   82811    1457   1
  -1   0   2  144672    3105  -2
   1   0   2  144672    3105   1
  -2   0   2 1458765   48018  -2
   2   0   2 1458765   48018   1
  -3   0   2  267678    5299  -2
   3   0   2  267678    5299   1
  -4   0   2   36384    1020  -2
   4   0   2   36384    1020   1
  -5   0   2  248767    5138  -2
   5   0   2  248767    5138   1
  -6   0   2     874     556  -2
   6   0   2     874     556   1
  -7   0   2    4052     638  -2
   7   0   2    4052     638   1
  -8   0   2    1836     783  -2
   8   0   2    1836     783   1
   9   0   2   -1442    2468   1
  10   0   2    2079    1049   1
  11   0   2    5756    1691   1
 -11   1   2    -519    1285   1
 -10   1   2     584    1623   1
  -9   1   2   40872    3396   1
  -8   1   2   13420    1486   1
  -7   1   2   35744    2347   1
  -6   1   2    -234     375   1
  -5   1   2    2464     458   1
  -4   1   2   56159    1376   1
  -3   1   2    1108     316   1
  -2   1   2   22019     653   1
  -1   1   2   13567     755   1
   0   1   2      79     154   1
   1   1   2   32280     784   1
   2   1   2  162317    3049   1
   3   1   2    -243     234   1
   4   1   2  218521    4165   1
   5   1   2   31029    1121   1
   6   1   2  146746    3173   1
   7   1   2   10945     928   1
   8   1   2    5485     937   1
   9   1   2    4595    1030   1
  10   1   2    1046    1042   1
  11   1   2   19965    2639   1
  11  -2   1    6989    2142  -2
 -11   2   2    6989    2142   1
  10  -2   1    1006    1170  -2
 -10   2   2    1006    1170   1
   9  -2   1    6885    1753  -2
  -9   2   2    6885    1753   1
   8  -2   1   28075    2637  -2
  -8   2   2   28075    2637   1
   7  -2   1   25881    1618  -2
  -7   2   2   25881    1618   1
   6  -2   1    2041     519  -2
  -6   2   2    2041     519   1
   5  -2   1   78044    1976  -2
  -5   2   2   78044    1976   1
   4  -2   1    5038     434  -2
  -4   2   2    5038     434   1
   3  -2   1   39098    2553  -2
  -3   2   2   39098    2553   1
   2  -2   1     959     270  -2
  -2   2   2     959     270   1
   1  -2   1    3788     520  -2
  -1   2   2    3788     520   1
   0   2   2  295059    5265   1
   1   2   2  134503    2834   1
   2   2   2  119479    2431   1
   3   2   2   18987     613   1
   4   2   2   68848    1496   1
   5   2   2      39     353   1
   6   2   2   25358    1116   1
   7   2   2   14311     927   1
   8   2   2    -340     546   1
   9   2   2     837     916   1
  10   2   2    -927     814   1
  11   2   2     155    1276   1
 -11   3   2    6451    3181   1
 -10   3   2    -242    1032   1
  -9   3   2   11195    4252   1
  -8   3   2    9789    2370   1
  -7   3   2    1368     666   1
  -6   3   2   10056    1202   1
  -5   3   2    7239     675   1
  -4   3   2    9885     673   1
  -3   3   2    2416     361   1
  -2   3   2    3146     335   1
  -1   3   2      46     199   1
   0   3   2    9501     366   1
   1   3   2   29472     742   1
   2   3   2  221486    4554   1
   3   3   2   20708     648   1
   4   3   2    6123     465   1
   5   3   2  138638    2916   1
   6   3   2   18470     936   1
   7   3   2   49879    2110   1
   8   3   2    1465     637   1
   9   3   2   10870    1148   1
  10   3   2   -1039    1014   1
  11   3   2    6103    2337   1
  11  -4   0     123    1329  -2
 -11   4   2     123    1329   1
  10  -4   0    2224    1303  -2
 -10   4   2    2224    1303   1
  -9   4   2    1676    1170   1
  -8   4   2     556     940   1
  -7   4   2    7599    1190   1
  -6   4   2    2408     767   1
  -5   4   2     197     436   1
  -4   4   2   35787    1388   1
  -3   4   2  212743    5115   1
  -2   4   2  189347    3615   1
  -1   4   2  157803    3187   1
   0   4   2   40072    1190   1
   1   4   2   18643     543   1
   2   4   2   12588     425   1
   3   4   2    6662     658   1
   4   4   2   11592     589   1
   5   4   2   27626     951   1
   6   4   2    6009     579   1
   7   4   2   20786    1066   1
   8   4   2     742     630   1
   9   4   2     498     702   1
  10   4   2     922    1232   1
  11   4   2    -844    1493   1
 -11   5   2     357    1423   1
 -10   5   2   10304    2052   1
  -9   5   2   -1555    1072   1
  -8   5   2    -848    1124   1
  -7   5   2   16895    1646   1
  -6   5   2    1174     622   1
  -5   5   2    1929     552   1
  -4   5   2    8539     719   1
  -3   5   2    1014     357   1
  -2   5   2    2111     311   1
  -1   5   2   15701     487   1
   0   5   2    1824     217   1
   1   5   2    -454     779   1
   2   5   2   13075     438   1
   3   5   2   18388     603   1
   4   5   2    3737     818   1
   5   5   2    2324     447   1
   6   5   2   26366    1016   1
   7   5   2    -421     431   1
   8   5   2     214     568   1
   9   5   2       3     885   1
  10   5   2    -355    1107   1
  11   5   2    5064    2207   1
 -10   6   2    -361    1237   1
  -9   6   2    2385    1655   1
  -8   6   2    2422    1170   1
  -7   6   2   13410    1600   1
  -6   6   2     736     597   1
  -5   6   2   15651    1062   1
  -4   6   2   29141    1315   1
  -3   6   2  240772    5002   1
  -2   6   2  156522    3321   1
  -1   6   2    6155     331   1
   0   6   2     193     179   1
   1   6   2  144545    5247   1
   2   6   2   44700    2212   1
   3   6   2   62389    1425   1
   4   6   2   35796    1165   1
   5   6   2    -340     290   1
   6   6   2     -69     380   1
   7   6   2    1371     489   1
   8   6   2     223     592   1
   9   6   2    1719    1011   1
  10   6   2     221    1169   1
  11   6   2     130    1558   1
 -10   7   2    4739    2337   1
  -9   7   2    1259    1276   1
  -8   7   2    9984    1980   1
  -7   7   2    7997    1298   1
  -6   7   2   36911    1652   1
  -5   7   2   12165     891   1
  -4   7   2    5807     629   1
  -3   7   2    9095     662   1
  -2   7   2    2219     371   1
  -1   7   2   19431     610   1
   0   7   2   17881    1274   1
   1   7   2    6839     954   1
   2   7   2   25722    1523   1
   3   7   2   60218    1683   1
   4   7   2   17826     724   1
  -5  -7  -2   45501    1250  -2
   5   7   2   45501    1250   1
  -6  -7  -2    9477     667  -2
   6   7   2    9477     667   1
  -7  -7  -2   11197    1023  -2
   7   7   2   11197    1023   1
  -8  -7  -2    3801    1133  -2
   8   7   2    3801    1133   1
  -9  -7  -2   -1157    1948  -2
   9   7   2   -1157    1948   1
 -10  -7  -2    -815    1526  -2
  10   7   2    -815    1526   1
  -9   8   2    1169    1948   1
  -8   8   2    1522    1419   1
  -7   8   2    3428     974   1
  -6   8   2     616     648   1
  -5   8   2    3117     826   1
  -4   8   2   12859     885   1
  -3   8   2   15928     936   1
  -2   8   2  136185    3024   1
  -1   8   2    1724     298   1
   0   8   2   19652    1487   1
   1   8   2    3005     822   1
   2   8   2   17869    2774   1
   3   8   2   70942    2800   1
   4   8   2    3530     523   1
   5   8   2    2657     397   1
   6   8   2     857     537   1
   7   8   2    -573     940   1
   8   8   2    -321     665   1
   9   8   2     146    1753   1
  10   8   2    -149    1331   1
  -9   9   2    4544    2207   1
  -8   9   2    3376    2013   1
  -7   9   2     -15     926   1
  -6   9   2    7694    1138   1
   5  -9  -3    1448     692  -2
  -5   9   2    1448     692   1
   4  -9  -3   17419    1244  -2
  -4   9   2   17419    1244   1
   3  -9  -3    3828     619  -2
  -3   9   2    3828     619   1
   2  -9  -3     824     349  -2
  -2   9   2     824     349   1
   1  -9  -3     419     261  -2
  -1   9   2     419     261   1
   0  -9  -3    7344    1059  -2
   0   9   2    7344    1059   1
  -1  -9  -3   15964    2597  -2
   1   9   2   15964    2597   1
  -2  -9  -3   14586    1434  -2
   2   9   2   14586    1434   1
  -3  -9  -3   18673    1628  -2
   3   9   2   18673    1628   1
  -4  -9  -3    9118    1122  -2
   4   9   2    9118    1122   1
  -5  -9  -3   24612     961  -2
   5   9   2   24612     961   1
  -6  -9  -3     916     741  -2
   6   9   2     916     741   1
  -7  -9  -3    7128     908  -2
   7   9   2    7128     908   1
  -8  -9  -3     638    1135  -2
   8   9   2     638    1135   1
  -9  -9  -3    5720    1192  -2
   9   9   2    5720    1192   1
  -8  10   2    -130    1883   1
  -7  10   2    6054    2467   1
  -6  10   2    1612    1042   1
  -5  10   2    3784     906   1
  -4  10   2    1203     724   1
  -3  10   2  153501    4289   1
  -2  10   2   45880    1380   1
  -1  10   2    9728     775   1
   0  10   2   30782    1930   1
   1  10   2   25663    3343   1
   2  10   2   10086    1293   1
   3  10   2    5811    1370   1
   4  10   2     425    1072   1
   5  10   2      86     543   1
   6  10   2     577     478   1
   7  10   2     359     680   1
   8  10   2     440     790   1
   9  10   2     326     924   1
   7 -11  -4    1868    1818  -2
  -7  11   2    1868    1818   1
   6 -11  -4    3473    1331  -2
  -6  11   2    3473    1331   1
   5 -11  -4     651     767  -2
  -5  11   2     651     767   1
   4 -11  -4     473     663  -2
  -4  11   2     473     663   1
   3 -11  -4     -18     569  -2
  -3  11   2     -18     569   1
   2 -11  -4    1034     543  -2
  -2  11   2    1034     543   1
   1 -11  -4     593     759  -2
  -1  11   2     593     759   1
   0 -11  -4    9141     787  -2
   0  11   2    9141     787   1
  -1 -11  -4     546    1043  -2
   1  11   2     546    1043   1
  -2 -11  -4    7210    1606  -2
   2  11   2    7210    1606   1
  -3 -11  -4   19996    3700  -2
   3  11   2   19996    3700   1
   5  11   2    2272     776   1
   6  11   2    1893     887   1
   7  11   2    1648    1032   1
   8  11   2    2421    1051   1
  -6  12   2    1506    1396   1
  -5  12   2    2020     999   1
  -4  12   2    2768    1219   1
  -3  12   2    2088     825   1
  -2  12   2    -479     499   1
  -1  12   2    1130     708   1
   0  12   2    1054     589   1
   5  12   2    -170     664   1
   6  12   2     421     802   1
   7  12   2     974    1010   1
  -5  13   2   -1323    1104   1
  -4  13   2    1008     905   1
  -3  13   2     219     710   1
  -2  13   2    -328     858   1
  -1  13   2    1502     841   1
   0  13   2    -325     779   1
   5  13   2    2873     822   1
   6  13   2     810     869   1
  -3  14   2    1006    1148   1
  -2  14   2    1281    1558   1
  -1  14   2     130     872   1
   0  14   2     584     756   1
  -4 -13   3    1363    1558   1
  -3 -13   3    1104    1428   1
  -2 -13   3   -1039    1233   1
  -1 -13   3    -454    1428   1
   0 -13   3    4869    1818   1
   1 -13   3    1754     858   1
   2 -13   3     443    1233   1
   3 -13   3    1158    1091   1
  -6 -12   3    1169    1623   1
  -5 -12   3   -1039    1428   1
  -4 -12   3    8115    2013   1
  -3 -12   3   -1655    1104   1
  -2 -12   3    3960    1623   1
  -1 -12   3    -584    1233   1
   0 -12   3    1239     735   1
   1 -12   3     236    1104   1
   2 -12   3     -48    1331   1
   3 -12   3    -729     982   1
   4 -12   3   -1635    1090   1
   5 -12   3    5093    1599   1
  -7 -11   3     445     935   1
  -6 -11   3    3668    1057   1
  -5 -11   3     649     756   1
  -4 -11   3    7086    2142   1
   3  11   9     557     876  -2
  -3 -11   3     557     876   1
   2  11   9    3127     756  -2
  -2 -11   3    3127     756   1
   1  11   9     880     876  -2
  -1 -11   3     880     876   1
   0  11   9      45     610  -2
   0 -11   3      45     610   1
  -1  11   9    2556     795  -2
   1 -11   3    2556     795   1
  -2  11   9   11360    1259  -2
   2 -11   3   11360    1259   1
  -3  11   9    4038    1154  -2
   3 -11   3    4038    1154   1
  -4  11   9    1336    1022  -2
   4 -11   3    1336    1022   1
  -5  11   9    1127    1068  -2
   5 -11   3    1127    1068   1
  -6  11   9    3764    1571  -2
   6 -11   3    3764    1571   1
  -8 -10   3    1252    1185   1
  -7 -10   3    1578    1042   1
  -6 -10   3    3269    1331   1
  -5 -10   3    -594     732   1
  -4 -10   3    3647     904   1
  -3 -10   3   12369    2272   1
  -2 -10   3    2220     540   1
  -1 -10   3    5325     648   1
   0 -10   3    3816     724   1
   1 -10   3   28587    1782   1
   2 -10   3   32950    2365   1
   3 -10   3   66485    3334   1
   4 -10   3      54    1288   1
   5 -10   3   22130    2112   1
   6 -10   3    5635    1789   1
   7 -10   3    2727    2013   1
   9   9   8     105    1150  -2
  -9  -9   3     105    1150   1
   8   9   8     863    1129  -2
  -8  -9   3     863    1129   1
   7   9   8    9032    2013  -2
  -7  -9   3    9032    2013   1
   6   9   8    1892    1201  -2
  -6  -9   3    1892    1201   1
   5   9   8    2400    1688  -2
  -5  -9   3    2400    1688   1
   4   9   8    9155    2118  -2
  -4  -9   3    9155    2118   1
   3   9   8    1308     517  -2
  -3  -9   3    1308     517   1
   2   9   8    1405     405  -2
  -2  -9   3    1405     405   1
   1   9   8   16571     838  -2
  -1  -9   3   16571     838   1
   0   9   8    3905     500  -2
   0  -9   3    3905     500   1
  -1   9   8    5853     590  -2
   1  -9   3    5853     590   1
  -2   9   8    2979    1023  -2
   2  -9   3    2979    1023   1
  -3   9   8    7927    1185  -2
   3  -9   3    7927    1185   1
  -4   9   8    3124    1049  -2
   4  -9   3    3124    1049   1
  -5   9   8    5564    1185  -2
   5  -9   3    5564    1185   1
   6  -9   3    7312    1399   1
   7  -9   3    2402    1469   1
   8  -9   3     958    1450   1
  -9  -8   3     645    1225   1
  -8  -8   3    -612     842   1
  -7  -8   3    3281     959   1
  -6  -8   3    3760    1104   1
  -5  -8   3     175     946   1
  -4  -8   3    5725     585   1
  -3  -8   3   10148     666   1
  -2  -8   3   18258     823   1
  -1  -8   3    4308     477   1
   0  -8   3   34743    1142   1
   1  -8   3    3124     673   1
   2  -8   3   65739    1886   1
   3  -8   3     331     517   1
   4  -8   3   67486    2733   1
   5  -8   3     911     759   1
   6  -8   3   17454    1910   1
   7  -8   3    1282    1011   1
   8  -8   3    3597    2272   1
   9  -8   3   -1753    1558   1
  10   7   7    1099    1333  -2
 -10  -7   3    1099    1333   1
   9   7   7    1092    1237  -2
  -9  -7   3    1092    1237   1
   8   7   7    2563    1011  -2
  -8  -7   3    2563    1011   1
   7   7   7    2063     895  -2
  -7  -7   3    2063     895   1
   6   7   7    3624     881  -2
  -6  -7   3    3624     881   1
   5   7   7    4796     598  -2
  -5  -7   3    4796     598   1
  -4  -7   3   24660     973   1
  -3  -7   3   10507     699   1
  -2  -7   3   16779     730   1
  -1  -7   3    6928     508   1
   0  -7   3     609     318   1
   1  -7   3    8766     599   1
   2  -7   3     645     432   1
   3  -7   3    2849     833   1
   4  -7   3    5810     900   1
   5  -7   3   79917    2888   1
   6  -7   3     653     770   1
   7  -7   3    8627    1272   1
   8  -7   3     355     978   1
   9  -7   3    5476    1872   1
 -10  -6   3      35    1225   1
  -9  -6   3    3165    1435   1
  -8  -6   3     240     847   1
  -7  -6   3    -265     513   1
  -6  -6   3   10023     820   1
  -5  -6   3   16495    1269   1
  -4  -6   3    2830     443   1
  -3  -6   3   17340     970   1
  -2  -6   3   52033    1512   1
  -1  -6   3    3132     620   1
   0  -6   3   55869    1372   1
   1  -6   3    5705     523   1
   2  -6   3   37683    1327   1
   3  -6   3   35474    2647   1
   4  -6   3   16176    1068   1
   5  -6   3   46164    2217   1
   6  -6   3   19282    1560   1
   7  -6   3    3193     908   1
   8  -6   3     207     947   1
   9  -6   3   -1223     997   1
  10  -6   3    -373    1322   1
 -11  -5   3    1493    1883   1
 -10  -5   3     909    1688   1
  -9  -5   3     584    1655   1
  -8  -5   3   11485    2474   1
  -7  -5   3   13050     998   1
  -6  -5   3   10888     846   1
  -5  -5   3     326     413   1
  -4  -5   3   38745    1304   1
  -3  -5   3   19035     762   1
  -2  -5   3   14759     632   1
  -1  -5   3   19311     722   1
   0  -5   3    7456     474   1
   1  -5   3   26885     862   1
   2  -5   3     190     381   1
   3  -5   3   10641     790   1
   4  -5   3    6485     713   1
   5  -5   3   49540    2119   1
   6  -5   3    1236     735   1
   7  -5   3      44     797   1
   8  -5   3    6577    1579   1
   9  -5   3    6252    1697   1
  10  -5   3    4208    1653   1
 -11  -4   3    -260    1688   1
 -10  -4   3     454    1493   1
  -9  -4   3    1621    1010   1
  -8  -4   3    1581     758   1
  -7  -4   3    1829     556   1
  -6  -4   3    7492     676   1
  -5  -4   3    -367     472   1
  -4  -4   3  250983    5425   1
  -3  -4   3  140235    2957   1
  -2  -4   3    5374     588   1
  -1  -4   3  264248    5925   1
   0  -4   3    1125     525   1
   1  -4   3  548525    8966   1
   2  -4   3  190092    4330   1
   3  -4   3    3958     638   1
   4  -4   3   22943    1259   1
   5  -4   3     931     801   1
   6  -4   3   14036    1518   1
   7  -4   3     708     839   1
   8  -4   3     369    1720   1
   9  -4   3    5038    3830   1
 -10   4   5     419    1216  -2
  10  -4   3     419    1216   1
 -11  -3   3   -1493    1558   1
 -10  -3   3    3563    1445   1
  -9  -3   3    2986    1088   1
  -8  -3   3    3809     846   1
  -7  -3   3     715     523   1
  -6  -3   3     700     471   1
  -5  -3   3   35231    1334   1
  -4  -3   3   43025    1337   1
  -3  -3   3    4055     449   1
  -2  -3   3   66405    1459   1
  -1  -3   3    4198     310   1
   0  -3   3  138534    2494   1
   1  -3   3   43478    1014   1
   2  -3   3   35275    1226   1
   3  -3   3   48541    1457   1
   4  -3   3   33080    1451   1
   5  -3   3    7454     883   1
   6  -3   3   85956    4057   1
   7  -3   3    4329    1056   1
   8  -3   3     682    1056   1
   9  -3   3   -1046    1180   1
  10  -3   3    2699    1441   1
  11  -3   3    -794    2045   1
 -11  -2   3   -1558    1558   1
 -10  -2   3    3993    1515   1
  -9  -2   3    4068    1571   1
  -8  -2   3    2395     819   1
  -7  -2   3     675     561   1
  -6  -2   3    8256     931   1
  -5  -2   3  133732    3124   1
  -4  -2   3  526015   10908   1
  -3  -2   3   25268    1405   1
  -2  -2   3  101968    4179   1
  -1  -2   3    1446     255   1
   0  -2   3  284153    4411   1
   1  -2   3    1786     309   1
  -2   2   4   31673     962  -2
   2  -2   3   31673     962   1
  -3   2   4   51621    2552  -2
   3  -2   3   51621    2552   1
  -4   2   4  113445    2809  -2
   4  -2   3  113445    2809   1
  -5   2   4   68501    2189  -2
   5  -2   3   68501    2189   1
  -6   2   4    -343     495  -2
   6  -2   3    -343     495   1
  -7   2   4   12498    1331  -2
   7  -2   3   12498    1331   1
  -8   2   4     813     860  -2
   8  -2   3     813     860   1
  -9   2   4    1600    1025  -2
   9  -2   3    1600    1025   1
 -10   2   4    -343     916  -2
  10  -2   3    -343     916   1
 -11   2   4    -737    2240  -2
  11  -2   3    -737    2240   1
 -11  -1   3     689    1400   1
 -10  -1   3    1284    1257   1
  -9  -1   3     202     980   1
  -8  -1   3     202     716   1
  -7  -1   3    -134     590   1
  -6  -1   3    1451     533   1
  -5  -1   3    -119     411   1
  -4  -1   3   24583    1075   1
  -3  -1   3  219316    4350   1
  -2  -1   3  121083    2500   1
  -1  -1   3    1762     266   1
   0  -1   3      39     190   1
   1  -1   3   93220    1985   1
   2  -1   3    7710     486   1
   3  -1   3   60485    1496   1
   4  -1   3  190445    3740   1
   5  -1   3    4600     546   1
   6  -1   3     533     417   1
   7  -1   3   38967    1619   1
   8  -1   3   -1013     985   1
   9  -1   3   49042    2827   1
  10  -1   3    7338    1353   1
  11  -1   3    4439    1671   1
 -11   0   3    -387    1331   1
 -10   0   3    3631    2370   1
  -9   0   3     -71    1428   1
   8   0   3   10000    1396  -2
  -8   0   3   10000    1396   1
   7   0   3   30161    1663  -2
  -7   0   3   30161    1663   1
   6   0   3   18126    1204  -2
  -6   0   3   18126    1204   1
   5   0   3   55914    2279  -2
  -5   0   3   55914    2279   1
   4   0   3   10873     575  -2
  -4   0   3   10873     575   1
   3   0   3     467     340  -2
  -3   0   3     467     340   1
   2   0   3 1582641   28361  -2
  -2   0   3 1582641   28361   1
   1   0   3  369016    6932  -2
  -1   0   3  369016    6932   1
   0   0   3  258199    4599  -2
   0   0   3  258199    4599   1
  -1   0   3  578958   12995  -2
   1   0   3  578958   12995   1
  -2   0   3  515256   11709  -2
   2   0   3  515256   11709   1
  -3   0   3    2747     385  -2
   3   0   3    2747     385   1
  -4   0   3   35652    1131  -2
   4   0   3   35652    1131   1
  -5   0   3   25823    1095  -2
   5   0   3   25823    1095   1
  -6   0   3   12477     843  -2
   6   0   3   12477     843   1
  -7   0   3    9388     815  -2
   7   0   3    9388     815   1
  -8   0   3    4893     895  -2
   8   0   3    4893     895   1
   9   0   3     583     808   1
  10   0   3   12485    1590   1
  11   0   3     669    1283   1
 -11   1   3     283    1229   1
 -10   1   3    -853    2337   1
  -9   1   3    -148    1363   1
  -8   1   3     461     812   1
  -7   1   3    -433     582   1
  -6   1   3   20529    1190   1
  -5   1   3  121028    3297   1
  -4   1   3    -361     267   1
  -3   1   3    3961     372   1
  -2   1   3  574757   10950   1
  -1   1   3   83264    1939   1
   0   1   3   12616     491   1
   1   1   3    2840     271   1
   2   1   3      37     221   1
   3   1   3   50143    1179   1
   4   1   3   15550     728   1
   5   1   3   78656    1965   1
   6   1   3    2789     500   1
   7   1   3    1734     558   1
   8   1   3   12159    1149   1
   9   1   3    3397    1337   1
  10   1   3   10447    1507   1
  11   1   3    2821    1507   1
  11  -2   2    -195    1233  -2
 -11   2   3    -195    1233   1
  10  -2   2    2252    1329  -2
 -10   2   3    2252    1329   1
   9  -2   2     909    1428  -2
  -9   2   3     909    1428   1
   8  -2   2    6114    1377  -2
  -8   2   3    6114    1377   1
   7  -2   2    3423    1038  -2
  -7   2   3    3423    1038   1
   6  -2   2    1408     485  -2
  -6   2   3    1408     485   1
   5  -2   2  114255    2871  -2
  -5   2   3  114255    2871   1
   4  -2   2    4220     414  -2
  -4   2   3    4220     414   1
   3  -2   2  114001   12673  -2
  -3   2   3  114001   12673   1
   2  -2   2   65277    1518  -2
  -2   2   3   65277    1518   1
   1  -2   2  150907    3582  -2
  -1   2   3  150907    3582   1
   0   2   3  552542   10459   1
   1   2   3     262     349   1
   2   2   3  283974    5949   1
   3   2   3    -183     281   1
   4   2   3  124840    2597   1
   5   2   3  147033    3309   1
   6   2   3   15179     866   1
   7   2   3    9345     836   1
   8   2   3    -557     540   1
   9   2   3    1176     735   1
  10   2   3    5831    1206   1
  11   2   3     776    1980   1
 -11   3   3    -637    2499   1
 -10   3   3    1505    1276   1
  -9   3   3     798    1124   1
  -8   3   3    8049    1629   1
  -7   3   3     427     638   1
  -6   3   3    5476     734   1
  -5   3   3    3291     532   1
  -4   3   3  124533    3016   1
  -3   3   3   19112     797   1
  -2   3   3   27158     779   1
  -1   3   3      15     182   1
   0   3   3      94     187   1
   1   3   3    1159     231   1
   2   3   3     121     214   1
   3   3   3   44531    1503   1
   4   3   3   11671     684   1
   5   3   3   29103    1688   1
   6   3   3   12835     798   1
   7   3   3   10696     808   1
   8   3   3      71     623   1
   9   3   3   23484    1568   1
  10   3   3    4356    2564   1
  11   3   3    4480    2207   1
  11  -4   1    -289    1247  -2
 -11   4   3    -289    1247   1
  10  -4   1    1283    1283  -2
 -10   4   3    1283    1283   1
  -9   4   3    2892    3181   1
  -8   4   3    -130     918   1
  -7   4   3    5916    1287   1
  -6   4   3    4190     701   1
  -5   4   3   16822     983   1
  -4   4   3   34796    1558   1
  -3   4   3  334553    7827   1
  -2   4   3   42367    1344   1
  -1   4   3    4725     315   1
   0   4   3   10123     446   1
   1   4   3    1006     193   1
   2   4   3  160985    3158   1
   3   4   3     265     236   1
   4   4   3   22235     884   1
   5   4   3     -65     334   1
   6   4   3    3755     502   1
   7   4   3   25029    1524   1
   8   4   3    3257     685   1
   9   4   3     494     859   1
  10   4   3    9576    1880   1
  11   4   3   -1948    1298   1
 -11   5   3     837    1526   1
 -10   5   3   19173    4837   1
  -9   5   3   -1410     940   1
  -8   5   3   15033    2112   1
  -7   5   3    3359     980   1
  -6   5   3   16039    1697   1
  -5   5   3    1116     487   1
  -4   5   3   37283    1493   1
  -3   5   3    9964     669   1
  -2   5   3    2279     339   1
  -1   5   3     642     199   1
   0   5   3   19598     533   1
   1   5   3   42599    1005   1
   2   5   3     445     202   1
   3   5   3  178352    3520   1
   4   5   3    8131     956   1
   5   5   3   26224    1061   1
   6   5   3      79     376   1
   7   5   3    1720     506   1
   8   5   3     875     564   1
   9   5   3    1841     830   1
  10   5   3     426    1558   1
  11   5   3       0    1623   1
 -10   6   3   11735    2207   1
  -9   6   3    7432    1721   1
  -8   6   3    3101    1655   1
  -7   6   3      95     972   1
  -6   6   3     807     622   1
  -5   6   3    -225     452   1
  -4   6   3     -96     411   1
  -3   6   3   16990     849   1
  -2   6   3   58293    1394   1
  -1   6   3   17088     595   1
   0   6   3    4324     471   1
   1   6   3  127229    3441   1
   2   6   3  227494    5484   1
   3   6   3   25780     717   1
   4   6   3    -249     285   1
   5   6   3    -285     324   1
   6   6   3    -186     388   1
   7   6   3    5743     738   1
   8   6   3    1127     652   1
   9   6   3      -4     877   1
  10   6   3    2618    1373   1
  11   6   3   -2142    1428   1
 -10   7   3    2662    2142   1
  -9   7   3    8357    1802   1
  -8   7   3    3232    2467   1
  -7   7   3    -511     829   1
  -6   7   3    1572     734   1
  -5   7   3   12144     886   1
  -4   7   3    2444     510   1
  -3   7   3    9278     664   1
  -2   7   3     612     402   1
  -1   7   3     370     241   1
   0   7   3     718     261   1
   1   7   3   29856    1898   1
   2   7   3    2581     710   1
   3   7   3    4729     396   1
   4   7   3   27604     895   1
  -5  -7  -1    3219     450  -2
   5   7   3    3219     450   1
  -6  -7  -1     904     602  -2
   6   7   3     904     602   1
  -7  -7  -1    -592     721  -2
   7   7   3    -592     721   1
  -8  -7  -1   10365    1167  -2
   8   7   3   10365    1167   1
  -9  -7  -1    3110    1293  -2
   9   7   3    3110    1293   1
 -10  -7  -1    2667    1432  -2
  10   7   3    2667    1432   1
  -9   8   3     714    1753   1
  -8   8   3     454    1623   1
  -7   8   3    -293     751   1
  -6   8   3     706     663   1
  -5   8   3   70692    2345   1
  -4   8   3  103614    2631   1
  -3   8   3     379     360   1
  -2   8   3  242028    5008   1
  -1   8   3    5842     441   1
   0   8   3   98075    2943   1
   1   8   3   21015    1893   1
   2   8   3      83     571   1
   3   8   3   20386    1626   1
   4   8   3    -266     233   1
   5   8   3    9704     649   1
   6   8   3    2383     541   1
   7   8   3   -1279    1348   1
   8   8   3    1526     772   1
   9   8   3    2563    1655   1
  10   8   3    -881    1212   1
  -9   9   3    -130    1753   1
  -8   9   3    8440    2532   1
  -7   9   3     512     974   1
  -6   9   3     567     735   1
   5  -9  -2    4098     854  -2
  -5   9   3    4098     854   1
   4  -9  -2   18710    1147  -2
  -4   9   3   18710    1147   1
   3  -9  -2   10862     819  -2
  -3   9   3   10862     819   1
   2  -9  -2    1421     372  -2
  -2   9   3    1421     372   1
   1  -9  -2    1179     295  -2
  -1   9   3    1179     295   1
   0  -9  -2     940     661  -2
   0   9   3     940     661   1
  -1  -9  -2   25644    2341  -2
   1   9   3   25644    2341   1
  -2  -9  -2   45456    3198  -2
   2   9   3   45456    3198   1
  -3  -9  -2    6648    1111  -2
   3   9   3    6648    1111   1
  -4  -9  -2    5811     725  -2
   4   9   3    5811     725   1
  -5  -9  -2   23411    1043  -2
   5   9   3   23411    1043   1
  -6  -9  -2    -552     536  -2
   6   9   3    -552     536   1
  -7  -9  -2    5643     858  -2
   7   9   3    5643     858   1
  -8  -9  -2     441     790  -2
   8   9   3     441     790   1
  -9  -9  -2    8468    1352  -2
   9   9   3    8468    1352   1
  -8  10   3     454    1883   1
  -7  10   3    1577    1322   1
  -6  10   3    2521    1091   1
  -5  10   3    2137     846   1
  -4  10   3    1935     949   1
  -3  10   3   23456    1383   1
  -2  10   3   40654    1667   1
  -1  10   3     -48     253   1
   0  10   3    3913    1003   1
   1  10   3   20449    3538   1
   2  10   3    -161     895   1
   3  10   3     825     792   1
   4  10   3    2300     971   1
   5  10   3   14424    1377   1
   6  10   3     276     474   1
   7  10   3     373     691   1
   8  10   3     711     840   1
   9  10   3    -133    1179   1
   7 -11  -3    7011    1737  -2
  -7  11   3    7011    1737   1
   6 -11  -3    1536    1170  -2
  -6  11   3    1536    1170   1
   5 -11  -3    5378     976  -2
  -5  11   3    5378     976   1
   4 -11  -3    2171     775  -2
  -4  11   3    2171     775   1
   3 -11  -3    -379     521  -2
  -3  11   3    -379     521   1
   2 -11  -3      21     491  -2
  -2  11   3      21     491   1
   1 -11  -3    3013     621  -2
  -1  11   3    3013     621   1
   0 -11  -3      49     437  -2
   0  11   3      49     437   1
  -1 -11  -3   20913    2921  -2
   1  11   3   20913    2921   1
  -2 -11  -3    2759    1655  -2
   2  11   3    2759    1655   1
  -3 -11  -3    4829    1507  -2
   3  11   3    4829    1507   1
   4  11   3    -178    1118   1
   5  11   3    -245    1071   1
   6  11   3    3909    1032   1
   7  11   3    1611     961   1
   8  11   3    6377    1457   1
  -6  12   3     523    2013   1
  -5  12   3     609     940   1
  -4  12   3     873     776   1
  -3  12   3    3847     960   1
  -2  12   3    7333     861   1
  -1  12   3    9723    1016   1
   0  12   3    7018     782   1
   1  12   3    -325    1753   1
   2  12   3    3960    2207   1
   5  12   3     -60     618   1
   6  12   3    4594    1032   1
   7  12   3    1973    1053   1
  -5  13   3    -213    1785   1
  -4  13   3    1766     907   1
  -3  13   3     623     734   1
  -2  13   3    -390     872   1
  -1  13   3     -45     730   1
   0  13   3    -330     682   1
   5  13   3    2908     802   1
   6  13   3    -406     802   1
  -3  14   3    3096    1170   1
  -2  14   3   10652    1491   1
  -1  14   3     956     841   1
   0  14   3    9479    1148   1
  -2 -13   4    1493    1688   1
  -1 -13   4     909    1623   1
   0 -13   4     919     826   1
   1 -13   4    4059    1140   1
  -5 -12   4    -195    1558   1
  -4 -12   4     649    1493   1
  -3 -12   4    2272    1558   1
  -2 -12   4    2460    1233   1
  -1 -12   4    1799     816   1
   0 -12   4    4069    1011   1
   1 -12   4    4128    1165   1
   2 -12   4    1484    1091   1
   3 -12   4    2207    1688   1
   4 -12   4    4516    1544   1
  -6 -11   4     705     920   1
  -5 -11   4    2558     961   1
  -4 -11   4    5879    1107   1
   3  11  10    6431    1266  -2
  -3 -11   4    6431    1266   1
   2  11  10      24     708  -2
  -2 -11   4      24     708   1
   1  11  10    7415    1080  -2
  -1 -11   4    7415    1080   1
   0  11  10    2590    1042  -2
   0 -11   4    2590    1042   1
  -1  11  10    1172     795  -2
   1 -11   4    1172     795   1
  -2  11  10     530    1526  -2
   2 -11   4     530    1526   1
  -3  11  10     970    1137  -2
   3 -11   4     970    1137   1
  -4  11  10    5087    1320  -2
   4 -11   4    5087    1320   1
  -5  11  10    1546    1210  -2
   5 -11   4    1546    1210   1
  -7 -10   4      30     982   1
  -6 -10   4    -138     913   1
  -5 -10   4    -293    1104   1
  -4 -10   4     872     779   1
  -3 -10   4     978     764   1
  -2 -10   4     469     538   1
  -1 -10   4    -663     636   1
   0 -10   4    7440    1029   1
   1 -10   4    -462     920   1
   2 -10   4    3114     964   1
   3 -10   4    8099    1318   1
   4 -10   4    4298    1527   1
   5 -10   4     371    1018   1
   6 -10   4    1372    1326   1
   7 -10   4    -390    1948   1
   8   9   9    2054    1212  -2
  -8  -9   4    2054    1212   1
   7   9   9    3447    1216  -2
  -7  -9   4    3447    1216   1
   6   9   9    3466    1233  -2
  -6  -9   4    3466    1233   1
   5   9   9    1348     887  -2
  -5  -9   4    1348     887   1
   4   9   9    5685    1118  -2
  -4  -9   4    5685    1118   1
   3   9   9    9632    1040  -2
  -3  -9   4    9632    1040   1
   2   9   9    5338     818  -2
  -2  -9   4    5338     818   1
   1   9   9   17179    1082  -2
  -1  -9   4   17179    1082   1
   0   9   9    2095     755  -2
   0  -9   4    2095     755   1
  -1   9   9    9675    1387  -2
   1  -9   4    9675    1387   1
  -2   9   9    9760    1119  -2
   2  -9   4    9760    1119   1
  -3   9   9   10847    1199  -2
   3  -9   4   10847    1199   1
  -4   9   9    4126    1116  -2
   4  -9   4    4126    1116   1
  -5   9   9    1907    1008  -2
   5  -9   4    1907    1008   1
   6  -9   4    2513    1095   1
   7  -9   4    5748    1774   1
   8  -9   4    7920    2792   1
  -9  -8   4    1236    1310   1
  -8  -8   4     285    1152   1
  -7  -8   4    1735    1145   1
  -6  -8   4    2908    1099   1
  -5  -8   4    7066     962   1
  -4  -8   4    3696    1227   1
  -3  -8   4     330     382   1
  -2  -8   4    3517     519   1
  -1  -8   4     223     374   1
   0  -8   4   18033    1034   1
   1  -8   4    3137     512   1
   2  -8   4     981     493   1
   3  -8   4   38915    1922   1
   4  -8   4   63277    2661   1
   5  -8   4    1072     790   1
   6  -8   4    2219    1073   1
   7  -8   4     469    1183   1
   8  -8   4     164    1818   1
   9   7   8    2204    1441  -2
  -9  -7   4    2204    1441   1
   8   7   8    5118    1785  -2
  -8  -7   4    5118    1785   1
   7   7   8   10813    2759  -2
  -7  -7   4   10813    2759   1
   6   7   8     572     761  -2
  -6  -7   4     572     761   1
   5   7   8   20414    1267  -2
  -5  -7   4   20414    1267   1
  -4  -7   4   14828     846   1
  -3  -7   4    3000     511   1
  -2  -7   4   25561    1313   1
  -1  -7   4    1778     445   1
   0  -7   4   23465     946   1
   1  -7   4    1058     396   1
   2  -7   4    4948     534   1
   3  -7   4     228     505   1
   4  -7   4   25046    2018   1
   5  -7   4   18465    1515   1
   6  -7   4    3645     945   1
   7  -7   4    2027    1029   1
   8  -7   4    4255    2240   1
   9  -7   4    -874    1293   1
 -10  -6   4   -1818    1493   1
  -9  -6   4   -1044    1057   1
  -8  -6   4     443    1461   1
  -7  -6   4    1291     898   1
  -6  -6   4   15601    1156   1
  -5  -6   4   15618    1029   1
  -4  -6   4    -378     376   1
  -3  -6   4    -331     312   1
  -2  -6   4     155     348   1
  -1  -6   4  103848    2359   1
   0  -6   4   21047     852   1
   1  -6   4     -75     336   1
   2  -6   4   57140    1567   1
   3  -6   4   17066    1063   1
   4  -6   4   11107     943   1
   5  -6   4    1725     715   1
   6  -6   4     267     860   1
   7  -6   4    1226     948   1
   8  -6   4    -161     936   1
   9  -6   4    1866    1222   1
 -10  -5   4    -779    1428   1
  -9  -5   4    4273    1482   1
  -8  -5   4    4948    1445   1
  -7  -5   4    2589     650   1
  -6  -5   4   44769    1741   1
  -5  -5   4     592     455   1
  -4  -5   4    2380     476   1
  -3  -5   4   53927    1391   1
  -2  -5   4     499     302   1
  -1  -5   4   22401     828   1
   0  -5   4   36929    1071   1
   1  -5   4   48239    1273   1
   2  -5   4   15505     787   1
   3  -5   4    1840     515   1
   4  -5   4    2069     562   1
   5  -5   4    -781     532   1
   6  -5   4    1947     804   1
   7  -5   4    7799    1387   1
   8  -5   4     766    1145   1
   9  -5   4     227    1194   1
  10  -5   4    5184    1763   1
 -11  -4   4     390    1883   1
 -10  -4   4    1169    1818   1
  -9  -4   4   -1513    1009   1
  -8  -4   4    2730    1020   1
  -7  -4   4   16363    1147   1
  -6  -4   4   25540    1280   1
  -5  -4   4    2074     529   1
  -4  -4   4   49042    1519   1
  -3  -4   4   44551    1219   1
  -2  -4   4    4957     585   1
  -1  -4   4   25309    1963   1
   0  -4   4    5852    1039   1
   1  -4   4   50346    2409   1
   2  -4   4  152771    3317   1
   3  -4   4  113410    3583   1
   4  -4   4   27720    1420   1
   5  -4   4   89125    3131   1
   6  -4   4    3102     931   1
   7  -4   4     598     860   1
   8  -4   4     122    1007   1
   9  -4   4     980    1283   1
 -10   4   6    -390    1720  -2
  10  -4   4    -390    1720   1
 -11  -3   4    2207    1948   1
 -10  -3   4    4220    2077   1
  -9  -3   4    3810    1135   1
  -8  -3   4    1291     739   1
  -7  -3   4   14412    1080   1
  -6  -3   4    -199     448   1
  -5  -3   4   41438    1695   1
  -4  -3   4   27138    1272   1
  -3  -3   4     871     337   1
  -2  -3   4     532     304   1
  -1  -3   4   10035     506   1
   0  -3   4   24566     691   1
   1  -3   4   38725     986   1
   2  -3   4   24289     904   1
   3  -3   4    -451     337   1
   4  -3   4   26091    1209   1
   5  -3   4    2321     664   1
   6  -3   4   12582    1203   1
   7  -3   4   38656    2586   1
   8  -3   4   16174    1603   1
   9  -3   4     854    2207   1
  10  -3   4    5641    3765   1
  11  -3   4      41    1294   1
 -11  -2   4    2532    1883   1
 -10  -2   4     -38    1099   1
  -9  -2   4     346    1014   1
  -8  -2   4     747     736   1
  -7  -2   4     524     558   1
  -6  -2   4   13957     973   1
  -5  -2   4   19093    1066   1
  -4  -2   4 1046185   21167   1
  -3  -2   4    4813     607   1
  -2  -2   4   81065    1728   1
  -1  -2   4   47157    1361   1
   0  -2   4  343624    5881   1
   1  -2   4   22924     735   1
  -2   2   5  470337    9110  -2
   2  -2   4  470337    9110   1
  -3   2   5   54106    1571  -2
   3  -2   4   54106    1571   1
  -4   2   5  126888    3131  -2
   4  -2   4  126888    3131   1
  -5   2   5   16143    1200  -2
   5  -2   4   16143    1200   1
  -6   2   5    2994     632  -2
   6  -2   4    2994     632   1
  -7   2   5      79     576  -2
   7  -2   4      79     576   1
  -8   2   5   26241    1957  -2
   8  -2   4   26241    1957   1
  -9   2   5    3317    1089  -2
   9  -2   4    3317    1089   1
 -10   2   5    -277    1099  -2
  10  -2   4    -277    1099   1
 -11   2   5    -391    1263  -2
  11  -2   4    -391    1263   1
 -11  -1   4    1255    1368   1
 -10  -1   4     411    1199   1
  -9  -1   4   -1272     848   1
  -8  -1   4   23268    1685   1
  -7  -1   4    8123     990   1
  -6  -1   4     534     528   1
  -5  -1   4    -571     381   1
  -4  -1   4  140010    4183   1
  -3  -1   4   56985    1466   1
  -2  -1   4   31912     947   1
  -1  -1   4  160310    3024   1
   0  -1   4    3811     306   1
   1  -1   4   15997     495   1
   2  -1   4    1268     299   1
   3  -1   4     521     266   1
   4  -1   4    6055     520   1
   5  -1   4   10591     727   1
   6  -1   4     -19     399   1
   7  -1   4   24887    1290   1
   8  -1   4    2312     918   1
   9  -1   4   35701    2710   1
  10  -1   4    6506    4934   1
  11  -1   4    1366    1467   1
 -11   0   4     642    1329   1
 -10   0   4    3578    1419   1
  -9   0   4    1461    1194   1
   8   0   4    3647    1137  -2
  -8   0   4    3647    1137   1
   7   0   4    4599    1144  -2
  -7   0   4    4599    1144   1
   6   0   4    1273     602  -2
  -6   0   4    1273     602   1
   5   0   4   21141    1562  -2
  -5   0   4   21141    1562   1
   4   0   4   58033    1591  -2
  -4   0   4   58033    1591   1
   3   0   4  165264    3335  -2
  -3   0   4  165264    3335   1
   2   0   4  240646    4704  -2
  -2   0   4  240646    4704   1
   1   0   4   41331     976  -2
  -1   0   4   41331     976   1
   0   0   4  293141    5252  -2
   0   0   4  293141    5252   1
  -1   0   4  112875    3288  -2
   1   0   4  112875    3288   1
  -2   0   4  318892    6785  -2
   2   0   4  318892    6785   1
  -3   0   4  553341   12652  -2
   3   0   4  553341   12652   1
  -4   0   4  181563    4151  -2
   4   0   4  181563    4151   1
  -5   0   4   28306    1164  -2
   5   0   4   28306    1164   1
  -6   0   4    1167     508  -2
   6   0   4    1167     508   1
  -7   0   4   23721    1813  -2
   7   0   4   23721    1813   1
  -8   0   4    1926     779  -2
   8   0   4    1926     779   1
   9   0   4     -88     939   1
  10   0   4    5290    1251   1
  11   0   4     312    1262   1
 -11   1   4     938    1396   1
 -10   1   4    7604    1850   1
  -9   1   4    3006    1428   1
  -8   1   4    3992    1783   1
  -7   1   4   12035    1139   1
  -6   1   4   25105    1500   1
  -5   1   4   66928    2026   1
  -4   1   4   77270    1852   1
  -3   1   4   27016     930   1
  -2   1   4   17042     796   1
  -1   1   4    5038     356   1
   0   1   4   22954     665   1
   1   1   4   21754     707   1
   2   1   4   13064     575   1
   3   1   4   62163    1532   1
   4   1   4  289932    6334   1
   5   1   4   46973    1503   1
   6   1   4   11068    1089   1
   7   1   4   10562     936   1
   8   1   4   16607    1472   1
   9   1   4   26740    2961   1
  10   1   4     867     921   1
  11   1   4    2499    1423   1
  11  -2   3     263    2532  -2
 -11   2   4     263    2532   1
  10  -2   3     682    1170  -2
 -10   2   4     682    1170   1
   9  -2   3    2853    1293  -2
  -9   2   4    2853    1293   1
   8  -2   3     645     997  -2
  -8   2   4     645     997   1
   7  -2   3   18383    2986  -2
  -7   2   4   18383    2986   1
   6  -2   3     142     528  -2
  -6   2   4     142     528   1
   5  -2   3  119854    3315  -2
  -5   2   4  119854    3315   1
   4  -2   3   43202    1390  -2
  -4   2   4   43202    1390   1
   3  -2   3  106545    2397  -2
  -3   2   4  106545    2397   1
   2  -2   3    5480    1160  -2
  -2   2   4    5480    1160   1
  -1   2   4   14623     960   1
   1   2   4    8100     432   1
   2   2   4  188142    3896   1
   3   2   4   25800     907   1
   4   2   4  118428    3134   1
   5   2   4   73357    3416   1
   6   2   4   26042    1147   1
   7   2   4    4783     708   1
   8   2   4    1741     717   1
   9   2   4     901     764   1
  10   2   4    2242    1003   1
  11   2   4    3518    2467   1
 -11   3   4    1917    1441   1
 -10   3   4    3463    1491   1
  -9   3   4     238    2662   1
  -8   3   4   -1142     822   1
  -7   3   4    5061    1092   1
  -6   3   4   13624    1226   1
  -5   3   4   14417    1004   1
  -4   3   4    -375     470   1
  -3   3   4   62016    1864   1
  -2   3   4    6494     489   1
  -1   3   4    -144     245   1
   0   3   4    3459     298   1
   1   3   4   35142     873   1
   2   3   4    3227     298   1
   3   3   4    -281     249   1
   4   3   4     670     361   1
   5   3   4    5889     544   1
   6   3   4    3442     584   1
   7   3   4    1984     541   1
   8   3   4    -138     559   1
   9   3   4    2890     881   1
  10   3   4    1412     948   1
  11   3   4     909    1818   1
  11  -4   2    2662    1561  -2
 -11   4   4    2662    1561   1
  10  -4   2    3004    2370  -2
 -10   4   4    3004    2370   1
  -9   4   4    -138    1032   1
  -8   4   4    1822    1165   1
  -7   4   4    2185    1020   1
  -6   4   4    5189     896   1
  -5   4   4   17060    1002   1
  -4   4   4   87835    2336   1
  -3   4   4    7985     665   1
  -2   4   4   94156    2299   1
  -1   4   4   38300    1113   1
   0   4   4  795001   14143   1
   1   4   4    1262     248   1
   2   4   4  147460    2942   1
   3   4   4  113525    2553   1
   4   4   4    4676     533   1
   5   4   4   15122     859   1
   6   4   4    6006     619   1
   7   4   4    8886     761   1
   8   4   4    2650     689   1
   9   4   4    3228     834   1
  10   4   4   -1655    1104   1
  11   4   4     454    1688   1
 -10   5   4     215    1293   1
  -9   5   4     153    2240   1
  -8   5   4    3955    1349   1
  -7   5   4     660     833   1
  -6   5   4   16485    1338   1
  -5   5   4    1967     736   1
  -4   5   4    2223     474   1
  -3   5   4    7675     563   1
  -2   5   4   11821     631   1
  -1   5   4    1294     273   1
   0   5   4    5831     367   1
   1   5   4   24786     709   1
   2   5   4     900     239   1
   3   5   4    -271     227   1
   4   5   4   10017     712   1
   5   5   4    4212     508   1
   6   5   4    5895     677   1
   7   5   4    2863     583   1
   8   5   4    2802     681   1
   9   5   4    2229     867   1
  10   5   4   13133    2207   1
  11   5   4    7726    2532   1
 -10   6   4    -980    1216   1
  -9   6   4    2272    1285   1
  -8   6   4     373    1078   1
  -7   6   4    4453    1099   1
  -6   6   4   26240    1666   1
  -5   6   4    8521     866   1
  -4   6   4  229321    4853   1
  -3   6   4    -372     310   1
  -2   6   4   65236    1662   1
  -1   6   4  199106    3818   1
   0   6   4   34309     879   1
   1   6   4  249129    4455   1
   2   6   4  101264    2179   1
   3   6   4  151898    3120   1
   4   6   4   11360     651   1
   5   6   4    6391     574   1
   6   6   4    1569     502   1
   7   6   4    1205     673   1
   8   6   4    -391     673   1
   9   6   4    6907    1319   1
  10   6   4    3955    1513   1
  11   6   4   -1233    1558   1
 -10   7   4     649    2013   1
  -9   7   4    3598    1537   1
  -8   7   4   -1265     986   1
  -7   7   4   23663    2011   1
  -6   7   4    7199     952   1
  -5   7   4   45611    1604   1
  -4   7   4    2610     486   1
  -3   7   4   17852     898   1
  -2   7   4      46     294   1
  -1   7   4     939     283   1
   0   7   4     112     211   1
   1   7   4    4867     640   1
   2   7   4   57837    1372   1
   3   7   4   11428    5551   1
   4   7   4   49486    1321   1
  -5  -7   0   11807     705  -2
   5   7   4   11807     705   1
  -6  -7   0   29753    1535  -2
   6   7   4   29753    1535   1
  -7  -7   0   14100    1319  -2
   7   7   4   14100    1319   1
  -8  -7   0   29899    1842  -2
   8   7   4   29899    1842   1
  -9  -7   0    1019    1045  -2
   9   7   4    1019    1045   1
 -10  -7   0    3485    1435  -2
  10   7   4    3485    1435   1
  -9   8   4    -390    1753   1
  -8   8   4     844    1623   1
  -7   8   4    4999    1035   1
  -6   8   4    8407     988   1
  -5   8   4   65884    2244   1
  -4   8   4  150342    3277   1
  -3   8   4     429     386   1
  -2   8   4   77267    2135   1
  -1   8   4    9676     528   1
   0   8   4   95958    1921   1
   1   8   4   13311    1214   1
   2   8   4   26200    2151   1
   3   8   4     818     892   1
   4   8   4    5345     420   1
   5   8   4    2395     456   1
   6   8   4     924     536   1
   7   8   4   -1383     993   1
   8   8   4     735     741   1
   9   8   4      61    1072   1
  10   8   4    1665    1386   1
  -9   9   4    2402    2142   1
  -8   9   4     260    1688   1
  -7   9   4    6591    1607   1
  -6   9   4    3502    1024   1
   5  -9  -1    1194     688  -2
  -5   9   4    1194     688   1
   4  -9  -1    9058    1036  -2
  -4   9   4    9058    1036   1
   3  -9  -1    1848     646  -2
  -3   9   4    1848     646   1
   2  -9  -1    2308     415  -2
  -2   9   4    2308     415   1
   1  -9  -1    7014     471  -2
  -1   9   4    7014     471   1
   0  -9  -1    3371     373  -2
   0   9   4    3371     373   1
  -1  -9  -1   18643    1709  -2
   1   9   4   18643    1709   1
  -2  -9  -1   11984    1589  -2
   2   9   4   11984    1589   1
  -3  -9  -1    4087    1087  -2
   3   9   4    4087    1087   1
  -4  -9  -1    3927     747  -2
   4   9   4    3927     747   1
  -5  -9  -1   11171     760  -2
   5   9   4   11171     760   1
  -6  -9  -1   28501    1637  -2
   6   9   4   28501    1637   1
  -7  -9  -1    9205     991  -2
   7   9   4    9205     991   1
  -8  -9  -1    -640     690  -2
   8   9   4    -640     690   1
  -9  -9  -1   16929    2033  -2
   9   9   4   16929    2033   1
  -8  10   4     454    1818   1
  -7  10   4     153    1199   1
  -6  10   4   11148    1581   1
  -5  10   4   28039    1737   1
  -4  10   4    7210     941   1
  -3  10   4    -614     607   1
  -2  10   4    7830     687   1
  -1  10   4    2631     360   1
   0  10   4    7076     708   1
   1  10   4   70446    4191   1
   2  10   4   67027    4934   1
   3  10   4     996    1053   1
   4  10   4    -460     583   1
   5  10   4    1620    2207   1
   6  10   4    -831     868   1
   7  10   4     358     653   1
   8  10   4    -293     819   1
   9  10   4    -775    1107   1
   7 -11  -2    1474    1357  -2
  -7  11   4    1474    1357   1
   6 -11  -2    7305    1607  -2
  -6  11   4    7305    1607   1
   5 -11  -2    1018     808  -2
  -5  11   4    1018     808   1
   4 -11  -2     982     708  -2
  -4  11   4     982     708   1
   3 -11  -2     962     629  -2
  -3  11   4     962     629   1
   2 -11  -2     969     522  -2
  -2  11   4     969     522   1
   1 -11  -2     260     502  -2
  -1  11   4     260     502   1
   0 -11  -2    3187     548  -2
   0  11   4    3187     548   1
  -1 -11  -2    -182     920  -2
   1  11   4    -182     920   1
  -2 -11  -2   31283    2948  -2
   2  11   4   31283    2948   1
  -3 -11  -2   27442    2750  -2
   3  11   4   27442    2750   1
   4  11   4    5405     844   1
   5  11   4    1983     949   1
   6  11   4    1233     872   1
   7  11   4    3466    1191   1
   8  11   4    4491    1114   1
  -6  12   4    2128    1322   1
  -5  12   4   12353    1486   1
  -4  12   4   12604    1383   1
  -3  12   4     798     883   1
  -2  12   4   11453     963   1
  -1  12   4    7693     931   1
   0  12   4     999     759   1
   1  12   4     260    1753   1
   2  12   4    4739    2272   1
   5  12   4    3571    1233   1
   6  12   4     409     822   1
   7  12   4     974    1010   1
  -5  13   4    3690    1720   1
  -4  13   4    1675     992   1
  -3  13   4     200     691   1
  -2  13   4     106     869   1
  -1  13   4    1293    1980   1
   0  13   4    2530     710   1
   5  13   4    -364    1558   1
   6  13   4    3441    1039   1
  -3  14   4    1384    1655   1
  -2  14   4   -1272     848   1
  -1  14   4    -481    1980   1
   0  14   4    6269     986   1
   0  15   4     542     776   1
  -4 -12   5     282     934   1
  -3 -12   5    -817     941   1
  -2 -12   5    2166     982   1
  -1 -12   5     958     885   1
   0 -12   5    3195    1032   1
   1 -12   5    2572    1170   1
   2 -12   5    1483    1185   1
   3 -12   5    -554    1117   1
  -6 -11   5    3177    1461   1
  -5 -11   5     866     996   1
  -4 -11   5    3799    1057   1
   3  11  11      63    1071  -2
  -3 -11   5      63    1071   1
   2  11  11     758     656  -2
  -2 -11   5     758     656   1
   1  11  11    6699    1753  -2
  -1 -11   5    6699    1753   1
   0  11  11    -874     853  -2
   0 -11   5    -874     853   1
  -1  11  11    5258    1276  -2
   1 -11   5    5258    1276   1
  -2  11  11     121    1029  -2
   2 -11   5     121    1029   1
  -3  11  11     -97    1148  -2
   3 -11   5     -97    1148   1
  -4  11  11    2490    1432  -2
   4 -11   5    2490    1432   1
  -5  11  11    2533    1533  -2
   5 -11   5    2533    1533   1
  -7 -10   5     618    1123   1
  -6 -10   5    1077    1044   1
  -5 -10   5      11     920   1
  -4 -10   5     744     887   1
  -3 -10   5     707     858   1
  -2 -10   5    -195     698   1
  -1 -10   5   13959    1356   1
   0 -10   5    4869    1607   1
   1 -10   5   30499    1978   1
   2 -10   5   25240    2329   1
   3 -10   5   11432    1790   1
   4 -10   5     331     959   1
   5 -10   5    7585    1438   1
   6 -10   5   -1493    1623   1
   8   9  10    2052    1293  -2
  -8  -9   5    2052    1293   1
   7   9  10      17    1107  -2
  -7  -9   5      17    1107   1
   6   9  10    2157    1137  -2
  -6  -9   5    2157    1137   1
   5   9  10    1201    1591  -2
  -5  -9   5    1201    1591   1
   4   9  10    5554    2142  -2
  -4  -9   5    5554    2142   1
   3   9  10    1790     750  -2
  -3  -9   5    1790     750   1
   2   9  10   11618    1332  -2
  -2  -9   5   11618    1332   1
   1   9  10     162     946  -2
  -1  -9   5     162     946   1
   0   9  10    1423     721  -2
   0  -9   5    1423     721   1
  -1   9  10     844     723  -2
   1  -9   5     844     723   1
  -2   9  10    3048     895  -2
   2  -9   5    3048     895   1
  -3   9  10   18241    2085  -2
   3  -9   5   18241    2085   1
  -4   9  10     489     912  -2
   4  -9   5     489     912   1
  -5   9  10    -498     959  -2
   5  -9   5    -498     959   1
   6  -9   5    2460    1120   1
   7  -9   5   -1233    1558   1
  -8  -8   5    5300    1496   1
  -7  -8   5     446    1076   1
  -6  -8   5     -21     986   1
  -5  -8   5     723     844   1
  -4  -8   5     636     694   1
  -3  -8   5    4368     706   1
  -2  -8   5    1866     457   1
  -1  -8   5   15416     987   1
   0  -8   5    2642     518   1
   1  -8   5   17904     930   1
   2  -8   5     498     534   1
   3  -8   5    -142     554   1
   4  -8   5    2586     845   1
   5  -8   5    2320    1034   1
   6  -8   5     402     946   1
   7  -8   5    1932    1428   1
   8  -8   5   -1753    1558   1
   9   7   9     374    1428  -2
  -9  -7   5     374    1428   1
   8   7   9   11718    1901  -2
  -8  -7   5   11718    1901   1
   7   7   9     844    1072  -2
  -7  -7   5     844    1072   1
   6   7   9   12851    1697  -2
  -6  -7   5   12851    1697   1
   5   7   9   10466    1046  -2
  -5  -7   5   10466    1046   1
  -4  -7   5    6544     751   1
  -3  -7   5    4798     607   1
  -2  -7   5    5564    1235   1
  -1  -7   5     319     387   1
   0  -7   5    4382     521   1
   1  -7   5    4811     542   1
   2  -7   5    9889     733   1
   3  -7   5    8333     736   1
   4  -7   5    1642     730   1
   5  -7   5    2883     861   1
   6  -7   5    7974    1431   1
   7  -7   5    1982    1028   1
   8  -7   5    2077    2207   1
   9  -7   5    4674    2532   1
 -10  -6   5   -2142    1558   1
  -9  -6   5     353    1294   1
  -8  -6   5     160    1183   1
  -7  -6   5      49    1007   1
  -6  -6   5    7112     892   1
  -5  -6   5    1265     525   1
  -4  -6   5     604     447   1
  -3  -6   5    4395     538   1
  -2  -6   5   26252    1081   1
  -1  -6   5    5138     528   1
   0  -6   5  160219    3250   1
   1  -6   5    2095     431   1
   2  -6   5   35327    1267   1
   3  -6   5   46354    1581   1
   4  -6   5   16384    1136   1
   5  -6   5     982     720   1
   6  -6   5    2111     851   1
   7  -6   5    1686    1006   1
   8  -6   5    -405     878   1
   9  -6   5    -647    1123   1
 -10  -5   5    3830    2013   1
  -9  -5   5   13836    2167   1
  -8  -5   5    1850    2337   1
  -7  -5   5    9219    1154   1
  -6  -5   5    5529     821   1
  -5  -5   5     -25     485   1
  -4  -5   5    5812     658   1
  -3  -5   5    1736     417   1
  -2  -5   5    1830     389   1
  -1  -5   5    5614     496   1
   0  -5   5   23822     920   1
   1  -5   5    5275     548   1
   2  -5   5    2401     442   1
   3  -5   5    3172     475   1
   4  -5   5   47964    1883   1
   5  -5   5    3449     771   1
   6  -5   5     679     725   1
   7  -5   5    1716    1692   1
   8  -5   5    1105     963   1
   9  -5   5    1287    1400   1
  10  -5   5    3387    1653   1
 -10  -4   5    1298    1753   1
  -9  -4   5    2516    2110   1
  -8  -4   5    9361    1417   1
  -7  -4   5    3577     765   1
  -6  -4   5  106728    2888   1
  -5  -4   5    2865     580   1
  -4  -4   5   52892    1637   1
  -3  -4   5    4682     506   1
  -2  -4   5   84632    2023   1
  -1  -4   5  141254    3043   1
   0  -4   5   83493    2362   1
   1  -4   5     485     573   1
   2  -4   5    4663     832   1
   3  -4   5   33802    1339   1
   4  -4   5   15006    1023   1
   5  -4   5    2450     750   1
   6  -4   5   16104    1462   1
   7  -4   5    -387    1361   1
   8  -4   5    4053    1441   1
   9  -4   5     867    1276   1
 -10   4   7    1307    1368  -2
  10  -4   5    1307    1368   1
 -11  -3   5    -195    1753   1
 -10  -3   5    3506    2207   1
  -9  -3   5      15    1072   1
  -8  -3   5    2090     998   1
  -7  -3   5    4762     795   1
  -6  -3   5    4853     723   1
  -5  -3   5   13394     898   1
  -4  -3   5    9659     736   1
  -3  -3   5   75325    1869   1
  -2  -3   5     171     312   1
  -1  -3   5   64200    1583   1
   0  -3   5    8141     485   1
   1  -3   5   45474    1346   1
   2  -3   5    9716     752   1
   3  -3   5   16285    1026   1
   4  -3   5   30589    1462   1
   5  -3   5   16183     907   1
   6  -3   5    5976     765   1
   7  -3   5   30775    1972   1
   8  -3   5   38327    3372   1
   9  -3   5    -545    1753   1
  10  -3   5    5794    1829   1
 -11  -2   5     130    1688   1
 -10  -2   5     -73    1229   1
  -9  -2   5    4596    2110   1
  -8  -2   5     192    1170   1
  -7  -2   5   38960    1815   1
  -6  -2   5    1391     572   1
  -5  -2   5    2381     542   1
  -4  -2   5    6558     650   1
  -3  -2   5    1835     449   1
  -2  -2   5   97172    2975   1
  -1  -2   5  130725    3021   1
   0  -2   5   91309    2331   1
   1  -2   5  106671    2296   1
   2  -2   5  130069    3109   1
  -3   2   6    4948     593  -2
   3  -2   5    4948     593   1
  -4   2   6     659     357  -2
   4  -2   5     659     357   1
  -5   2   6   22690    1129  -2
   5  -2   5   22690    1129   1
  -6   2   6     364     665  -2
   6  -2   5     364     665   1
  -7   2   6    1879     795  -2
   7  -2   5    1879     795   1
  -8   2   6   24104    1833  -2
   8  -2   5   24104    1833   1
  -9   2   6    -559    1124  -2
   9  -2   5    -559    1124   1
 -10   2   6     439    1329  -2
  10  -2   5     439    1329   1
 -11   2   6    -277    1445  -2
  11  -2   5    -277    1445   1
 -11  -1   5    1750    1441   1
 -10  -1   5     470    1229   1
  -9  -1   5    2467    1239   1
  -8  -1   5    -725     701   1
  -7  -1   5   50528    2297   1
  -6  -1   5    1193     609   1
  -5  -1   5   14341    1137   1
  -4  -1   5  269872    6838   1
  -3  -1   5   20243     934   1
  -2  -1   5     786     300   1
  -1  -1   5    1990     365   1
   0  -1   5    4891     363   1
   1  -1   5    5649     364   1
   2  -1   5  179824    3732   1
   3  -1   5   58430    1714   1
   4  -1   5   18506     921   1
   5  -1   5    3490     835   1
   6  -1   5  119192    3409   1
   7  -1   5   58608    2402   1
   8  -1   5     798     808   1
   9  -1   5   44698    2656   1
  10  -1   5    1579    1414   1
  11  -1   5    -357    1423   1
 -11   0   5    -315    1340   1
 -10   0   5    -158    1099   1
  -9   0   5    3085    1308   1
   8   0   5    3401    1160  -2
  -8   0   5    3401    1160   1
   7   0   5    8618    1149  -2
  -7   0   5    8618    1149   1
   6   0   5    1204     622  -2
  -6   0   5    1204     622   1
   5   0   5   19917    1332  -2
  -5   0   5   19917    1332   1
   4   0   5  133359    3356  -2
  -4   0   5  133359    3356   1
   3   0   5  122678    2622  -2
  -3   0   5  122678    2622   1
   2   0   5   67475    1620  -2
  -2   0   5   67475    1620   1
   1   0   5  162140    3095  -2
  -1   0   5  162140    3095   1
   0   0   5  124088    2389  -2
   0   0   5  124088    2389   1
  -1   0   5   71108    1722  -2
   1   0   5   71108    1722   1
  -2   0   5   78969    1986  -2
   2   0   5   78969    1986   1
  -3   0   5  411489    9610  -2
   3   0   5  411489    9610   1
  -4   0   5   84734    3143  -2
   4   0   5   84734    3143   1
  -5   0   5    3528     541  -2
   5   0   5    3528     541   1
  -6   0   5     242     430  -2
   6   0   5     242     430   1
  -7   0   5   14499    1321  -2
   7   0   5   14499    1321   1
  -8   0   5   13793    1422  -2
   8   0   5   13793    1422   1
   9   0   5    6532    1180   1
  10   0   5   -1510    1007   1
  11   0   5    5511    1743   1
 -11   1   5     -73    2337   1
 -10   1   5    -141    1785   1
  -9   1   5    -428    2499   1
  -8   1   5     700    1404   1
  -7   1   5    -352     733   1
  -6   1   5   11523    1060   1
  -5   1   5    3403     603   1
  -4   1   5   46337    1542   1
  -3   1   5    7794     562   1
  -2   1   5   66875    2023   1
  -1   1   5   11230     521   1
   0   1   5    1955     266   1
   1   1   5   11610     665   1
   2   1   5    5123     401   1
   3   1   5   44882    1244   1
   4   1   5   33052    1254   1
   5   1   5    3854     516   1
   6   1   5   16948    1225   1
   7   1   5   21081    1286   1
   8   1   5   11893    1137   1
   9   1   5     -21    1383   1
  10   1   5    -441    1191   1
  11   1   5    4930    1697   1
  11  -2   4    1288    1720  -2
 -11   2   5    1288    1720   1
  10  -2   4     307    1558  -2
 -10   2   5     307    1558   1
   9  -2   4     613    1078  -2
  -9   2   5     613    1078   1
   8  -2   4    7330    1486  -2
  -8   2   5    7330    1486   1
   7  -2   4     518     721  -2
  -7   2   5     518     721   1
   6  -2   4    6045     840  -2
  -6   2   5    6045     840   1
   5  -2   4   19459    1261  -2
  -5   2   5   19459    1261   1
   4  -2   4   43821    2194  -2
  -4   2   5   43821    2194   1
   2  -2   4  269581    5839  -2
  -2   2   5  269581    5839   1
  -1   2   5   28071     931   1
   0   2   5  254840    5055   1
   1   2   5  109933    2362   1
   2   2   5   11938    1501   1
   3   2   5   13458     647   1
   4   2   5   10485    1021   1
   5   2   5   25952    1340   1
   6   2   5    5755     931   1
   7   2   5     951     624   1
   8   2   5   20584    1386   1
   9   2   5   -1273     849   1
  10   2   5    -776    1640   1
  11   2   5    4415    2207   1
 -11   3   5    -463    1257   1
 -10   3   5    1161    1170   1
  -9   3   5     722    1170   1
  -8   3   5    2559    1170   1
  -7   3   5      75     869   1
  -6   3   5     157     585   1
  -5   3   5   21993    1419   1
  -4   3   5    2079     491   1
  -3   3   5   14402     874   1
  -2   3   5     170     305   1
  -1   3   5     252     287   1
   0   3   5    6183     411   1
   1   3   5     147     195   1
   2   3   5  163716    3666   1
   3   3   5   21126     866   1
   4   3   5   15375     798   1
   5   3   5   13635     846   1
   6   3   5   66814    2274   1
   7   3   5   12140     886   1
   8   3   5   59867    2377   1
   9   3   5    3985    1004   1
  10   3   5    4117    1537   1
  11   3   5   -2077    1623   1
  10  -4   3    -156    1216  -2
 -10   4   5    -156    1216   1
  -9   4   5    1189    1183   1
  -8   4   5       0    1010   1
  -7   4   5      78     934   1
  -6   4   5   17524    1571   1
  -5   4   5    4212     840   1
  -4   4   5     717     506   1
  -3   4   5   39693    1590   1
  -2   4   5   19938    1285   1
  -1   4   5   90356    2694   1
   0   4   5  257952    5130   1
   1   4   5  340652    6360   1
   2   4   5  111976    2472   1
   3   4   5     115     256   1
   4   4   5    1691     458   1
   5   4   5   14944     895   1
   6   4   5     808     484   1
   7   4   5   11751     946   1
   8   4   5    3420     833   1
   9   4   5    2507     820   1
  10   4   5    -851    1279   1
  11   4   5    2727    2013   1
 -10   5   5   -1510    1007   1
  -9   5   5    8748    1829   1
  -8   5   5     178     986   1
  -7   5   5   24746    2023   1
  -6   5   5   27886    2062   1
  -5   5   5   11302    1050   1
  -4   5   5    8911     810   1
  -3   5   5     356     363   1
  -2   5   5     563     352   1
  -1   5   5    -260     277   1
   0   5   5   28335     839   1
   1   5   5   14224    1991   1
   2   5   5  182089    4576   1
   3   5   5     687     281   1
   4   5   5   30905    1257   1
   5   5   5    1142     430   1
   6   5   5   36614    2090   1
   7   5   5   10630     926   1
   8   5   5    8843     996   1
   9   5   5     328    1346   1
  10   5   5     237    1138   1
  11   5   5    3181    2077   1
 -10   6   5      13    1211   1
  -9   6   5     398    1233   1
  -8   6   5    -995     961   1
  -7   6   5   26210    2529   1
  -6   6   5   62958    2603   1
  -5   6   5   11410     894   1
  -4   6   5  106319    2786   1
  -3   6   5    1169     407   1
  -2   6   5  134497    2974   1
  -1   6   5  199057    4455   1
   0   6   5    -269     258   1
   1   6   5   28102     856   1
   2   6   5    7352     498   1
   3   6   5   52266    1322   1
   4   6   5      46     254   1
   5   6   5   30470    1180   1
   6   6   5     455     513   1
   7   6   5     823     626   1
   8   6   5   12992    1291   1
   9   6   5    5770    1271   1
  10   6   5    1927    1368   1
 -10   7   5   -1104    1818   1
  -9   7   5     235    1154   1
  -8   7   5    -376    1078   1
  -7   7   5    7754    1330   1
  -6   7   5    3824     806   1
  -5   7   5   18177    1238   1
  -4   7   5    4622     600   1
  -3   7   5     149     372   1
  -2   7   5    1626     522   1
  -1   7   5     300     299   1
   0   7   5    4349     617   1
   1   7   5    1606     287   1
   2   7   5    1772     316   1
   3   7   5   33806    1045   1
   4   7   5    3837     432   1
  -5  -7   1    2066     427  -2
   5   7   5    2066     427   1
  -6  -7   1    7733     689  -2
   6   7   5    7733     689   1
  -7  -7   1   10264    1128  -2
   7   7   5   10264    1128   1
  -8  -7   1     881     871  -2
   8   7   5     881     871   1
  -9  -7   1     679     959  -2
   9   7   5     679     959   1
 -10  -7   1     578    1232  -2
  10   7   5     578    1232   1
  -9   8   5    4480    2142   1
  -8   8   5    -195    1493   1
  -7   8   5   21023    1952   1
  -6   8   5    -566     660   1
  -5   8   5    4310     754   1
  -4   8   5    8877     759   1
  -3   8   5   12852    1030   1
  -2   8   5    6903     687   1
  -1   8   5   95597    2207   1
   0   8   5   16173     639   1
   1   8   5    3537     322   1
   2   8   5      73     217   1
   3   8   5    4440     619   1
   4   8   5   22486     901   1
   5   8   5    2776     478   1
   6   8   5    -582     682   1
   7   8   5     993     805   1
   8   8   5    1126     730   1
   9   8   5     868     953   1
  10   8   5   -1432    1117   1
  -9   9   5    2727    2013   1
  -8   9   5    3246    1883   1
  -7   9   5    2874    1349   1
  -6   9   5   14471    1518   1
   5  -9   0    3461     937  -2
  -5   9   5    3461     937   1
   4  -9   0    3081     645  -2
  -4   9   5    3081     645   1
   3  -9   0     789     427  -2
  -3   9   5     789     427   1
   2  -9   0     257     354  -2
  -2   9   5     257     354   1
   1  -9   0     255     302  -2
  -1   9   5     255     302   1
   0  -9   0   22323     856  -2
   0   9   5   22323     856   1
  -1  -9   0   25080    1371  -2
   1   9   5   25080    1371   1
  -2  -9   0    7845     855  -2
   2   9   5    7845     855   1
  -3  -9   0    3068     768  -2
   3   9   5    3068     768   1
  -4  -9   0    8807     716  -2
   4   9   5    8807     716   1
  -5  -9   0    1335     466  -2
   5   9   5    1335     466   1
  -6  -9   0    7433    1312  -2
   6   9   5    7433    1312   1
  -7  -9   0   11242    1983  -2
   7   9   5   11242    1983   1
  -8  -9   0    4708     989  -2
   8   9   5    4708     989   1
  -9  -9   0   10593    1783  -2
   9   9   5   10593    1783   1
  -8  10   5    -260    1753   1
  -7  10   5     639    1191   1
  -6  10   5    5244    1467   1
  -5  10   5    8938    1064   1
  -4  10   5    6262     909   1
  -3  10   5     153     587   1
  -2  10   5   12907     839   1
  -1  10   5    7176     559   1
   0  10   5    6739     534   1
   1  10   5    9819     912   1
   2  10   5   28641    3506   1
   3  10   5   18910    1450   1
   4  10   5   13562    1290   1
   5  10   5    1536     981   1
   6  10   5    -987    1475   1
   7  10   5    4131    1866   1
   8  10   5    7061    1164   1
   9  10   5     657    1129   1
   7 -11  -1    2627    1400  -2
  -7  11   5    2627    1400   1
   6 -11  -1    2860    1308  -2
  -6  11   5    2860    1308   1
   5 -11  -1    2064     912  -2
  -5  11   5    2064     912   1
   4 -11  -1     769     691  -2
  -4  11   5     769     691   1
   3 -11  -1    -825     550  -2
  -3  11   5    -825     550   1
   2 -11  -1    2678     674  -2
  -2  11   5    2678     674   1
   1 -11  -1     432     333  -2
  -1  11   5     432     333   1
   0 -11  -1    7081     727  -2
   0  11   5    7081     727   1
  -1 -11  -1     -45    2175  -2
   1  11   5     -45    2175   1
  -2 -11  -1     779    1123  -2
   2  11   5     779    1123   1
  -3 -11  -1    9008    3278  -2
   3  11   5    9008    3278   1
   4  11   5    1882    1561   1
   5  11   5   -1056    1850   1
   6  11   5    2207    1428   1
   7  11   5    2455    1420   1
   8  11   5     270     792   1
  -6  12   5    2590    1308   1
  -5  12   5   -1257    1007   1
  -4  12   5    -677     691   1
  -3  12   5   20837    1464   1
  -2  12   5     805     579   1
  -1  12   5   23231    1509   1
   0  12   5    -201     675   1
   1  12   5    2130    1785   1
   2  12   5   27289    3733   1
   3  12   5    8932    2207   1
   4  12   5    3051    1039   1
   5  12   5       0    1039   1
   6  12   5    1039    1233   1
   7  12   5    3525    1170   1
  -5  13   5    1694    1232   1
  -4  13   5     164    1094   1
  -3  13   5     644     715   1
  -2  13   5    1122     822   1
  -1  13   5    -316     730   1
   0  13   5     871     652   1
   5  13   5     390    1039   1
   6  13   5    3149    1010   1
  -3  14   5    2251    2337   1
  -2  14   5    1713    1006   1
  -1  14   5    3972     997   1
   0  14   5   16117    2629   1
  -3 -12   6    1091    1080   1
  -2 -12   6    2552    1275   1
  -1 -12   6    2658    1091   1
   0 -12   6    1227    1138   1
   1 -12   6    6653    1513   1
   2 -12   6    -427    1165   1
  -5 -11   6   -1091    1009   1
  -4 -11   6     237    1029   1
   3  11  12    -121     924  -2
  -3 -11   6    -121     924   1
   2  11  12    1296     943  -2
  -2 -11   6    1296     943   1
   1  11  12     -53    1104  -2
  -1 -11   6     -53    1104   1
   0  11  12    -260     935  -2
   0 -11   6    -260     935   1
  -1  11  12     807    1072  -2
   1 -11   6     807    1072   1
  -2  11  12    5278    2694  -2
   2 -11   6    5278    2694   1
  -3  11  12     369    1216  -2
   3 -11   6     369    1216   1
  -4  11  12     773    1432  -2
   4 -11   6     773    1432   1
  -6 -10   6    -349    1044   1
  -5 -10   6     981    1021   1
  -4 -10   6     939     996   1
  -3 -10   6    4398     931   1
  -2 -10   6    -791    1242   1
  -1 -10   6    2764     892   1
   0 -10   6     725     948   1
   1 -10   6    2815    1201   1
   2 -10   6    4191    2272   1
   3 -10   6    2136    1303   1
   4 -10   6    -102    1948   1
   5 -10   6    -355    1355   1
   7   9  11     730    1200  -2
  -7  -9   6     730    1200   1
   6   9  11    -646    1029  -2
  -6  -9   6    -646    1029   1
   5   9  11    -401     997  -2
  -5  -9   6    -401     997   1
   4   9  11    2911    1107  -2
  -4  -9   6    2911    1107   1
   3   9  11    5909     989  -2
  -3  -9   6    5909     989   1
   2   9  11     712     837  -2
  -2  -9   6     712     837   1
   1   9  11    -196    1225  -2
  -1  -9   6    -196    1225   1
   0   9  11    2077     897  -2
   0  -9   6    2077     897   1
  -1   9  11     482    1491  -2
   1  -9   6     482    1491   1
  -2   9  11    5725    1445  -2
   2  -9   6    5725    1445   1
  -3   9  11    1866    1200  -2
   3  -9   6    1866    1200   1
  -4   9  11    1104    1720  -2
   4  -9   6    1104    1720   1
  -5   9  11    -882    1011  -2
   5  -9   6    -882    1011   1
   6  -9   6    3441    2142   1
   7  -9   6    2013    2207   1
  -8  -8   6    2791    1461   1
  -7  -8   6     698    1154   1
  -6  -8   6     -89     967   1
  -5  -8   6   -1109     792   1
  -4  -8   6    4671    1211   1
  -3  -8   6    -752     658   1
  -2  -8   6   32580    2186   1
  -1  -8   6     911     724   1
   0  -8   6   12583     992   1
   1  -8   6     -13     566   1
   2  -8   6   26650    1977   1
   3  -8   6    9715    1697   1
   4  -8   6      50     835   1
   5  -8   6    1079     982   1
   6  -8   6    3051    1883   1
   7  -8   6    1039    1883   1
   9   7  10    2300    1463  -2
  -9  -7   6    2300    1463   1
   8   7  10    2865    1432  -2
  -8  -7   6    2865    1432   1
   7   7  10    2732    1322  -2
  -7  -7   6    2732    1322   1
   6   7  10    6682    2077  -2
  -6  -7   6    6682    2077   1
   5   7  10   10297    1176  -2
  -5  -7   6   10297    1176   1
  -4  -7   6      71     498   1
  -3  -7   6    4045     630   1
  -2  -7   6    4541     690   1
  -1  -7   6    7982     706   1
   0  -7   6    1682     500   1
   1  -7   6     471     477   1
   2  -7   6   12881     843   1
   3  -7   6   11278     948   1
   4  -7   6     586     704   1
   5  -7   6    2747     897   1
   6  -7   6    3733    1024   1
   7  -7   6     649    1818   1
   8  -7   6    -649    1558   1
  -9  -6   6    3765    1883   1
  -8  -6   6    8155    1792   1
  -7  -6   6    1526    1170   1
  -6  -6   6    5391    1026   1
  -5  -6   6    -250     536   1
  -4  -6   6     325     434   1
  -3  -6   6   50121    1561   1
  -2  -6   6     263     403   1
  -1  -6   6   11480     818   1
   0  -6   6   12959     828   1
   1  -6   6   19501     953   1
   2  -6   6   14865     848   1
   3  -6   6    6073     640   1
   4  -6   6    1046     542   1
   5  -6   6    2108     821   1
   6  -6   6     765     829   1
   7  -6   6     896     931   1
   8  -6   6     565    1211   1
   9  -6   6     597    1357   1
 -10  -5   6     909    1883   1
  -9  -5   6     649    1623   1
  -8  -5   6    2185    1294   1
  -7  -5   6    1324    1138   1
  -6  -5   6    7934     954   1
  -5  -5   6   11050    1746   1
  -4  -5   6    7861     651   1
  -3  -5   6   10844     726   1
  -2  -5   6    1099     482   1
  -1  -5   6   15485     803   1
   0  -5   6    3016     487   1
   1  -5   6    9679     764   1
   2  -5   6     137     413   1
   3  -5   6   12162     776   1
   4  -5   6    8699     641   1
   5  -5   6    3123     782   1
   6  -5   6   16531    1505   1
   7  -5   6    3859    1123   1
   8  -5   6     -64    1185   1
   9  -5   6     369    1283   1
 -10  -4   6   -2077    1493   1
  -9  -4   6    1493    1818   1
  -8  -4   6     809     935   1
  -7  -4   6    1279     785   1
  -6  -4   6   25886    1375   1
  -5  -4   6    6070     740   1
  -4  -4   6     741     425   1
  -3  -4   6    4690     538   1
  -2  -4   6    2067     434   1
  -1  -4   6   18699     843   1
   0  -4   6    3819     554   1
   1  -4   6   61982    4914   1
   2  -4   6     109     443   1
   3  -4   6   63354    1996   1
   4  -4   6    1136     564   1
   5  -4   6    2787     799   1
   6  -4   6    8733     796   1
   7  -4   6     185     849   1
   8  -4   6     357     973   1
   9  -4   6     243    1211   1
 -10   4   8     921    1445  -2
  10  -4   6     921    1445   1
 -10  -3   6    -584    1688   1
  -9  -3   6     486    1170   1
  -8  -3   6     427     905   1
  -7  -3   6    1877     784   1
  -6  -3   6   67562    2366   1
  -5  -3   6    2811     603   1
  -4  -3   6   15650    1246   1
  -3  -3   6    2391     460   1
  -2  -3   6   16762     805   1
  -1  -3   6    -446     297   1
   0  -3   6    4835     424   1
   1  -3   6    1407     407   1
   2  -3   6    2911     552   1
   3  -3   6    4681     594   1
   4  -3   6   25473    1499   1
   5  -3   6   35094    1990   1
   6  -3   6    -253     459   1
   7  -3   6   71678    3051   1
   8  -3   6    1354    1720   1
   9  -3   6     665    1229   1
  10  -3   6    2263    1487   1
 -10  -2   6     892    1262   1
  -9  -2   6    1192    1247   1
  -8  -2   6     800    1035   1
  -7  -2   6    -718     649   1
  -6  -2   6   56197    3016   1
  -5  -2   6    4135     648   1
  -4  -2   6    6244     927   1
  -3  -2   6   98177    2492   1
  -2  -2   6    1363    1169   1
  -1  -2   6   73497    1775   1
   0  -2   6   45548    1532   1
   1  -2   6  523161    9749   1
   2  -2   6   92001    3516   1
  -3   2   7    9105    1059  -2
   3  -2   6    9105    1059   1
  -4   2   7   50606    1985  -2
   4  -2   6   50606    1985   1
  -5   2   7   62854    2530  -2
   5  -2   6   62854    2530   1
  -6   2   7   40569    1694  -2
   6  -2   6   40569    1694   1
  -7   2   7     394     734  -2
   7  -2   6     394     734   1
  -8   2   7    3387    1850  -2
   8  -2   6    3387    1850   1
  -9   2   7    4450    1487  -2
   9  -2   6    4450    1487   1
 -10   2   7     334    1357  -2
  10  -2   6     334    1357   1
 -11  -1   6   -1117    1229   1
 -10  -1   6     707    1211   1
  -9  -1   6    1980    1285   1
  -8  -1   6     779    1026   1
  -7  -1   6   14385    1423   1
  -6  -1   6    3638     770   1
  -5  -1   6    1931     673   1
  -4  -1   6    4350     602   1
  -3  -1   6    7147     687   1
  -2  -1   6    3619     480   1
  -1  -1   6    2942     388   1
   0  -1   6    3242     360   1
   1  -1   6     266     252   1
   2  -1   6   89923    2376   1
   3  -1   6    5299     600   1
   4  -1   6   10054     980   1
   5  -1   6    1161     757   1
   6  -1   6   56027    2071   1
   7  -1   6   61794    2936   1
   8  -1   6    3305     866   1
   9  -1   6    1202    2207   1
  10  -1   6     454    1285   1
  11  -1   6    4508    1767   1
 -11   0   6    1230    1414   1
 -10   0   6    -897    1124   1
  -9   0   6    2071    1883   1
   8   0   6    3214    1308  -2
  -8   0   6    3214    1308   1
   7   0   6     556     946  -2
  -7   0   6     556     946   1
   6   0   6    3124     730  -2
  -6   0   6    3124     730   1
   5   0   6   14830    1103  -2
  -5   0   6   14830    1103   1
   4   0   6    7429     900  -2
  -4   0   6    7429     900   1
   3   0   6    5634     600  -2
  -3   0   6    5634     600   1
   2   0   6   43280    1157  -2
  -2   0   6   43280    1157   1
   1   0   6   21260     771  -2
  -1   0   6   21260     771   1
   0   0   6  186829    3557  -2
   0   0   6  186829    3557   1
  -1   0   6   71122    1668  -2
   1   0   6   71122    1668   1
  -2   0   6  140995    3444  -2
   2   0   6  140995    3444   1
  -3   0   6   16569    1368  -2
   3   0   6   16569    1368   1
  -4   0   6   11422    1007  -2
   4   0   6   11422    1007   1
  -5   0   6    9773    1005  -2
   5   0   6    9773    1005   1
  -6   0   6    2422     898  -2
   6   0   6    2422     898   1
  -7   0   6    3516     739  -2
   7   0   6    3516     739   1
  -8   0   6   17341    3536  -2
   8   0   6   17341    3536   1
   9   0   6    2479    1276   1
  10   0   6      26    1216   1
  11   0   6    1066    2305   1
 -11   1   6    1373    1507   1
 -10   1   6   -1277    1099   1
  -9   1   6    1252    1216   1
  -8   1   6    1059    1201   1
  -7   1   6    -456     749   1
  -6   1   6   11964    1087   1
  -5   1   6   39957    3063   1
  -4   1   6     -96     403   1
  -3   1   6    3901     537   1
  -2   1   6   78214    2712   1
  -1   1   6    4431     381   1
   0   1   6   22199     724   1
   1   1   6   13032     528   1
   2   1   6      -4     275   1
   3   1   6   46262    1413   1
   4   1   6   69725    1945   1
   5   1   6   33907    1783   1
   6   1   6   11481    1149   1
   7   1   6    1213     655   1
   8   1   6    3812    1119   1
   9   1   6     997    1696   1
  10   1   6   -3360    3378   1
  11   1   6    5774    1813   1
  11  -2   5   -1141    1283  -2
 -11   2   6   -1141    1283   1
  10  -2   5   -1361    1078  -2
 -10   2   6   -1361    1078   1
   9  -2   5    -149    1461  -2
  -9   2   6    -149    1461   1
   8  -2   5    4569    1445  -2
  -8   2   6    4569    1445   1
   7  -2   5     831     918  -2
  -7   2   6     831     918   1
   6  -2   5    1337     638  -2
  -6   2   6    1337     638   1
   5  -2   5   26399    1470  -2
  -5   2   6   26399    1470   1
   4  -2   5     309     492  -2
  -4   2   6     309     492   1
   3  -2   5    1472     374  -2
  -3   2   6    1472     374   1
  -2   2   6  104088    2651   1
   0   2   6  268245    5134   1
   1   2   6  288798    5734   1
   2   2   6  238311    5197   1
   3   2   6    5668     462   1
   4   2   6     977     410   1
   5   2   6   32544    1355   1
   6   2   6     629     681   1
   7   2   6    4010     848   1
   8   2   6    -409     632   1
   9   2   6    5216    1902   1
  10   2   6    -953    2392   1
  11   2   6     649    1948   1
 -10   3   6      75    1237   1
  -9   3   6    2851    2175   1
  -8   3   6   20165    2386   1
  -7   3   6   -1568    2099   1
  -6   3   6    4575     868   1
  -5   3   6    2225     658   1
  -4   3   6    8664     963   1
  -3   3   6    6377     936   1
  -2   3   6    4257     640   1
  -1   3   6   12242     952   1
   0   3   6   38851    1124   1
   1   3   6    7141     585   1
   2   3   6   54455    1722   1
   3   3   6   11177     672   1
   4   3   6   35934    1273   1
   5   3   6   73123    2118   1
   6   3   6     993     556   1
   7   3   6    1085     771   1
   8   3   6    1182     858   1
   9   3   6    2396    1157   1
  10   3   6    -116    1980   1
  11   3   6   -1039    1623   1
  10  -4   4    1740    1403  -2
 -10   4   6    1740    1403   1
  -9   4   6    4975    1466   1
  -8   4   6    5129    1423   1
  -7   4   6    5894    2532   1
  -6   4   6   20793    2927   1
  -5   4   6    3830    1493   1
  -4   4   6    5467    1147   1
  -3   4   6  209486    5851   1
  -2   4   6   98099    5125   1
  -1   4   6  108520    2906   1
   0   4   6  382872    8091   1
   1   4   6   81540    1932   1
   2   4   6   95072    2373   1
   3   4   6   95850    2449   1
   4   4   6   38855    1335   1
   5   4   6   49006    1595   1
   6   4   6     267     494   1
   7   4   6   14029    1429   1
   8   4   6    9955    1207   1
   9   4   6    -108     810   1
  10   4   6    9608    2727   1
  11   4   6    1558    1818   1
 -10   5   6    -554    1183   1
  -9   5   6   16506    2337   1
  -8   5   6    1818    2110   1
  -7   5   6   24337    2499   1
  -6   5   6    2757     956   1
  -5   5   6    1078     720   1
  -4   5   6   23614    1458   1
  -3   5   6    9653     774   1
  -2   5   6   11914     683   1
  -1   5   6     -85     340   1
   0   5   6     152     298   1
   1   5   6    1098     303   1
   2   5   6      91     287   1
   3   5   6    6021     551   1
   4   5   6   46599    1385   1
   5   5   6    9360     742   1
   6   5   6   27258    1312   1
   7   5   6    7216     903   1
   8   5   6    3698    1060   1
   9   5   6    7000    1548   1
  10   5   6    -195    1623   1
 -10   6   6   -1270    1216   1
  -9   6   6    2233    1349   1
  -8   6   6     557    1032   1
  -7   6   6     609    1032   1
  -6   6   6   42153    2622   1
  -5   6   6     952     665   1
  -4   6   6   35529    1661   1
  -3   6   6    3262     599   1
  -2   6   6   17584     920   1
  -1   6   6   44751    1377   1
   0   6   6    2833     403   1
   1   6   6   89773    2141   1
   2   6   6   74938    2196   1
   3   6   6     228     314   1
   4   6   6    2351     400   1
   5   6   6     185     375   1
   6   6   6   13553     930   1
   7   6   6    -774     574   1
   8   6   6    -384    1037   1
   9   6   6    1993    1351   1
  10   6   6    -378    1177   1
  -9   7   6    2532    1948   1
  -8   7   6   20987    2525   1
  -7   7   6     690     944   1
  -6   7   6   11034    1256   1
  -5   7   6    5402     747   1
  -4   7   6    9907     793   1
  -3   7   6     813     422   1
  -2   7   6    1424     440   1
  -1   7   6    -196     322   1
   0   7   6    1817     561   1
   1   7   6    1088     299   1
   2   7   6    4949     474   1
   3   7   6   42483    1350   1
   4   7   6     836     355   1
  -5  -7   2  133257    3251  -2
   5   7   6  133257    3251   1
  -6  -7   2   32441    1545  -2
   6   7   6   32441    1545   1
  -7  -7   2   69613    3978  -2
   7   7   6   69613    3978   1
  -8  -7   2    9188    1129  -2
   8   7   6    9188    1129   1
  -9  -7   2   10734    1809  -2
   9   7   6   10734    1809   1
 -10  -7   2     427    1260  -2
  10   7   6     427    1260   1
  -9   8   6    -195    1623   1
  -8   8   6    3895    1948   1
  -7   8   6   37903    2741   1
  -6   8   6   14373    1339   1
  -5   8   6    2560     701   1
  -4   8   6     234     456   1
  -3   8   6   28090    1207   1
  -2   8   6    3391     489   1
  -1   8   6   85416    2254   1
   0   8   6   17352     805   1
   1   8   6   23617     833   1
   2   8   6    1597     327   1
   3   8   6    4587     534   1
   4   8   6     710     381   1
   5   8   6   16921     987   1
   6   8   6    7273    1104   1
   7   8   6    3534    1659   1
   8   8   6     318     738   1
   9   8   6    3263    2986   1
  10   8   6    -454    1276   1
  -8   9   6    2013    1883   1
  -7   9   6    3277    2013   1
  -6   9   6    1218     925   1
   5  -9   1     914     681  -2
  -5   9   6     914     681   1
   4  -9   1     353     547  -2
  -4   9   6     353     547   1
   3  -9   1     826     431  -2
  -3   9   6     826     431   1
   2  -9   1    1598     420  -2
  -2   9   6    1598     420   1
   1  -9   1    4701     490  -2
  -1   9   6    4701     490   1
   0  -9   1   11456     635  -2
   0   9   6   11456     635   1
  -1  -9   1    1615     327  -2
   1   9   6    1615     327   1
  -2  -9   1    1970     316  -2
   2   9   6    1970     316   1
  -3  -9   1    4323     677  -2
   3   9   6    4323     677   1
  -4  -9   1   59794    1887  -2
   4   9   6   59794    1887   1
  -5  -9   1    1355     637  -2
   5   9   6    1355     637   1
  -6  -9   1   52452    2455  -2
   6   9   6   52452    2455   1
  -7  -9   1   14988    1469  -2
   7   9   6   14988    1469   1
  -8  -9   1    5177    1115  -2
   8   9   6    5177    1115   1
  -9  -9   1    1143    1185  -2
   9   9   6    1143    1185   1
  -8  10   6    1558    1688   1
  -7  10   6    -536    1078   1
  -6  10   6   -1290     860   1
  -5  10   6   17610    1414   1
  -4  10   6     452     646   1
  -3  10   6   52086    2400   1
  -2  10   6     410     647   1
  -1  10   6    1325     426   1
   0  10   6  103122    2672   1
   1  10   6   24728    1639   1
   2  10   6     770     634   1
   3  10   6    6332     924   1
   4  10   6    5503    1016   1
   5  10   6    3424    1480   1
   6  10   6      35    1813   1
   7  10   6     597     904   1
   8  10   6    4844    1120   1
   9  10   6    -289    1138   1
   7 -11   0    1242    1341  -2
  -7  11   6    1242    1341   1
   6 -11   0     191    1165  -2
  -6  11   6     191    1165   1
   5 -11   0    -752     771  -2
  -5  11   6    -752     771   1
   4 -11   0    1625     727  -2
  -4  11   6    1625     727   1
   3 -11   0     669     784  -2
  -3  11   6     669     784   1
   2 -11   0    4069     736  -2
  -2  11   6    4069     736   1
   1 -11   0    1724     638  -2
  -1  11   6    1724     638   1
   0 -11   0     931     544  -2
   0  11   6     931     544   1
  -1 -11   0   19323    1555  -2
   1  11   6   19323    1555   1
  -2 -11   0    6209     922  -2
   2  11   6    6209     922   1
  -3 -11   0    6203    1462  -2
   3  11   6    6203    1462   1
   4  11   6    5114    1032   1
   5  11   6   14696    3506   1
   6  11   6   -1623    1233   1
   7  11   6    5076    1785   1
   8  11   6    2403    1040   1
  -6  12   6    7286    1691   1
  -5  12   6     362    1091   1
  -4  12   6    4201    1021   1
  -3  12   6     253     843   1
  -2  12   6   21425    1481   1
  -1  12   6    -654     810   1
   0  12   6   16461    1125   1
   1  12   6     168     708   1
   2  12   6   11621    1152   1
   3  12   6    -322     963   1
   4  12   6   -1136    1428   1
   5  12   6   -1169    1104   1
   6  12   6    -130    1298   1
   7  12   6    -260    1493   1
  -5  13   6    1592    1211   1
  -4  13   6    -848     762   1
  -3  13   6    -260     673   1
  -2  13   6    -492    1298   1
  -1  13   6    8623    1216   1
   0  13   6    3437     838   1
   1  13   6    1261     844   1
   3  13   6    6427    1233   1
   4  13   6    1623    1104   1
   5  13   6    1753    1363   1
   6  13   6    2921    1558   1
  -3  14   6    9028    1125   1
  -2  14   6    2848    1053   1
  -1  14   6   21229    2597   1
   0  14   6    3368    1818   1
   1  14   6     390     974   1
   4  14   6    2792    1104   1
  -4 -11   7     735    1104   1
   3  11  13    3036     950  -2
  -3 -11   7    3036     950   1
   2  11  13   -1351     901  -2
  -2 -11   7   -1351     901   1
   1  11  13     429    1053  -2
  -1 -11   7     429    1053   1
   0  11  13    1610    1138  -2
   0 -11   7    1610    1138   1
  -1  11  13    -395    1057  -2
   1 -11   7    -395    1057   1
  -2  11  13      30    1247  -2
   2 -11   7      30    1247   1
  -3  11  13   -1335    2013  -2
   3 -11   7   -1335    2013   1
  -5 -10   7   -1413    1044   1
  -4 -10   7   -1177    1043   1
  -3 -10   7    -321     720   1
  -2 -10   7    1736    1107   1
  -1 -10   7   -1042    1039   1
   0 -10   7   15895    2694   1
   1 -10   7   -1096     967   1
   2 -10   7    2792    1753   1
   3 -10   7    1357    1329   1
   4 -10   7    2597    1515   1
   5 -10   7    1363    1818   1
   7   9  12    4333    1525  -2
  -7  -9   7    4333    1525   1
   6   9  12      81    1104  -2
  -6  -9   7      81    1104   1
   5   9  12    2426    1247  -2
  -5  -9   7    2426    1247   1
   4   9  12    1653    1137  -2
  -4  -9   7    1653    1137   1
   3   9  12     694     948  -2
  -3  -9   7     694     948   1
   2   9  12   11254    1618  -2
  -2  -9   7   11254    1618   1
   1   9  12     793     948  -2
  -1  -9   7     793     948   1
   0   9  12    2134    1090  -2
   0  -9   7    2134    1090   1
  -1   9  12    1337    1165  -2
   1  -9   7    1337    1165   1
  -2   9  12    -730    1032  -2
   2  -9   7    -730    1032   1
  -3   9  12   -1482    1053  -2
   3  -9   7   -1482    1053   1
  -4   9  12    2439    1441  -2
   4  -9   7    2439    1441   1
   5  -9   7    1233    1753   1
   6  -9   7    -779    1623   1
  -7  -8   7    -452    1138   1
  -6  -8   7     309    1104   1
  -5  -8   7    6793    1467   1
  -4  -8   7    -512     678   1
  -3  -8   7     274     920   1
  -2  -8   7    5245    1166   1
  -1  -8   7    1800     972   1
   0  -8   7    3921    1049   1
   1  -8   7      65     796   1
   2  -8   7     406    2110   1
   3  -8   7     536    1099   1
   4  -8   7    4663    1537   1
   5  -8   7    6801    1685   1
   6  -8   7   -1558    1493   1
   7  -8   7     714    1753   1
   8   7  11    8643    1902  -2
  -8  -7   7    8643    1902   1
   7   7  11    1062    1308  -2
  -7  -7   7    1062    1308   1
   6   7  11     146    2402  -2
  -6  -7   7     146    2402   1
   5   7  11    1811    1103  -2
  -5  -7   7    1811    1103   1
  -4  -7   7    1751     679   1
  -3  -7   7     742     635   1
  -2  -7   7    1713     918   1
  -1  -7   7   10291     967   1
   0  -7   7    4529     717   1
   1  -7   7   16929    1202   1
   2  -7   7   12106    1040   1
   3  -7   7     531     837   1
   4  -7   7    2122    1011   1
   5  -7   7    9139    1833   1
   6  -7   7    1233    1753   1
   7  -7   7    -260    1688   1
   8  -7   7    2077    2077   1
  -9  -6   7     325    1818   1
  -8  -6   7    1253    1373   1
  -7  -6   7     589    1154   1
  -6  -6   7    2853    1158   1
  -5  -6   7    -463     582   1
  -4  -6   7    3428     638   1
  -3  -6   7   20041    1797   1
  -2  -6   7    3121     532   1
  -1  -6   7   11947    1072   1
   0  -6   7    5118     670   1
   1  -6   7   56267    1929   1
   2  -6   7    4582     784   1
   3  -6   7    5570     924   1
   4  -6   7    3525     873   1
   5  -6   7   10135    1245   1
   6  -6   7    3897    1558   1
   7  -6   7    -519    1148   1
   8  -6   7   -1504    2013   1
  -9  -5   7    2792    2077   1
  -8  -5   7    2115    1785   1
  -7  -5   7    3341    1368   1
  -6  -5   7    2726     993   1
  -5  -5   7    1262     598   1
  -4  -5   7    1953     531   1
  -3  -5   7    2893     575   1
  -2  -5   7     916     451   1
  -1  -5   7    4682     551   1
   0  -5   7    1149     459   1
   1  -5   7    2802     571   1
   2  -5   7    1617     575   1
   3  -5   7    1120     674   1
   4  -5   7    2056     790   1
   5  -5   7   21844    1632   1
   6  -5   7    1832     909   1
   7  -5   7     436    1136   1
   8  -5   7    3536    1479   1
   9  -5   7    2277    1559   1
 -10  -4   7    -260    1688   1
  -9  -4   7    1298    1948   1
  -8  -4   7    9992    3895   1
  -7  -4   7    -636     805   1
  -6  -4   7    5911     931   1
  -5  -4   7   22012    1169   1
  -4  -4   7     565     438   1
  -3  -4   7    5099     597   1
  -2  -4   7   19927     950   1
  -1  -4   7   74812    1936   1
   0  -4   7   11302     660   1
   1  -4   7       6     396   1
   2  -4   7   48899    2175   1
   3  -4   7   13602    1116   1
   4  -4   7   76047    2570   1
   5  -4   7    6239     906   1
   6  -4   7   30709    4086   1
   7  -4   7    1918     949   1
   8  -4   7     154    1154   1
   9  -4   7     394    1322   1
 -10  -3   7   -1753    1493   1
  -9  -3   7    3051    2142   1
  -8  -3   7    2407    1308   1
  -7  -3   7    3600    1107   1
  -6  -3   7    5931    1392   1
  -5  -3   7    7737     882   1
  -4  -3   7    3117     520   1
  -3  -3   7    1118     452   1
  -2  -3   7    5087     540   1
  -1  -3   7   10287     663   1
   0  -3   7   18787     791   1
   1  -3   7     869     415   1
   2  -3   7    -159     417   1
   3  -3   7    6566     950   1
   4  -3   7   39080    1843   1
   5  -3   7  130370    4194   1
   6  -3   7   14932    1538   1
   7  -3   7   37145    2542   1
   8  -3   7    1650    1262   1
   9  -3   7   15042    2348   1
  10  -3   7    4033    1789   1
 -10  -2   7     519    1883   1
  -9  -2   7    1758    2954   1
  -8  -2   7     173    1078   1
  -7  -2   7    2610     807   1
  -6  -2   7    7960    1024   1
  -5  -2   7    6031    2402   1
  -4  -2   7   22844    1271   1
  -3  -2   7   19884    1039   1
  -2  -2   7   61722    1705   1
  -1  -2   7   53145    1449   1
   0  -2   7   55530    1456   1
   1  -2   7   67988    1642   1
   2  -2   7     386     753   1
  -3   2   8   41570    2073  -2
   3  -2   7   41570    2073   1
  -4   2   8    6754     783  -2
   4  -2   7    6754     783   1
  -5   2   8   45164    4498  -2
   5  -2   7   45164    4498   1
  -6   2   8   52256    4544  -2
   6  -2   7   52256    4544   1
  -7   2   8    2175    1194  -2
   7  -2   7    2175    1194   1
  -8   2   8    2993    1375  -2
   8  -2   7    2993    1375   1
  -9   2   8     406    1263  -2
   9  -2   7     406    1263   1
 -10   2   8    1411    1450  -2
  10  -2   7    1411    1450   1
 -10  -1   7     -65    1285   1
  -9  -1   7    -310    1124   1
  -8  -1   7    -346    1526   1
  -7  -1   7   -1059     706   1
  -6  -1   7   23288    1566   1
  -5  -1   7    7221     979   1
  -4  -1   7   45493    1786   1
  -3  -1   7    3715     570   1
  -2  -1   7    8692     682   1
  -1  -1   7    1426     394   1
   0  -1   7    3250     424   1
   1  -1   7   13840     641   1
   2  -1   7   10542     803   1
   3  -1   7   18814    1292   1
   4  -1   7   25988    1257   1
   5  -1   7    3055     757   1
   6  -1   7    2499    1017   1
   7  -1   7   17742    3700   1
   8  -1   7   12301    1997   1
   9  -1   7    9970    3311   1
  10  -1   7    8567    2018   1
 -10   0   7       9    1526   1
  -9   0   7    -231    1655   1
   8   0   7    -396     915  -2
  -8   0   7    -396     915   1
   7   0   7   12390    1569  -2
  -7   0   7   12390    1569   1
   6   0   7    9122    1462  -2
  -6   0   7    9122    1462   1
   5   0   7    3040    1021  -2
  -5   0   7    3040    1021   1
   4   0   7    8603     865  -2
  -4   0   7    8603     865   1
   3   0   7   16590    1152  -2
  -3   0   7   16590    1152   1
   2   0   7  146074    3372  -2
  -2   0   7  146074    3372   1
   1   0   7  171598    3587  -2
  -1   0   7  171598    3587   1
   0   0   7  343875    6300  -2
   0   0   7  343875    6300   1
  -1   0   7   67847    1780  -2
   1   0   7   67847    1780   1
  -2   0   7  207478    6068  -2
   2   0   7  207478    6068   1
  -3   0   7    7809     843  -2
   3   0   7    7809     843   1
  -4   0   7   36268    2165  -2
   4   0   7   36268    2165   1
  -5   0   7    9285    1124  -2
   5   0   7    9285    1124   1
  -6   0   7    3257     959  -2
   6   0   7    3257     959   1
  -7   0   7    8163    4285  -2
   7   0   7    8163    4285   1
  -8   0   7     169    1029  -2
   8   0   7     169    1029   1
   9   0   7    1733    1329   1
  10   0   7    -492    1276   1
 -10   1   7    1420    1688   1
  -9   1   7    2327    1428   1
  -8   1   7    -306    1044   1
  -7   1   7    -803     837   1
  -6   1   7     154     918   1
  -5   1   7   13285    1123   1
  -4   1   7    4271     636   1
  -3   1   7    -237     409   1
  -2   1   7    1065     370   1
  -1   1   7    4338     507   1
   0   1   7     751     301   1
   1   1   7   49445    1393   1
   2   1   7   46494    1467   1
   3   1   7     -38     339   1
   4   1   7      73     443   1
   5   1   7   15732    1264   1
   6   1   7    5072    1052   1
   7   1   7    -875     869   1
   8   1   7    7550    1625   1
   9   1   7    2615    3974   1
  10   1   7    1313    1322   1
  10  -2   6    1696    2370  -2
 -10   2   7    1696    2370   1
   9  -2   6    1391    1850  -2
  -9   2   7    1391    1850   1
   8  -2   6     769    1753  -2
  -8   2   7     769    1753   1
   7  -2   6    -867     829  -2
  -7   2   7    -867     829   1
   6  -2   6    9806    1212  -2
  -6   2   7    9806    1212   1
   5  -2   6   28507    1655  -2
  -5   2   7   28507    1655   1
   4  -2   6   91147    2850  -2
  -4   2   7   91147    2850   1
   3  -2   6   39538    1521  -2
  -3   2   7   39538    1521   1
  -2   2   7  335735    7518   1
  -1   2   7  210750    5851   1
   0   2   7  101565    2170   1
   1   2   7   60413    1672   1
   2   2   7   67364    2078   1
   3   2   7   49958    3846   1
   4   2   7   18407     932   1
   5   2   7    8925     833   1
   6   2   7   16611    2265   1
   7   2   7    1357    1010   1
   8   2   7    2488     955   1
   9   2   7    3413    1319   1
  10   2   7     -32    1194   1
 -10   3   7    -146    1262   1
  -9   3   7    2091    2175   1
  -8   3   7    4350    2013   1
  -7   3   7    3454    1986   1
  -6   3   7   21907    2487   1
  -5   3   7     703     601   1
  -4   3   7      78     599   1
  -3   3   7   48048    2184   1
  -2   3   7    6115     697   1
  -1   3   7    8792     664   1
   0   3   7    8827     621   1
   1   3   7   15199    1317   1
   2   3   7     375     361   1
   3   3   7   21921    1411   1
   4   3   7     315     335   1
   5   3   7   18288     999   1
   6   3   7   21146    1286   1
   7   3   7   37283    2454   1
   8   3   7     637    1274   1
   9   3   7    4949    1374   1
  10   3   7    1493    1883   1
  10  -4   5    1032    1310  -2
 -10   4   7    1032    1310   1
  -9   4   7    -317    1071   1
  -8   4   7   16003    2223   1
  -7   4   7    7963    4415   1
  -6   4   7   28720    2662   1
  -5   4   7    5306    1052   1
  -4   4   7   15613    1359   1
  -3   4   7  163328    4297   1
  -2   4   7   24579    1715   1
  -1   4   7  179078    6845   1
   0   4   7  147139    3779   1
   1   4   7   49153    3085   1
   2   4   7    1125     654   1
   3   4   7   38969    1520   1
   4   4   7    1668     372   1
   5   4   7     911     450   1
   6   4   7   19937    1134   1
   7   4   7   16986    1499   1
   8   4   7    -893     717   1
   9   4   7   -1039    1298   1
  10   4   7     325    1623   1
 -10   5   7      65    1285   1
  -9   5   7    1980    1331   1
  -8   5   7   -1441     961   1
  -7   5   7   11530    1875   1
  -6   5   7    5560    1655   1
  -5   5   7    4590     956   1
  -4   5   7     687     574   1
  -3   5   7   15823     978   1
  -2   5   7   10634     656   1
  -1   5   7    5551     625   1
   0   5   7   11393     657   1
   1   5   7   18445     811   1
   2   5   7    4444     477   1
   3   5   7   23135    1172   1
   4   5   7   13773     749   1
   5   5   7   41611    1441   1
   6   5   7   27650    1320   1
   7   5   7   43661    1993   1
   8   5   7    1047    1363   1
   9   5   7     876    1850   1
  10   5   7    4090    2142   1
  -9   6   7   14018    3051   1
  -8   6   7    5206    1915   1
  -7   6   7    3080    1363   1
  -6   6   7   17951    2134   1
  -5   6   7   28185    1775   1
  -4   6   7   52391    1967   1
  -3   6   7   21720    1126   1
  -2   6   7     505     392   1
  -1   6   7    1629     487   1
   0   6   7   49538    1824   1
   1   6   7   17346     915   1
   2   6   7   94367    2442   1
   3   6   7    -167     373   1
   4   6   7   17478     858   1
   5   6   7     -30     402   1
   6   6   7     931     632   1
   7   6   7      47     717   1
   8   6   7   -1111     901   1
   9   6   7       0    1293   1
  10   6   7     -65    1688   1
  -9   7   7    1493    1883   1
  -8   7   7    7769    1737   1
  -7   7   7    -974     894   1
  -6   7   7    1913     972   1
  -5   7   7    2824    1199   1
  -4   7   7     261     501   1
  -3   7   7   13031     893   1
  -2   7   7    5391     657   1
  -1   7   7     938     384   1
   0   7   7    7985     603   1
   1   7   7   17617     828   1
   2   7   7   26519    1059   1
   3   7   7    1787     415   1
   4   7   7   36730    1431   1
  -5  -7   3   16620     912  -2
   5   7   7   16620     912   1
  -6  -7   3    4228     780  -2
   6   7   7    4228     780   1
  -7  -7   3    6918     976  -2
   7   7   7    6918     976   1
  -8  -7   3    7920    2142  -2
   8   7   7    7920    2142   1
  -9  -7   3     178    1177  -2
   9   7   7     178    1177   1
 -10  -7   3    1492    1373  -2
  10   7   7    1492    1373   1
  -9   8   7     584    1883   1
  -8   8   7    1363    1688   1
  -7   8   7    1688    1558   1
  -6   8   7    1753     909   1
  -5   8   7    5042     871   1
  -4   8   7     228     600   1
  -3   8   7   20690    1146   1
  -2   8   7   25348    1328   1
  -1   8   7      67     338   1
   0   8   7      33     309   1
   1   8   7   79341    1893   1
   2   8   7    6311     595   1
   3   8   7   56911    1712   1
   4   8   7     -23     390   1
   5   8   7   14307    1104   1
   6   8   7   35678    2126   1
   7   8   7    -293     719   1
   8   8   7    1791    1165   1
   9   8   7    -299    1154   1
  -8   9   7     454    1623   1
  -7   9   7    -519    1428   1
  -6   9   7    1517    1333   1
   5  -9   2     191     738  -2
  -5   9   7     191     738   1
   4  -9   2   10303    1994  -2
  -4   9   7   10303    1994   1
   3  -9   2    2844     690  -2
  -3   9   7    2844     690   1
   2  -9   2   12351    1081  -2
  -2   9   7   12351    1081   1
   1  -9   2    9279     760  -2
  -1   9   7    9279     760   1
   0  -9   2   10537     728  -2
   0   9   7   10537     728   1
  -1  -9   2   25165     902  -2
   1   9   7   25165     902   1
  -2  -9   2    7817     576  -2
   2   9   7    7817     576   1
  -3  -9   2   40046    1502  -2
   3   9   7   40046    1502   1
  -4  -9   2    4319     626  -2
   4   9   7    4319     626   1
  -5  -9   2    8171    1471  -2
   5   9   7    8171    1471   1
  -6  -9   2    3527     857  -2
   6   9   7    3527     857   1
  -7  -9   2    2947    1145  -2
   7   9   7    2947    1145   1
  -8  -9   2    2392    1298  -2
   8   9   7    2392    1298   1
  -9  -9   2    1053    1217  -2
   9   9   7    1053    1217   1
  -7  10   7    -584    1493   1
  -6  10   7     -51    1233   1
  -5  10   7    5889    1642   1
  -4  10   7    2869     791   1
  -3  10   7    1228     778   1
  -2  10   7    1996     758   1
  -1  10   7   33254    1649   1
   0  10   7  186232    4493   1
   1  10   7   11908     752   1
   2  10   7   30347    1400   1
   3  10   7    3684     579   1
   4  10   7    7992     699   1
   5  10   7    9633    1521   1
   6  10   7   10965    1373   1
   7  10   7     434     901   1
   8  10   7     204    1091   1
   7 -11   1    -130    1688  -2
  -7  11   7    -130    1688   1
   6 -11   1    1664    1247  -2
  -6  11   7    1664    1247   1
   5 -11   1    2618    1217  -2
  -5  11   7    2618    1217   1
   4 -11   1    1845    1302  -2
  -4  11   7    1845    1302   1
   3 -11   1     561     627  -2
  -3  11   7     561     627   1
   2 -11   1    4031    1042  -2
  -2  11   7    4031    1042   1
   1 -11   1    6235    1239  -2
  -1  11   7    6235    1239   1
   0 -11   1     101     396  -2
   0  11   7     101     396   1
  -1 -11   1    1398     736  -2
   1  11   7    1398     736   1
  -2 -11   1     675     746  -2
   2  11   7     675     746   1
  -3 -11   1     269     748  -2
   3  11   7     269     748   1
   4  11   7    3039    1319   1
   5  11   7    2272    1428   1
   6  11   7     835     742   1
   7  11   7     667     875   1
   8  11   7     995     897   1
  -6  12   7    2294    2337   1
  -5  12   7    2147    2662   1
  -4  12   7   13204    1628   1
  -3  12   7    1228     802   1
  -2  12   7   16312    1461   1
  -1  12   7    1390     596   1
   0  12   7     -27     702   1
   1  12   7    5837    1651   1
   2  12   7    3858     890   1
   3  12   7     260     909   1
   4  12   7    1007     960   1
   5  12   7    2532    1363   1
   6  12   7    1039    1493   1
   7  12   7     454    1558   1
  -4  13   7     -83     938   1
  -3  13   7    1482     817   1
  -2  13   7    1123     675   1
  -1  13   7    2792    1298   1
   0  13   7     443    1026   1
   1  13   7    1106     940   1
   2  13   7    1350     975   1
   3  13   7    8699    1623   1
   4  13   7    2597    1363   1
   5  13   7    8634    1883   1
   6  13   7    1298    1558   1
  -3  14   7    2724     887   1
  -2  14   7    3311    1623   1
  -1  14   7    8634    1883   1
   0  14   7   -1169     974   1
   1  14   7    9933    1688   1
   2  14   7    5388    1363   1
   3  14   7    1428    1104   1
   4  14   7    3116    1233   1
   2  11  14     793    1091  -2
  -2 -11   8     793    1091   1
   1  11  14     960    1199  -2
  -1 -11   8     960    1199   1
   0  11  14    1929    1246  -2
   0 -11   8    1929    1246   1
  -1  11  14   -1548    1493  -2
   1 -11   8   -1548    1493   1
  -4 -10   8    2138    1257   1
  -3 -10   8    -591     851   1
  -2 -10   8    -319    1883   1
  -1 -10   8     460    1057   1
   0 -10   8    1958    1293   1
   1 -10   8    -651    1104   1
   2 -10   8    -615    1233   1
   3 -10   8   -1028    1293   1
   4 -10   8     -65    1818   1
   6   9  13   -1558    1117  -2
  -6  -9   8   -1558    1117   1
   5   9  13    2050    1246  -2
  -5  -9   8    2050    1246   1
   4   9  13     782     924  -2
  -4  -9   8     782     924   1
   3   9  13    2210    1850  -2
  -3  -9   8    2210    1850   1
   2   9  13     648    2175  -2
  -2  -9   8     648    2175   1
   1   9  13    1845    1461  -2
  -1  -9   8    1845    1461   1
   0   9  13    8755    1664  -2
   0  -9   8    8755    1664   1
  -1   9  13     408    1233  -2
   1  -9   8     408    1233   1
  -2   9  13     792    2045  -2
   2  -9   8     792    2045   1
  -3   9  13    1960    1441  -2
   3  -9   8    1960    1441   1
  -4   9  13    1964    1435  -2
   4  -9   8    1964    1435   1
   5  -9   8     390    1753   1
  -7  -8   8   -1755    1170   1
  -6  -8   8      34    1165   1
  -5  -8   8    2414    1232   1
  -4  -8   8    -674     924   1
  -3  -8   8     531    1029   1
  -2  -8   8    2224    1177   1
  -1  -8   8    2677    1229   1
   0  -8   8     431    1043   1
   1  -8   8   -1183     789   1
   2  -8   8    2101    1303   1
   3  -8   8    -977    1078   1
   4  -8   8    -668    1237   1
   5  -8   8    -454    1623   1
   6  -8   8   -1493    1428   1
   8   7  12     -65    1623  -2
  -8  -7   8     -65    1623   1
   7   7  12    1144    1688  -2
  -7  -7   8    1144    1688   1
   6   7  12   -1025    1071  -2
  -6  -7   8   -1025    1071   1
  -5  -7   8    2419    1655   1
  -4  -7   8     581     861   1
  -3  -7   8     617     731   1
  -2  -7   8    -233     814   1
  -1  -7   8    7539     969   1
   0  -7   8     876     703   1
   1  -7   8      81     750   1
   2  -7   8    -618    1262   1
   3  -7   8    2718    1119   1
   4  -7   8    -852     874   1
   5  -7   8    -454    1428   1
   6  -7   8     260    1493   1
   7  -7   8     454    1883   1
  -8  -6   8    2532    2077   1
  -7  -6   8     660    1526   1
  -6  -6   8    -457    1331   1
  -5  -6   8    4210    1059   1
  -4  -6   8     244     541   1
  -3  -6   8    -173     528   1
  -2  -6   8     509     470   1
  -1  -6   8     653     614   1
   0  -6   8     403     586   1
   1  -6   8    5587     821   1
   2  -6   8   31747    1842   1
   3  -6   8    3978    1119   1
   4  -6   8    7261    1214   1
   5  -6   8    -594    1032   1
   6  -6   8     718    1154   1
   7  -6   8     782    1308   1
   8  -6   8   -1688    1753   1
  -9  -5   8    1818    2077   1
  -8  -5   8    1558    1818   1
  -7  -5   8    2013    4220   1
  -6  -5   8    2227    1078   1
  -5  -5   8    4156     799   1
  -4  -5   8    1689     544   1
  -3  -5   8   15844    1088   1
  -2  -5   8    3329     565   1
  -1  -5   8    1081     446   1
   0  -5   8    1826     526   1
   1  -5   8    6630     752   1
   2  -5   8     731     911   1
   3  -5   8   45952    2212   1
   4  -5   8    6668    1050   1
   5  -5   8   18512    1581   1
   6  -5   8    4953    1533   1
   7  -5   8    9461    1901   1
   8  -5   8   17260    2499   1
  -9  -4   8    1428    1818   1
  -8  -4   8    3246    2013   1
  -7  -4   8      -4     932   1
  -6  -4   8    -256     639   1
  -5  -4   8    1188     655   1
  -4  -4   8    1355     486   1
  -3  -4   8     443     466   1
  -2  -4   8    2158     501   1
  -1  -4   8   15354     862   1
   0  -4   8    6490     551   1
   1  -4   8    2046     524   1
   2  -4   8   21066    2840   1
   3  -4   8   16616    1294   1
   4  -4   8   55222    3074   1
   5  -4   8    6671    1404   1
   6  -4   8    3810    1303   1
   7  -4   8    2557    1331   1
   8  -4   8    -898    1233   1
   9  -4   8    1008    1491   1
  -9  -3   8    2207    2013   1
  -8  -3   8    5012    1688   1
  -7  -3   8     301     918   1
  -6  -3   8    -357     652   1
  -5  -3   8    -161     559   1
  -4  -3   8   17076    1000   1
  -3  -3   8     789     469   1
  -2  -3   8    5092     574   1
  -1  -3   8    1174     418   1
   0  -3   8    8381     620   1
   1  -3   8   15266     964   1
   2  -3   8    6746     844   1
   3  -3   8    4140     777   1
   4  -3   8    8860    1145   1
   5  -3   8   71581    2607   1
   6  -3   8    2444     870   1
   7  -3   8    4065    1441   1
   8  -3   8    7543    1783   1
   9  -3   8    3700    1607   1
 -10  -2   8    1623    2142   1
  -9  -2   8    -718    1331   1
  -8  -2   8    2147    1283   1
  -7  -2   8     677    1032   1
  -6  -2   8     217     669   1
  -5  -2   8     253     606   1
  -4  -2   8   11354     901   1
  -3  -2   8   10126    1146   1
  -2  -2   8   53913    1686   1
  -1  -2   8   74685    2048   1
   0  -2   8   81639    2278   1
   1  -2   8    5932     584   1
   2  -2   8   45740    1958   1
  -3   2   9   90648    3023  -2
   3  -2   8   90648    3023   1
  -4   2   9    -389     691  -2
   4  -2   8    -389     691   1
  -5   2   9   15215    1198  -2
   5  -2   8   15215    1198   1
  -6   2   9    6722    1050  -2
   6  -2   8    6722    1050   1
  -7   2   9     325    1053  -2
   7  -2   8     325    1053   1
  -8   2   9    5289    1720  -2
   8  -2   8    5289    1720   1
  -9   2   9    -383    1329  -2
   9  -2   8    -383    1329   1
 -10   2   9    2004    2045  -2
  10  -2   8    2004    2045   1
 -10  -1   8    -121    1368   1
  -9  -1   8    1630    1308   1
  -8  -1   8    2044    1329   1
  -7  -1   8    9140    1459   1
  -6  -1   8    -145     721   1
  -5  -1   8    3601     898   1
  -4  -1   8    3332     630   1
  -3  -1   8    8612     863   1
  -2  -1   8    1616     493   1
  -1  -1   8     822     444   1
   0  -1   8    4149     552   1
   1  -1   8   14513     986   1
   2  -1   8    4270     638   1
   3  -1   8    8794     906   1
   4  -1   8   23557    2894   1
   5  -1   8    9017    2033   1
   6  -1   8   11937    1821   1
   7  -1   8   -1239     826   1
   8  -1   8    2301    1329   1
   9  -1   8    1126    1526   1
  10  -1   8    2662    1607   1
 -10   0   8     571    1655   1
  -9   0   8    2911    1395   1
   8   0   8    -901     940  -2
  -8   0   8    -901     940   1
   7   0   8    3288    1138  -2
  -7   0   8    3288    1138   1
   6   0   8   27270    2136  -2
  -6   0   8   27270    2136   1
   5   0   8   17727    1459  -2
  -5   0   8   17727    1459   1
   4   0   8   19006    1261  -2
  -4   0   8   19006    1261   1
   3   0   8    3476     647  -2
  -3   0   8    3476     647   1
   2   0   8   12383     795  -2
  -2   0   8   12383     795   1
   1   0   8    7747     608  -2
  -1   0   8    7747     608   1
   0   0   8    8701     648  -2
   0   0   8    8701     648   1
  -1   0   8   25184    1144  -2
   1   0   8   25184    1144   1
  -2   0   8   13149     898  -2
   2   0   8   13149     898   1
  -3   0   8   12435     964  -2
   3   0   8   12435     964   1
  -4   0   8   14771    1273  -2
   4   0   8   14771    1273   1
  -5   0   8   11824    1205  -2
   5   0   8   11824    1205   1
  -6   0   8    4055    1591  -2
   6   0   8    4055    1591   1
  -7   0   8   13533    1987  -2
   7   0   8   13533    1987   1
  -8   0   8     317    1170  -2
   8   0   8     317    1170   1
   9   0   8    1095    1257   1
  10   0   8    1375    1496   1
 -10   1   8    4312    1737   1
  -9   1   8    1985    1354   1
  -8   1   8    1305    1191   1
  -7   1   8     656     981   1
  -6   1   8    -181     825   1
  -5   1   8   23006    1456   1
  -4   1   8    5123     689   1
  -3   1   8   15816     954   1
  -2   1   8    1313     426   1
  -1   1   8    -332     373   1
   0   1   8   29504    1059   1
   1   1   8   46028    1494   1
   2   1   8    3574     500   1
   3   1   8   12352     704   1
   4   1   8   40516    1632   1
   5   1   8     658     768   1
   6   1   8    8690    1579   1
   7   1   8    7248    1948   1
   8   1   8    1712    1237   1
   9   1   8    2894    2013   1
  10   1   8     399    1558   1
  10  -2   7    3638    2175  -2
 -10   2   8    3638    2175   1
   9  -2   7    1688    1948  -2
  -9   2   8    1688    1948   1
   8  -2   7   10630    2954  -2
  -8   2   8   10630    2954   1
   7  -2   7    -264    1195  -2
  -7   2   8    -264    1195   1
   6  -2   7   14414    1698  -2
  -6   2   8   14414    1698   1
   5  -2   7   67798    2466  -2
  -5   2   8   67798    2466   1
   4  -2   7   18404    1461  -2
  -4   2   8   18404    1461   1
   3  -2   7   28421    1459  -2
  -3   2   8   28421    1459   1
  -2   2   8    2504     573   1
  -1   2   8   31720    1393   1
   1   2   8   22288    1545   1
   2   2   8   34324    2358   1
   3   2   8    3720     623   1
   4   2   8    5218     579   1
   5   2   8  105906    3135   1
   6   2   8   24783    1717   1
   7   2   8     836    1329   1
   8   2   8   -1379    1779   1
   9   2   8    9218    1855   1
  10   2   8    -740    1137   1
 -10   3   8    1493    1421   1
  -9   3   8    4384    1529   1
  -8   3   8    1893    1363   1
  -7   3   8    -825     932   1
  -6   3   8    9947    1543   1
  -5   3   8    7279     952   1
  -4   3   8    2973     936   1
  -3   3   8   15234     999   1
  -2   3   8    7766     716   1
  -1   3   8    -385     351   1
   0   3   8    5279     508   1
   1   3   8     153     366   1
   2   3   8   31888    1647   1
   3   3   8   23600    1205   1
   4   3   8    1862     366   1
   5   3   8   12159     837   1
   6   3   8   63480    2274   1
   7   3   8   16960    3860   1
   8   3   8   -1075    1154   1
   9   3   8   10351    2824   1
  10   3   8    -779    1493   1
  10  -4   6    1467    1461  -2
 -10   4   8    1467    1461   1
  -9   4   8   -1624    1233   1
  -8   4   8    6217    1691   1
  -7   4   8    5825    2085   1
  -6   4   8    9937    2740   1
  -5   4   8     341     678   1
  -4   4   8     -58     644   1
  -3   4   8   29593    1485   1
  -2   4   8    -126     444   1
  -1   4   8  141556    3524   1
   0   4   8   45354    1499   1
   1   4   8   11409     829   1
   2   4   8    5748     721   1
   3   4   8   46837    1725   1
   4   4   8    2193     477   1
   5   4   8   23474    1034   1
   6   4   8    6047     847   1
   7   4   8    3436     858   1
   8   4   8    7032    1559   1
   9   4   8   -1948    1298   1
  10   4   8    2207    1948   1
  -9   5   8    3681    1537   1
  -8   5   8    1218    1257   1
  -7   5   8    1821    1720   1
  -6   5   8    -298     951   1
  -5   5   8   37019    2396   1
  -4   5   8   53645    2181   1
  -3   5   8    1054     463   1
  -2   5   8     172     452   1
  -1   5   8     300     431   1
   0   5   8   14712     947   1
   1   5   8   12402     671   1
   2   5   8    5747     644   1
   3   5   8   38902    1650   1
   4   5   8   70372    2134   1
   5   5   8    2291     458   1
   6   5   8   10660     867   1
   7   5   8    1231    1189   1
   8   5   8   23047    3376   1
   9   5   8    -415    1363   1
  10   5   8    5713    2467   1
  -9   6   8      96    1237   1
  -8   6   8    6776    1697   1
  -7   6   8    5165    1460   1
  -6   6   8    3412    1262   1
  -5   6   8    9057    1153   1
  -4   6   8    1401     594   1
  -3   6   8    3781     588   1
  -2   6   8    9415     777   1
  -1   6   8   28809    1404   1
   0   6   8   26228    1091   1
   1   6   8   15881     806   1
   2   6   8     515     367   1
   3   6   8   27932    1371   1
   4   6   8   89904    2461   1
   5   6   8     562     403   1
   6   6   8   42817    1720   1
   7   6   8     413     704   1
   8   6   8    -950    2402   1
   9   6   8   -1579    1053   1
  10   6   8   -1818    1428   1
  -9   7   8    2337    2077   1
  -8   7   8   -1158    1124   1
  -7   7   8   -1153     940   1
  -6   7   8    5370    1217   1
  -5   7   8    4168     913   1
  -4   7   8    5934     774   1
  -3   7   8    2785     587   1
  -2   7   8    6587     758   1
  -1   7   8    2530     493   1
   0   7   8    2996     462   1
   1   7   8    4064     458   1
   2   7   8   24083    1069   1
   3   7   8    3385     534   1
   4   7   8    6872     685   1
  -5  -7   4   79120    2554  -2
   5   7   8   79120    2554   1
  -6  -7   4    1055     607  -2
   6   7   8    1055     607   1
  -7  -7   4   29642    2166  -2
   7   7   8   29642    2166   1
  -8  -7   4   12724    2662  -2
   8   7   8   12724    2662   1
  -9  -7   4    3260    1460  -2
   9   7   8    3260    1460   1
  -8   8   8    -325    1493   1
  -7   8   8   -1818    1298   1
  -6   8   8    1797    1688   1
  -5   8   8    -511     749   1
  -4   8   8   21093    1394   1
  -3   8   8   52037    2067   1
  -2   8   8  429330   10277   1
  -1   8   8    4217     647   1
   0   8   8   45431    2183   1
   1   8   8     349     346   1
   2   8   8   34531    1234   1
   3   8   8   31144    1303   1
   4   8   8     557     515   1
   5   8   8    9537    1059   1
   6   8   8    1920    1061   1
   7   8   8    8134    1513   1
   8   8   8    5323    1883   1
   9   8   8     322    1225   1
  -8   9   8    -649    1493   1
  -7   9   8    1883    1818   1
  -6   9   8     974    1493   1
   5  -9   3    1539    1200  -2
  -5   9   8    1539    1200   1
   4  -9   3    5923    1045  -2
  -4   9   8    5923    1045   1
   3  -9   3    2790     891  -2
  -3   9   8    2790     891   1
   2  -9   3   15250    1323  -2
  -2   9   8   15250    1323   1
   1  -9   3     463     443  -2
  -1   9   8     463     443   1
   0  -9   3    6236     549  -2
   0   9   8    6236     549   1
  -1  -9   3    4563     525  -2
   1   9   8    4563     525   1
  -2  -9   3    5311     627  -2
   2   9   8    5311     627   1
  -3  -9   3    6449     711  -2
   3   9   8    6449     711   1
  -4  -9   3   29297    1805  -2
   4   9   8   29297    1805   1
  -5  -9   3    2509    1136  -2
   5   9   8    2509    1136   1
  -6  -9   3    2007     997  -2
   6   9   8    2007     997   1
  -7  -9   3    1785    1266  -2
   7   9   8    1785    1266   1
  -8  -9   3    6427    1883  -2
   8   9   8    6427    1883   1
  -9  -9   3    2091    1373  -2
   9   9   8    2091    1373   1
  -7  10   8     390    1623   1
  -6  10   8   10387    2532   1
  -5  10   8    2416    1294   1
  -4  10   8   16441    1741   1
  -3  10   8   24975    2019   1
  -2  10   8    3668    1262   1
  -1  10   8   53981    3144   1
   0  10   8    4166     708   1
   1  10   8     573     444   1
   2  10   8    -147     419   1
   3  10   8     443     556   1
   4  10   8    -407     844   1
   5  10   8     493     805   1
   6  10   8    8825    1373   1
   7  10   8     323    1201   1
   8  10   8    -130    1428   1
   6 -11   2     195    1363  -2
  -6  11   8     195    1363   1
   5 -11   2    2986    1753  -2
  -5  11   8    2986    1753   1
   4 -11   2     -25    1007  -2
  -4  11   8     -25    1007   1
   3 -11   2    4630    1087  -2
  -3  11   8    4630    1087   1
   2 -11   2    1318     816  -2
  -2  11   8    1318     816   1
   1 -11   2    3205     860  -2
  -1  11   8    3205     860   1
   0 -11   2   10559     913  -2
   0  11   8   10559     913   1
  -1 -11   2    6295    1555  -2
   1  11   8    6295    1555   1
  -2 -11   2    2442     867  -2
   2  11   8    2442     867   1
  -3 -11   2     954    1009  -2
   3  11   8     954    1009   1
   4  11   8    7256    1415   1
   5  11   8     887     779   1
   6  11   8    7768    1248   1
   7  11   8    2610    1298   1
  -5  12   8    1493    1688   1
  -4  12   8   14735    1875   1
  -3  12   8    9929    1533   1
  -2  12   8   24225    1848   1
  -1  12   8   15167    1471   1
   0  12   8    6163    1023   1
   1  12   8     554     943   1
   2  12   8    4210    1178   1
   3  12   8      72     952   1
   4  12   8    3857    1526   1
   5  12   8    1883    1493   1
   6  12   8     390    1493   1
  -4  13   8    -325    1363   1
  -3  13   8    -382     967   1
  -2  13   8     337     841   1
  -1  13   8     454    1428   1
   0  13   8     454    1169   1
   1  13   8       0    1169   1
   2  13   8   20450    2402   1
   3  13   8    -584    1169   1
   4  13   8    -974    1169   1
   5  13   8    1753    1493   1
  -2  14   8    2013    1558   1
  -1  14   8   12010    2207   1
   0  14   8    4804    1623   1
   1  14   8   18373    2402   1
   2  14   8    3830    1428   1
   3  14   8     584    1298   1
  -3 -10   9    -678     847   1
  -2 -10   9     313    1170   1
  -1 -10   9    -150    1154   1
   0 -10   9    1523    1428   1
   1 -10   9    1331    1591   1
   2 -10   9     584    1558   1
   5   9  14   -1260    1170  -2
  -5  -9   9   -1260    1170   1
   4   9  14     441     970  -2
  -4  -9   9     441     970   1
   3   9  14    2339    1326  -2
  -3  -9   9    2339    1326   1
   2   9  14     849    1199  -2
  -2  -9   9     849    1199   1
   1   9  14    2213    1340  -2
  -1  -9   9    2213    1340   1
   0   9  14    1220    1303  -2
   0  -9   9    1220    1303   1
  -1   9  14    3393    1445  -2
   1  -9   9    3393    1445   1
  -2   9  14     714    1948  -2
   2  -9   9     714    1948   1
  -3   9  14     200    2110  -2
   3  -9   9     200    2110   1
   4  -9   9     390    1883   1
  -6  -8   9    -661    1276   1
  -5  -8   9    -644    1183   1
  -4  -8   9    1299     995   1
  -3  -8   9     169    1080   1
  -2  -8   9    3960    1377   1
  -1  -8   9    5468    1487   1
   0  -8   9    3214    1461   1
   1  -8   9    1389    1263   1
   2  -8   9    2373    1357   1
   3  -8   9     886    1414   1
   4  -8   9    1039    2013   1
   5  -8   9    1558    1883   1
   7   7  13    2532    1818  -2
  -7  -7   9    2532    1818   1
   6   7  13      94    1257  -2
  -6  -7   9      94    1257   1
  -5  -7   9    3626    2759   1
  -4  -7   9    1890     759   1
  -3  -7   9    4252     995   1
  -2  -7   9    2674    1166   1
  -1  -7   9    5979    1167   1
   0  -7   9    2083    1079   1
   1  -7   9    4559    1850   1
   2  -7   9    1722    1322   1
   3  -7   9    -635    1177   1
   4  -7   9    1233    1753   1
   5  -7   9    -779    1493   1
   6  -7   9    8180    2792   1
  -8  -6   9    1948    1948   1
  -7  -6   9    -325    1558   1
  -6  -6   9     505    1363   1
  -5  -6   9    2035    1035   1
  -4  -6   9     914     753   1
  -3  -6   9     -12     565   1
  -2  -6   9    6236     789   1
  -1  -6   9    2448     757   1
   0  -6   9    5096     838   1
   1  -6   9    3711     809   1
   2  -6   9   14102    1912   1
   3  -6   9   48430    5678   1
   4  -6   9     351    1298   1
   5  -6   9    4392    1467   1
   6  -6   9    1163    1915   1
   7  -6   9    2921    2077   1
  -8  -5   9     519    1818   1
  -7  -5   9    -649    1493   1
  -6  -5   9    3428    1241   1
  -5  -5   9     527     634   1
  -4  -5   9    4235     798   1
  -3  -5   9    2545     662   1
  -2  -5   9     -48     497   1
  -1  -5   9    1278     539   1
   0  -5   9     197     559   1
   1  -5   9      94     603   1
   2  -5   9    4776     927   1
   3  -5   9   65544    2830   1
   4  -5   9     204     787   1
   5  -5   9    1633    1145   1
   6  -5   9     971    1262   1
   7  -5   9    4565    1671   1
   8  -5   9    -338    1303   1
  -9  -4   9    -974    1493   1
  -8  -4   9     -65    1623   1
  -7  -4   9    -140    1366   1
  -6  -4   9     980     871   1
  -5  -4   9    -383     560   1
  -4  -4   9    1058     621   1
  -3  -4   9   23341    1264   1
  -2  -4   9    2174     736   1
  -1  -4   9    8493     819   1
   0  -4   9    4183     628   1
   1  -4   9   29978    2153   1
   2  -4   9   31297    1751   1
   3  -4   9    5959     925   1
   4  -4   9   37765    2069   1
   5  -4   9    3931    1329   1
   6  -4   9      97    1056   1
   7  -4   9     913    1165   1
   8  -4   9    1966    1308   1
  -9  -3   9     779    1948   1
  -8  -3   9    4025    1479   1
  -7  -3   9    3429    1349   1
  -6  -3   9     -70     726   1
  -5  -3   9    2913     786   1
  -4  -3   9    1099     765   1
  -3  -3   9    -413     496   1
  -2  -3   9     -33     470   1
  -1  -3   9     329     449   1
   0  -3   9       3     400   1
   1  -3   9    -648     457   1
   2  -3   9   23396    1458   1
   3  -3   9   22044    1460   1
   4  -3   9      87     674   1
   5  -3   9   20718    2071   1
   6  -3   9   13416    2039   1
   7  -3   9    3772    1445   1
   8  -3   9    -362    1283   1
   9  -3   9    2055    1559   1
  -9  -2   9    1131    1400   1
  -8  -2   9    3604    1493   1
  -7  -2   9    5168    1526   1
  -6  -2   9      84     751   1
  -5  -2   9    -105     545   1
  -4  -2   9   24546    1280   1
  -3  -2   9    1461     714   1
  -2  -2   9   25624    1222   1
  -1  -2   9   70791    2021   1
   0  -2   9   12960    1060   1
   1  -2   9   34544    1443   1
   2  -2   9   31749    2000   1
  -3   2  10    7953     902  -2
   3  -2   9    7953     902   1
  -4   2  10   16749    1267  -2
   4  -2   9   16749    1267   1
  -5   2  10   10628    3830  -2
   5  -2   9   10628    3830   1
  -6   2  10     825    1493  -2
   6  -2   9     825    1493   1
  -7   2  10    1166    1237  -2
   7  -2   9    1166    1237   1
  -8   2  10    1181    1428  -2
   8  -2   9    1181    1428   1
  -9   2  10    -316    1200  -2
   9  -2   9    -316    1200   1
  -9  -1   9    -357    1148   1
  -8  -1   9    -474    1044   1
  -7  -1   9    8240    1737   1
  -6  -1   9    5106    1187   1
  -5  -1   9    2040     743   1
  -4  -1   9    -709     553   1
  -3  -1   9    -758     505   1
  -2  -1   9    7673     774   1
  -1  -1   9    1663     537   1
   0  -1   9  110061    3252   1
   1  -1   9    3927     667   1
   2  -1   9    -216     463   1
   3  -1   9    3209     668   1
   4  -1   9    -482     820   1
   5  -1   9    -350     858   1
   6  -1   9    -444    2370   1
   7  -1   9   42930    3649   1
   8  -1   9    5644    1571   1
   9  -1   9    1883    1423   1
 -10   0   9    -848    1558   1
  -9   0   9     487    1331   1
   8   0   9     679    1216  -2
  -8   0   9     679    1216   1
   7   0   9    2373    1170  -2
  -7   0   9    2373    1170   1
   6   0   9    5440    1176  -2
  -6   0   9    5440    1176   1
   5   0   9    -521     668  -2
  -5   0   9    -521     668   1
   4   0   9   17121    1127  -2
  -4   0   9   17121    1127   1
   3   0   9   16540    1135  -2
  -3   0   9   16540    1135   1
   2   0   9    2156     566  -2
  -2   0   9    2156     566   1
   1   0   9   10836     824  -2
  -1   0   9   10836     824   1
   0   0   9    -261     368  -2
   0   0   9    -261     368   1
  -1   0   9   38967    1544  -2
   1   0   9   38967    1544   1
  -2   0   9     363     395  -2
   2   0   9     363     395   1
  -3   0   9   30098    2575  -2
   3   0   9   30098    2575   1
  -4   0   9   35155    2605  -2
   4   0   9   35155    2605   1
  -5   0   9     534     887  -2
   5   0   9     534     887   1
  -6   0   9    5338    1386  -2
   6   0   9    5338    1386   1
  -7   0   9     470    1072  -2
   7   0   9     470    1072   1
  -8   0   9     669    1191  -2
   8   0   9     669    1191   1
   9   0   9    1331    1377   1
  10   0   9    -470    1349   1
 -10   1   9     316    1421   1
  -9   1   9    -307    1170   1
  -8   1   9    3380    1403   1
  -7   1   9    2481    1146   1
  -6   1   9    2966    1079   1
  -5   1   9    1155     802   1
  -4   1   9    -321     523   1
  -3   1   9    1831     539   1
  -2   1   9     474     424   1
  -1   1   9    6554     707   1
   0   1   9    1532     400   1
   1   1   9    2519     523   1
   2   1   9   10267     782   1
   3   1   9    8005     574   1
   4   1   9  140662    3870   1
   5   1   9   37363    3030   1
   6   1   9   48003    7693   1
   7   1   9    2197    1211   1
   8   1   9    4446    1487   1
   9   1   9    -289    1217   1
  10   1   9    2409    1533   1
  10  -2   8    1340    1533  -2
 -10   2   9    1340    1533   1
   9  -2   8     371    1375  -2
  -9   2   9     371    1375   1
   8  -2   8    2985    1354  -2
  -8   2   9    2985    1354   1
   7  -2   8     204    1019  -2
  -7   2   9     204    1019   1
   6  -2   8   10858    1566  -2
  -6   2   9   10858    1566   1
   5  -2   8   42160    3222  -2
  -5   2   9   42160    3222   1
   4  -2   8    2773     647  -2
  -4   2   9    2773     647   1
   3  -2   8   77885    2262  -2
  -3   2   9   77885    2262   1
  -2   2   9   32259    1521   1
  -1   2   9   21722    1755   1
   0   2   9   16620    2337   1
   1   2   9   72805    1995   1
   2   2   9   45633    3615   1
   3   2   9   17354    1297   1
   4   2   9   14649     931   1
   5   2   9    2471     539   1
   6   2   9    1685     893   1
   7   2   9   -1375    2160   1
   8   2   9    2887    1276   1
   9   2   9   -1486    1078   1
  10   2   9    -519    1753   1
  -9   3   9    2636    1579   1
  -8   3   9    -799    1053   1
  -7   3   9   19312    2119   1
  -6   3   9   11205    2274   1
  -5   3   9    2035     988   1
  -4   3   9   14400    1062   1
  -3   3   9     100     503   1
  -2   3   9   10870     921   1
  -1   3   9   11263    1108   1
   0   3   9    5681     528   1
   1   3   9     209     421   1
   2   3   9   19936    2136   1
   3   3   9    -150     510   1
   4   3   9   53416    1994   1
   5   3   9    4145     647   1
   6   3   9   70983    2699   1
   7   3   9    6005    1460   1
   8   3   9    8841    1767   1
   9   3   9    1396    1396   1
  10   3   9    1039    1883   1
  -9   4   9    2043    1441   1
  -8   4   9    9909    2824   1
  -7   4   9   -1877    1452   1
  -6   4   9   14871    1896   1
  -5   4   9   13935    1672   1
  -4   4   9   12400    3571   1
  -3   4   9     970     531   1
  -2   4   9   52573    2648   1
  -1   4   9   10727     989   1
   0   4   9   12467     761   1
   1   4   9   46733    2104   1
   2   4   9   46510    1973   1
   3   4   9   20117    1195   1
   4   4   9   61111    1889   1
   5   4   9   36004    1295   1
   6   4   9    3819     761   1
   7   4   9    6561    2281   1
   8   4   9    5099    1479   1
   9   4   9     -65    1623   1
  10   4   9    -519    1623   1
  -9   5   9     743    2013   1
  -8   5   9    4556    1496   1
  -7   5   9    2395    1237   1
  -6   5   9   -1449    2698   1
  -5   5   9    8433    1605   1
  -4   5   9     560     712   1
  -3   5   9     110     521   1
  -2   5   9   26629    1923   1
  -1   5   9     755     488   1
   0   5   9    3713     644   1
   1   5   9    2355     570   1
   2   5   9    6809     835   1
   3   5   9   45639    1773   1
   4   5   9     655     478   1
   5   5   9  143701    3423   1
   6   5   9   35431    1521   1
   7   5   9    2798    1086   1
   8   5   9    6297    2272   1
   9   5   9    1233    1818   1
  10   5   9     714    1753   1
  -9   6   9     835    1349   1
  -8   6   9     281    1200   1
  -7   6   9    2334    1340   1
  -6   6   9    -494    1053   1
  -5   6   9   30214    2090   1
  -4   6   9  103463    3423   1
  -3   6   9     -60     565   1
  -2   6   9    9343     807   1
  -1   6   9   13593    1126   1
   0   6   9     533     488   1
   1   6   9  106562    2519   1
   2   6   9   24535    1451   1
   3   6   9   34742    1624   1
   4   6   9   21032    1149   1
   5   6   9    -115     573   1
   6   6   9    3239     755   1
   7   6   9    4090    1623   1
   8   6   9     195    1493   1
   9   6   9    2857    1948   1
  -8   7   9     714    1753   1
  -7   7   9    1117    1191   1
  -6   7   9    -729    1331   1
  -5   7   9     714     964   1
  -4   7   9    6439     851   1
  -3   7   9     449     611   1
  -2   7   9    4917     675   1
  -1   7   9    9167     849   1
   0   7   9    5883     644   1
   1   7   9    3115     439   1
   2   7   9   58058    2059   1
   3   7   9   11997     963   1
   4   7   9   13894    1053   1
  -5  -7   5    7972     981  -2
   5   7   9    7972     981   1
  -6  -7   5   37089    2802  -2
   6   7   9   37089    2802   1
  -7  -7   5    -611    1007  -2
   7   7   9    -611    1007   1
  -8  -7   5    2921    1818  -2
   8   7   9    2921    1818   1
  -9  -7   5       0    1753  -2
   9   7   9       0    1753   1
  -8   8   9    3246    2077   1
  -7   8   9    4090    1948   1
  -6   8   9    -564    1129   1
  -5   8   9    1674    1007   1
  -4   8   9    1977     825   1
  -3   8   9      84     815   1
  -2   8   9    1185     688   1
  -1   8   9    1929     542   1
   0   8   9   10699     798   1
   1   8   9   11132     786   1
   2   8   9   18346     916   1
   3   8   9   41974    2185   1
   4   8   9   25625    1580   1
   5   8   9    1317     712   1
   6   8   9    1440    1029   1
   7   8   9    3453    1279   1
   8   8   9    2207    1558   1
   9   8   9     714    1753   1
  -7   9   9    4544    2142   1
  -6   9   9    6492    2272   1
   5  -9   4    8333    2499  -2
  -5   9   9    8333    2499   1
   4  -9   4    1384     927  -2
  -4   9   9    1384     927   1
   3  -9   4    2745     950  -2
  -3   9   9    2745     950   1
   2  -9   4   12593    2463  -2
  -2   9   9   12593    2463   1
   1  -9   4    3027     985  -2
  -1   9   9    3027     985   1
   0  -9   4    7335     798  -2
   0   9   9    7335     798   1
  -1  -9   4   14439    1166  -2
   1   9   9   14439    1166   1
  -2  -9   4    4406     721  -2
   2   9   9    4406     721   1
  -3  -9   4   13640    1107  -2
   3   9   9   13640    1107   1
  -4  -9   4   10845    1419  -2
   4   9   9   10845    1419   1
  -5  -9   4     122     853  -2
   5   9   9     122     853   1
  -6  -9   4    6338    1368  -2
   6   9   9    6338    1368   1
  -7  -9   4    4515    1396  -2
   7   9   9    4515    1396   1
  -8  -9   4    1363    1558  -2
   8   9   9    1363    1558   1
  -7  10   9     584    1688   1
  -6  10   9    1233    1818   1
  -5  10   9     714    1428   1
  -4  10   9    5694    1249   1
  -3  10   9    6845    1266   1
  -2  10   9   60616    3484   1
  -1  10   9   36811    2279   1
   0  10   9    1459     588   1
   1  10   9    4222     687   1
   2  10   9    5720     927   1
   3  10   9    1380     730   1
   4  10   9    -214     745   1
   5  10   9    5625    1183   1
   6  10   9    1834    1071   1
   7  10   9     816    1688   1
   8  10   9    -974    1298   1
   6 -11   3    5908    2207  -2
  -6  11   9    5908    2207   1
   5 -11   3    -649    1428  -2
  -5  11   9    -649    1428   1
   4 -11   3    3441    1753  -2
  -4  11   9    3441    1753   1
   3 -11   3     375     865  -2
  -3  11   9     375     865   1
   2 -11   3    4075    1061  -2
  -2  11   9    4075    1061   1
   1 -11   3    -201     734  -2
  -1  11   9    -201     734   1
   0 -11   3    -317     579  -2
   0  11   9    -317     579   1
  -1 -11   3    1660     726  -2
   1  11   9    1660     726   1
  -2 -11   3    3751     826  -2
   2  11   9    3751     826   1
  -3 -11   3    1155     675  -2
   3  11   9    1155     675   1
   4  11   9    2469     788   1
   5  11   9    3873     983   1
   6  11   9    4091    1154   1
   7  11   9     366    1104   1
  -5  12   9    8764    2467   1
  -4  12   9    1363    1428   1
  -3  12   9   10610    3019   1
  -2  12   9     834     915   1
  -1  12   9   20858    1741   1
   0  12   9    1500     753   1
   1  12   9    8505    1883   1
   2  12   9    8245    1948   1
   3  12   9    -454    1233   1
   4  12   9    1428    1493   1
   5  12   9     714    1558   1
   6  12   9    1428    1818   1
  -4  13   9    1363    1558   1
  -3  13   9     413    1104   1
  -2  13   9     432     904   1
  -1  13   9     461     805   1
   0  13   9    1039    1233   1
   1  13   9    1948    1363   1
   2  13   9   11036    2013   1
   3  13   9    1948    1428   1
   4  13   9    1753    1493   1
   5  13   9    -454    1558   1
  -1  14   9     779    1428   1
   0  14   9    5973    1948   1
   1  14   9    3895    1688   1
   2  14   9    3636    1558   1
   3   9  15    1969    1321  -2
  -3  -9  10    1969    1321   1
   2   9  15    1818    2727  -2
  -2  -9  10    1818    2727   1
   1   9  15     666    1400  -2
  -1  -9  10     666    1400   1
   0   9  15     654    1368  -2
   0  -9  10     654    1368   1
  -1   9  15    -531    1279  -2
   1  -9  10    -531    1279   1
  -2   9  15    1948    2142  -2
   2  -9  10    1948    2142   1
  -5  -8  10   -1344    1237   1
  -4  -8  10    1546    1073   1
  -3  -8  10   -1270    1170   1
  -2  -8  10    -325    2207   1
  -1  -8  10    3551    1445   1
   0  -8  10    3478    2175   1
   1  -8  10   17788    3441   1
   2  -8  10   -1004    1229   1
   3  -8  10     195    1818   1
   4  -8  10    1169    2077   1
   6   7  14     130    1688  -2
  -6  -7  10     130    1688   1
  -5  -7  10     838    1326   1
  -4  -7  10    1968     823   1
  -3  -7  10     -42    1298   1
  -2  -7  10    -566    1061   1
  -1  -7  10    1890    1232   1
   0  -7  10     837    1217   1
   1  -7  10   19408    2479   1
   2  -7  10   -1015    1247   1
   3  -7  10    1169    1753   1
   4  -7  10     649    2013   1
   5  -7  10    3311    2142   1
  -7  -6  10       0    1623   1
  -6  -6  10     844    1623   1
  -5  -6  10     536    1014   1
  -4  -6  10     -15     785   1
  -3  -6  10    4009    1011   1
  -2  -6  10      99     684   1
  -1  -6  10     257     835   1
   0  -6  10   60234    3599   1
   1  -6  10    4879    1244   1
   2  -6  10   24808    3089   1
   3  -6  10    1006    1200   1
   4  -6  10     359    1165   1
   5  -6  10    -390    1558   1
   6  -6  10    4285    2207   1
  -7  -5  10     -65    1623   1
  -6  -5  10    4220    2077   1
  -5  -5  10    1074     807   1
  -4  -5  10     421     719   1
  -3  -5  10    1276     655   1
  -2  -5  10     714     571   1
  -1  -5  10    4994     732   1
   0  -5  10    2316     742   1
   1  -5  10   12948    1273   1
   2  -5  10     421     758   1
   3  -5  10   13422    1642   1
   4  -5  10    1093     970   1
   5  -5  10     357    1239   1
   6  -5  10    1220    1293   1
   7  -5  10    7983    1905   1
  -8  -4  10   -2077    1558   1
  -7  -4  10   -1428    1493   1
  -6  -4  10    1666    1071   1
  -5  -4  10    -865     607   1
  -4  -4  10    4492     827   1
  -3  -4  10   23536    1323   1
  -2  -4  10    5746     738   1
  -1  -4  10   19684    1124   1
   0  -4  10   30373    1293   1
   1  -4  10   32213    1601   1
   2  -4  10   20645    1502   1
   3  -4  10    -305     745   1
   4  -4  10    7719    1327   1
   5  -4  10     491     973   1
   6  -4  10    -390    1461   1
   7  -4  10    -241    1526   1
   8  -4  10   -1804    1233   1
  -8  -3  10    -584    1688   1
  -7  -3  10    -458    1009   1
  -6  -3  10     646    1055   1
  -5  -3  10    1923     701   1
  -4  -3  10     -35     721   1
  -3  -3  10    -223     588   1
  -2  -3  10   14722    1013   1
  -1  -3  10   13637     937   1
   0  -3  10     174     450   1
   1  -3  10    5670     733   1
   2  -3  10   24608    1574   1
   3  -3  10   16512    1335   1
   4  -3  10   10189    1273   1
   5  -3  10    7955    1386   1
   6  -3  10    4218    1655   1
   7  -3  10    -292    1148   1
   8  -3  10    5454    1783   1
  -9  -2  10    1298    1818   1
  -8  -2  10    2901    1460   1
  -7  -2  10     -97    1056   1
  -6  -2  10     126     852   1
  -5  -2  10    3531     832   1
  -4  -2  10    2066     682   1
  -3  -2  10    3796     679   1
  -2  -2  10   24395    1444   1
  -1  -2  10   15585    1016   1
   0  -2  10    8073     986   1
   1  -2  10    9143     714   1
   2  -2  10   19398    1322   1
  -3   2  11    1895     728  -2
   3  -2  10    1895     728   1
  -4   2  11   12184    1261  -2
   4  -2  10   12184    1261   1
  -5   2  11   13922    1996  -2
   5  -2  10   13922    1996   1
  -6   2  11    7385    1651  -2
   6  -2  10    7385    1651   1
  -7   2  11    2650    1460  -2
   7  -2  10    2650    1460   1
  -8   2  11    1027    2207  -2
   8  -2  10    1027    2207   1
  -9   2  11    1710    1525  -2
   9  -2  10    1710    1525   1
  -9  -1  10    1442    1467   1
  -8  -1  10    1901    1349   1
  -7  -1  10    -593    1026   1
  -6  -1  10    3368    1027   1
  -5  -1  10    1090     709   1
  -4  -1  10    2022     718   1
  -3  -1  10    2476     695   1
  -2  -1  10    2037     655   1
  -1  -1  10    -508     526   1
   0  -1  10   11645    1015   1
   1  -1  10    5110     621   1
   2  -1  10   67524    2447   1
   3  -1  10   11705    1064   1
   4  -1  10   45161    2499   1
   5  -1  10    2604    1216   1
   6  -1  10    4563    1441   1
   7  -1  10    8236    1809   1
   8  -1  10    2427    1623   1
   9  -1  10    5116    2077   1
  -9   0  10     143    1655   1
   8   0  10    3273    2889  -2
  -8   0  10    3273    2889   1
   7   0  10   24665    3798  -2
  -7   0  10   24665    3798   1
   6   0  10    2308    1041  -2
  -6   0  10    2308    1041   1
   5   0  10    6030     932  -2
  -5   0  10    6030     932   1
   4   0  10    3578     779  -2
  -4   0  10    3578     779   1
   3   0  10   35695    1760  -2
  -3   0  10   35695    1760   1
   2   0  10   10441     904  -2
  -2   0  10   10441     904   1
   1   0  10    7560    1087  -2
  -1   0  10    7560    1087   1
   0   0  10    8469     876  -2
   0   0  10    8469     876   1
  -1   0  10    5249     679  -2
   1   0  10    5249     679   1
  -2   0  10   30407    1841  -2
   2   0  10   30407    1841   1
  -3   0  10   98158    3144  -2
   3   0  10   98158    3144   1
  -4   0  10    2207     766  -2
   4   0  10    2207     766   1
  -5   0  10   25128    5064  -2
   5   0  10   25128    5064   1
  -6   0  10    2075    1216  -2
   6   0  10    2075    1216   1
  -7   0  10    7255    1980  -2
   7   0  10    7255    1980   1
  -8   0  10    3087    1419  -2
   8   0  10    3087    1419   1
   9   0  10     438    1363   1
  -9   1  10    3419    1618   1
  -8   1  10     990    1262   1
  -7   1  10    2694    3311   1
  -6   1  10    6242    1376   1
  -5   1  10    -636     632   1
  -4   1  10    2330     711   1
  -3   1  10    9328    1290   1
  -2   1  10    2097     719   1
  -1   1  10    5058     688   1
   0   1  10   17457     908   1
   1   1  10   32916    1417   1
   2   1  10    1570     530   1
   3   1  10    6431     551   1
   4   1  10   17133    1006   1
   5   1  10    2694    1124   1
   6   1  10   10260    1809   1
   7   1  10    5189    1583   1
   8   1  10     -75    1078   1
   9   1  10    -490    1138   1
   9  -2   9   -1855    1237  -2
  -9   2  10   -1855    1237   1
   8  -2   9    2253    1395  -2
  -8   2  10    2253    1395   1
   7  -2   9    4515    1487  -2
  -7   2  10    4515    1487   1
   6  -2   9     750     979  -2
  -6   2  10     750     979   1
   5  -2   9    8372    1391  -2
  -5   2  10    8372    1391   1
   4  -2   9    6799     807  -2
  -4   2  10    6799     807   1
   3  -2   9   20321    1338  -2
  -3   2  10   20321    1338   1
  -2   2  10   15756    1219   1
  -1   2  10   54121    1978   1
   0   2  10    2488     451   1
   1   2  10   82578    2244   1
   2   2  10    9803    1055   1
   3   2  10    7309    1537   1
   4   2  10   57492    2384   1
   5   2  10     278     665   1
   6   2  10     -16    2142   1
   7   2  10   -1726    1363   1
   8   2  10   -1099     980   1
   9   2  10     130    1331   1
  -9   3  10    1411    1487   1
  -8   3  10     116    1232   1
  -7   3  10    4607    1487   1
  -6   3  10      60    1055   1
  -5   3  10    1401     900   1
  -4   3  10   29153    1465   1
  -3   3  10   24929    1502   1
  -2   3  10    -287     512   1
  -1   3  10    8612     894   1
   0   3  10     785     396   1
   1   3  10    1907     492   1
   2   3  10   10335    1236   1
   3   3  10   34553    2221   1
   4   3  10   82569    2922   1
   5   3  10   17005    1546   1
   6   3  10   14936    1794   1
   7   3  10    4034    1395   1
   8   3  10    4138    1421   1
   9   3  10    7141    2532   1
  -9   4  10     871    1487   1
  -8   4  10     971    1237   1
  -7   4  10    7594    1697   1
  -6   4  10   11095    1712   1
  -5   4  10    2926    1145   1
  -4   4  10    5071    1135   1
  -3   4  10    4144     886   1
  -2   4  10   34591    1904   1
  -1   4  10   16900    1090   1
   0   4  10   39010    1940   1
   1   4  10   11880     934   1
   2   4  10   64481    4001   1
   3   4  10   14401    1241   1
   4   4  10   41981    1705   1
   5   4  10    1057     583   1
   6   4  10    2619     970   1
   7   4  10    1650    1165   1
   8   4  10    2402    1753   1
   9   4  10    -584    1623   1
  -9   5  10    -545    1229   1
  -8   5  10    2861    1467   1
  -7   5  10   -1499    1493   1
  -6   5  10   18869    4509   1
  -5   5  10    -236    2121   1
  -4   5  10    5293    1248   1
  -3   5  10   12998    1141   1
  -2   5  10   47514    1941   1
  -1   5  10     752     542   1
   0   5  10   10917     950   1
   1   5  10   27021    1418   1
   2   5  10    4502     804   1
   3   5  10   53533    2614   1
   4   5  10     309     493   1
   5   5  10   28520    1511   1
   6   5  10    -805    1172   1
   7   5  10   20320    3311   1
   8   5  10     779    1688   1
   9   5  10    6362    2467   1
  -8   6  10     227    1285   1
  -7   6  10   -1329     967   1
  -6   6  10    1733    1191   1
  -5   6  10    7039    1507   1
  -4   6  10   12359    3343   1
  -3   6  10   35187    3292   1
  -2   6  10     734     552   1
  -1   6  10   32224    1679   1
   0   6  10   14438    1094   1
   1   6  10   86033    2348   1
   2   6  10   33891    1820   1
   3   6  10    6924     824   1
   4   6  10   10999     956   1
   5   6  10     918     608   1
   6   6  10    5951    2532   1
   7   6  10   -1125    2077   1
   8   6  10     519    1558   1
   9   6  10    -649    1493   1
  -8   7  10    2013    1948   1
  -7   7  10     454    1558   1
  -6   7  10    -384    1032   1
  -5   7  10    3693    1229   1
  -4   7  10    1157     911   1
  -3   7  10   18673    2080   1
  -2   7  10    1035     556   1
  -1   7  10     -85     524   1
   0   7  10    -269     491   1
   1   7  10    4799     494   1
   2   7  10   10188    1058   1
   3   7  10   10011    1228   1
   4   7  10     203     549   1
  -5  -7   6    2877     764  -2
   5   7  10    2877     764   1
  -6  -7   6   22757    1896  -2
   6   7  10   22757    1896   1
  -7  -7   6    2678    1308  -2
   7   7  10    2678    1308   1
  -8  -7   6    5194    2142  -2
   8   7  10    5194    2142   1
  -9  -7   6    2921    2013  -2
   9   7  10    2921    2013   1
  -8   8  10     325    1688   1
  -7   8  10    1233    1818   1
  -6   8  10    -469    2110   1
  -5   8  10     787    1266   1
  -4   8  10   82997    4324   1
  -3   8  10   58755    3120   1
  -2   8  10   11290    1213   1
  -1   8  10    2063     705   1
   0   8  10   62307    2480   1
   1   8  10    1211     466   1
   2   8  10    5048     754   1
   3   8  10    3871    1004   1
   4   8  10    8996    1685   1
   5   8  10    2084    1087   1
   6   8  10     127     996   1
   7   8  10     195    1298   1
   8   8  10    2467    1818   1
  -7   9  10     714    1688   1
  -6   9  10     584    1688   1
   5  -9   5    3158    1501  -2
  -5   9  10    3158    1501   1
   4  -9   5    -296    1150  -2
  -4   9  10    -296    1150   1
   3  -9   5    2184     993  -2
  -3   9  10    2184     993   1
   2  -9   5    2538     961  -2
  -2   9  10    2538     961   1
   1  -9   5    -125     764  -2
  -1   9  10    -125     764   1
   0  -9   5     815     704  -2
   0   9  10     815     704   1
  -1  -9   5    1195     674  -2
   1   9  10    1195     674   1
  -2  -9   5    4418     907  -2
   2   9  10    4418     907   1
  -3  -9   5     974     826  -2
   3   9  10     974     826   1
  -4  -9   5   18494    1960  -2
   4   9  10   18494    1960   1
  -5  -9   5    -306     935  -2
   5   9  10    -306     935   1
  -6  -9   5     399    1069  -2
   6   9  10     399    1069   1
  -7  -9   5    3051    1688  -2
   7   9  10    3051    1688   1
  -8  -9   5    -844    1363  -2
   8   9  10    -844    1363   1
  -6  10  10    7985    2467   1
  -5  10  10     649    1558   1
  -4  10  10   14133    2234   1
  -3  10  10     187     891   1
  -2  10  10     757     836   1
  -1  10  10    -216     736   1
   0  10  10   17676    2039   1
   1  10  10     944     782   1
   2  10  10   13215    3084   1
   3  10  10     506     873   1
   4  10  10   19929    2532   1
   5  10  10    1789    1014   1
   6  10  10    1879    1117   1
   7  10  10    -130    1428   1
   5 -11   4     779    1753  -2
  -5  11  10     779    1753   1
   4 -11   4    6362    2077  -2
  -4  11  10    6362    2077   1
   3 -11   4     253     898  -2
  -3  11  10     253     898   1
   2 -11   4    2516    1054  -2
  -2  11  10    2516    1054   1
   1 -11   4     925     829  -2
  -1  11  10     925     829   1
   0 -11   4    9353    2465  -2
   0  11  10    9353    2465   1
  -1 -11   4    7028    1263  -2
   1  11  10    7028    1263   1
  -2 -11   4     -22     811  -2
   2  11  10     -22     811   1
  -3 -11   4   12435    1482  -2
   3  11  10   12435    1482   1
   4  11  10     -83     853   1
   5  11  10   20004    3473   1
   6  11  10     552    1057   1
  -4  12  10     -65    1493   1
  -3  12  10    6687    2013   1
  -2  12  10    1208    1026   1
  -1  12  10   10165    1429   1
   0  12  10    1596     861   1
   1  12  10   12614    1980   1
   2  12  10    4230     961   1
   3  12  10    2828     843   1
   4  12  10    -609     718   1
   5  12  10    -117    1785   1
  -3  13  10    -974    1233   1
  -2  13  10     -16     940   1
  -1  13  10    1366     967   1
   0  13  10    1678     853   1
   1  13  10     584    1363   1
   2  13  10    2013    1558   1
   3  13  10   -1104    1428   1
   4  13  10    2532    1688   1
  -3  -8  11     130    1753   1
  -2  -8  11   10452    2792   1
  -1  -8  11   -2240    1493   1
   0  -8  11    -260    1753   1
   1  -8  11    1493    1948   1
   2  -8  11      65    1948   1
   3  -8  11    2986    2402   1
  -5  -7  11    5973    1653   1
  -4  -7  11     376    1170   1
  -3  -7  11    1169    1753   1
  -2  -7  11     618    1273   1
  -1  -7  11      77    1247   1
   0  -7  11    2727    2077   1
   1  -7  11    8245    2597   1
   2  -7  11    1104    2013   1
   3  -7  11    2921    2142   1
   4  -7  11    1493    2207   1
  -6  -6  11     454    1753   1
  -5  -6  11    3720    1513   1
  -4  -6  11     108    1014   1
  -3  -6  11    5690    1717   1
  -2  -6  11    5932    1478   1
  -1  -6  11    1245    1310   1
   0  -6  11   16343    2382   1
   1  -6  11    2467    2013   1
   2  -6  11    6557    2532   1
   3  -6  11     649    1948   1
   4  -6  11    4090    2532   1
   5  -6  11     454    1818   1
  -7  -5  11     779    1688   1
  -6  -5  11    3830    2013   1
  -5  -5  11     959    1116   1
  -4  -5  11    -239     969   1
  -3  -5  11     661     731   1
  -2  -5  11    2084     929   1
  -1  -5  11   -1078     956   1
   0  -5  11    3353    1115   1
   1  -5  11   15749    1951   1
   2  -5  11    2917    1391   1
   3  -5  11    6106    1358   1
   4  -5  11    -599    1233   1
   5  -5  11    5617    1737   1
   6  -5  11    1493    1403   1
  -7  -4  11    1104    1688   1
  -6  -4  11   -1883    1363   1
  -5  -4  11       6     958   1
  -4  -4  11    1962     914   1
  -3  -4  11    -134     648   1
  -2  -4  11    -306     862   1
  -1  -4  11     673     637   1
   0  -4  11    2283     851   1
   1  -4  11    5727    1023   1
   2  -4  11   11133    1348   1
   3  -4  11   12805    1561   1
   4  -4  11    6883    1369   1
   5  -4  11    7002    3538   1
   6  -4  11    1104    1285   1
   7  -4  11    -803    1237   1
  -8  -3  11     325    1948   1
  -7  -3  11    -844    1623   1
  -6  -3  11    -109    1124   1
  -5  -3  11      27     745   1
  -4  -3  11     918     761   1
  -3  -3  11    -699     601   1
  -2  -3  11    3263     836   1
  -1  -3  11    -688     613   1
   0  -3  11    6965     697   1
   1  -3  11   23231    1590   1
   2  -3  11    3158     916   1
   3  -3  11     324     820   1
   4  -3  11    4138    1022   1
   5  -3  11    9131    2305   1
   6  -3  11    4708    1664   1
   7  -3  11    3431    1491   1
  -8  -2  11     -16    1308   1
  -7  -2  11     651    1308   1
  -6  -2  11    1758    1262   1
  -5  -2  11    3378     805   1
  -4  -2  11    1022     737   1
  -3  -2  11    1063     657   1
  -2  -2  11    4124     731   1
  -1  -2  11    7875     848   1
   0  -2  11   42108    1832   1
   1  -2  11   25081    1203   1
   2  -2  11    3429     884   1
   3  -2  11   32820    2288   1
  -4   2  12    5284    1436  -2
   4  -2  11    5284    1436   1
  -5   2  12   13594    2131  -2
   5  -2  11   13594    2131   1
  -6   2  12    3318    1467  -2
   6  -2  11    3318    1467   1
  -7   2  12       7    2662  -2
   7  -2  11       7    2662   1
  -8   2  12     -23    1363  -2
   8  -2  11     -23    1363   1
  -8  -1  11   -1266    1102   1
  -7  -1  11     358    1526   1
  -6  -1  11    -307    1078   1
  -5  -1  11    -432     699   1
  -4  -1  11     151     738   1
  -3  -1  11     375     868   1
  -2  -1  11   14655    1440   1
  -1  -1  11    -517     569   1
   0  -1  11    3036     820   1
   1  -1  11   17396    1046   1
   2  -1  11    7928    1035   1
   3  -1  11     656     703   1
   4  -1  11    5020     950   1
   5  -1  11   12327    1803   1
   6  -1  11     383    1211   1
   7  -1  11    1042    1266   1
   8  -1  11    -779    1818   1
  -8   0  11    2520    1487   1
   7   0  11    -312    1591  -2
  -7   0  11    -312    1591   1
   6   0  11    3057    1185  -2
  -6   0  11    3057    1185   1
   5   0  11    7538    1041  -2
  -5   0  11    7538    1041   1
   4   0  11   28984    1875  -2
  -4   0  11   28984    1875   1
   3   0  11   30677    2492  -2
  -3   0  11   30677    2492   1
   2   0  11   32380    2577  -2
  -2   0  11   32380    2577   1
   1   0  11   24534    1609  -2
  -1   0  11   24534    1609   1
   0   0  11   66905    2460  -2
   0   0  11   66905    2460   1
  -1   0  11    7239     893  -2
   1   0  11    7239     893   1
  -2   0  11   44822    2933  -2
   2   0  11   44822    2933   1
  -3   0  11   14748    1248  -2
   3   0  11   14748    1248   1
  -4   0  11   58418    2726  -2
   4   0  11   58418    2726   1
  -5   0  11     506    1233  -2
   5   0  11     506    1233   1
  -6   0  11    7660    1728  -2
   6   0  11    7660    1728   1
  -7   0  11     661    1233  -2
   7   0  11     661    1233   1
   8   0  11    -160    1211   1
  -9   1  11   -1375    1349   1
  -8   1  11   -1496     997   1
  -7   1  11     357    1148   1
  -6   1  11    8718    1524   1
  -5   1  11     107     905   1
  -4   1  11    1720     780   1
  -3   1  11     748     658   1
  -2   1  11    -265     647   1
  -1   1  11    4974    1169   1
   0   1  11    1270     857   1
   1   1  11   21216    1440   1
   2   1  11   48255    2185   1
   3   1  11   34523    1413   1
   4   1  11    -371     533   1
   5   1  11   14100    2039   1
   6   1  11    4691    1421   1
   7   1  11   11759    1993   1
   8   1  11    4936    1675   1
   9   1  11     965    1450   1
   9  -2  10     503    1461  -2
  -9   2  11     503    1461   1
   8  -2  10    1833    1340  -2
  -8   2  11    1833    1340   1
   7  -2  10   12490    2152  -2
  -7   2  11   12490    2152   1
   6  -2  10    7467    2540  -2
  -6   2  11    7467    2540   1
   5  -2  10    7499    1162  -2
  -5   2  11    7499    1162   1
   4  -2  10   39414    2214  -2
  -4   2  11   39414    2214   1
   3  -2  10    1929     898  -2
  -3   2  11    1929     898   1
  -2   2  11   46336    2600   1
  -1   2  11   19465    1239   1
   0   2  11   32004    1372   1
   1   2  11   27918    1446   1
   2   2  11   76698    2874   1
   3   2  11   11273    1697   1
   4   2  11    1029     890   1
   5   2  11   34843    3020   1
   6   2  11    -625    1032   1
   7   2  11     763    2272   1
   8   2  11     188    1818   1
   9   2  11    1123    1655   1
  -8   3  11    -268    1107   1
  -7   3  11    2333    2921   1
  -6   3  11   -1384     938   1
  -5   3  11    4083    1302   1
  -4   3  11    7155    1077   1
  -3   3  11    1228     871   1
  -2   3  11     935     744   1
  -1   3  11     176     513   1
   0   3  11    8389     721   1
   1   3  11    9969     780   1
   2   3  11    4828     850   1
   3   3  11   71632    3285   1
   4   3  11    4187     819   1
   5   3  11    1311    2532   1
   6   3  11   44120    3627   1
   7   3  11     300    1072   1
   8   3  11    1425    1303   1
   9   3  11    3116    2077   1
  -8   4  11    -605    1201   1
  -7   4  11     874    1298   1
  -6   4  11     451    1805   1
  -5   4  11    9901    2441   1
  -4   4  11    1890    1789   1
  -3   4  11   27283    2086   1
  -2   4  11    6097     887   1
  -1   4  11   53986    2048   1
   0   4  11   83303    2567   1
   1   4  11     955     592   1
   2   4  11   61000    2968   1
   3   4  11    3857    1048   1
   4   4  11   17936    1932   1
   5   4  11    2272     829   1
   6   4  11    8826    1756   1
   7   4  11     260    1148   1
   8   4  11    3376    2077   1
   9   4  11    2337    2013   1
  -8   5  11    -611    1170   1
  -7   5  11      96    1233   1
  -6   5  11    6876    3199   1
  -5   5  11    3844    1297   1
  -4   5  11    6718    1476   1
  -3   5  11     388     766   1
  -2   5  11    -176     576   1
  -1   5  11    -627     513   1
   0   5  11   19314    1360   1
   1   5  11   20387    1604   1
   2   5  11    1302     707   1
   3   5  11   11813    1357   1
   4   5  11   46588    2220   1
   6   5  11    1268    1107   1
   7   5  11    1558    1688   1
   8   5  11    2857    2013   1
   9   5  11    2792    2013   1
  -8   6  11     552    1331   1
  -7   6  11    -201    1191   1
  -6   6  11    8747    3095   1
  -5   6  11    6543    4273   1
  -4   6  11    6834    2123   1
  -3   6  11    -932     621   1
  -2   6  11   53949    2375   1
  -1   6  11   20233    1231   1
   0   6  11   10958     814   1
   1   6  11   26723    1513   1
   2   6  11   31690    2142   1
   3   6  11    2077     845   1
   4   6  11    1672     667   1
   5   6  11   19721    1993   1
   6   6  11    1205    1396   1
   7   6  11     844    1558   1
   8   6  11    -325    1493   1
  -8   7  11   -1850    1233   1
  -7   7  11     844    1818   1
  -6   7  11     519    1148   1
  -5   7  11     828    1850   1
  -4   7  11      17    1159   1
  -3   7  11    3355    1071   1
  -2   7  11    1591     672   1
  -1   7  11   12404    1245   1
   0   7  11    4498     797   1
   1   7  11    1309     638   1
   2   7  11    2710     881   1
   3   7  11      24    1157   1
   4   7  11    1511    1312   1
  -5  -7   7    8649    1467  -2
   5   7  11    8649    1467   1
  -6  -7   7    6979    1491  -2
   6   7  11    6979    1491   1
  -7  -7   7    3051    1818  -2
   7   7  11    3051    1818   1
  -8  -7   7    4415    2207  -2
   8   7  11    4415    2207   1
  -7   8  11    -325    1818   1
  -6   8  11    1623    1688   1
  -5   8  11    1690    1388   1
  -4   8  11   14022    2149   1
  -3   8  11    6876    2175   1
  -2   8  11    1744     946   1
  -1   8  11    5124    1093   1
   0   8  11    5830    1273   1
   1   8  11    2324    1243   1
   2   8  11    5879    1322   1
   3   8  11    3627    2077   1
   4   8  11    2713     911   1
   5   8  11    5634    2694   1
   6   8  11    -325    1363   1
   7   8  11    5323    2077   1
   8   8  11     649    1688   1
  -6   9  11    1104    1688   1
   5  -9   6   -1558    1298  -2
  -5   9  11   -1558    1298   1
   4  -9   6    6097    3603  -2
  -4   9  11    6097    3603   1
   3  -9   6   11536    1949  -2
  -3   9  11   11536    1949   1
   2  -9   6     341     890  -2
  -2   9  11     341     890   1
   1  -9   6    -432     741  -2
  -1   9  11    -432     741   1
   0  -9   6     486     801  -2
   0   9  11     486     801   1
  -1  -9   6    2305     872  -2
   1   9  11    2305     872   1
  -2  -9   6    1273     980  -2
   2   9  11    1273     980   1
  -3  -9   6   21596    4674  -2
   3   9  11   21596    4674   1
  -4  -9   6    7087    1432  -2
   4   9  11    7087    1432   1
  -5  -9   6    -667     924  -2
   5   9  11    -667     924   1
  -6  -9   6    2337    1623  -2
   6   9  11    2337    1623   1
  -7  -9   6     974    1493  -2
   7   9  11     974    1493   1
  -6  10  11       0    1688   1
  -5  10  11    1948    1753   1
  -4  10  11     844    1623   1
  -3  10  11    1949    1373   1
  -2  10  11   13302    1657   1
  -1  10  11    8338    1600   1
   0  10  11   11010    1423   1
   1  10  11    -762     858   1
   2  10  11    2651    1233   1
   3  10  11    7699    1403   1
   4  10  11    6687    1753   1
   5  10  11   -1315     876   1
   6  10  11    -195    1298   1
   7  10  11    1169    1493   1
   5 -11   5    -584    1688  -2
  -5  11  11    -584    1688   1
   4 -11   5    3311    2013  -2
  -4  11  11    3311    2013   1
   3 -11   5     -65    1428  -2
  -3  11  11     -65    1428   1
   2 -11   5      47     903  -2
  -2  11  11      47     903   1
   1 -11   5    1863     964  -2
  -1  11  11    1863     964   1
   0 -11   5     621     847  -2
   0  11  11     621     847   1
  -1 -11   5    2919    1298  -2
   1  11  11    2919    1298   1
  -2 -11   5     260    1331  -2
   2  11  11     260    1331   1
  -3 -11   5   -1296     864  -2
   3  11  11   -1296     864   1
   4  11  11    -857     901   1
   5  11  11    9667    1559   1
   6  11  11     454    1363   1
  -4  12  11    7401    2272   1
  -3  12  11    4999    2013   1
  -2  12  11   18151    5323   1
  -1  12  11    8875    1544   1
   0  12  11    2304     997   1
   1  12  11    2808    1043   1
   2  12  11    -351     853   1
   3  12  11     430     948   1
   4  12  11    -714     835   1
   5  12  11   -1327     885   1
  -2  13  11   -1428    1233   1
  -1  13  11    -338     972   1
   0  13  11    1321     980   1
   1  13  11    7668    1237   1
   2  13  11    -779    1493   1
   3  13  11    6038    2142   1
  -3  -7  12    2662    2077   1
  -2  -7  12     974    1753   1
  -1  -7  12    4739    2207   1
   0  -7  12     195    1948   1
   1  -7  12    1753    2077   1
   2  -7  12     844    1948   1
   3  -7  12    2986    2402   1
  -5  -6  12   -2045    1363   1
  -4  -6  12     519    1883   1
  -3  -6  12    -844    1558   1
  -2  -6  12    9673    2792   1
  -1  -6  12    7271    2597   1
   0  -6  12   14283    3311   1
   1  -6  12     714    1883   1
   2  -6  12    1104    1948   1
   3  -6  12     195    2077   1
   4  -6  12    1104    2337   1
  -6  -5  12    -909    1558   1
  -5  -5  12    -499    1191   1
  -4  -5  12     649    1623   1
  -3  -5  12    2934    1602   1
  -2  -5  12    -876    1558   1
  -1  -5  12    7795    1835   1
   0  -5  12    2264    1421   1
   1  -5  12    2978    1460   1
   2  -5  12    1849    1428   1
   3  -5  12    7995    1928   1
   4  -5  12    2526    2045   1
   5  -5  12     844    1460   1
  -6  -4  12    1169    1818   1
  -5  -4  12    4743    1553   1
  -4  -4  12    2810    1112   1
  -3  -4  12     416     720   1
  -2  -4  12   20001    2099   1
  -1  -4  12     544    1218   1
   0  -4  12    -640    1635   1
   1  -4  12    -332     825   1
   2  -4  12     922     928   1
   3  -4  12      77    1247   1
   4  -4  12    3790    1466   1
   5  -4  12    3217    1421   1
   6  -4  12    2087    1533   1
  -7  -3  12    -909    1623   1
  -6  -3  12     584    1818   1
  -5  -3  12    -982     924   1
  -4  -3  12     780     830   1
  -3  -3  12    -635     961   1
  -2  -3  12    -507     859   1
  -1  -3  12    4556    1241   1
   0  -3  12    4911    1693   1
   1  -3  12     658     789   1
   2  -3  12   16832    1630   1
   3  -3  12    1477    1162   1
   4  -3  12    -325    1655   1
   5  -3  12    2068    1349   1
   6  -3  12    -823    1211   1
   7  -3  12    8082    2079   1
  -7  -2  12     282    1308   1
  -6  -2  12    -454    1148   1
  -5  -2  12    1006    2028   1
  -4  -2  12     -69     808   1
  -3  -2  12    9093    1451   1
  -2  -2  12    4863    1383   1
  -1  -2  12    4156    1059   1
   0  -2  12    9255    2396   1
   1  -2  12    3237    1071   1
   2  -2  12   28300    1957   1
   3  -2  12    3063    1210   1
  -4   2  13    2033    1141  -2
   4  -2  12    2033    1141   1
  -5   2  13    -590    1099  -2
   5  -2  12    -590    1099   1
  -6   2  13      72    1217  -2
   6  -2  12      72    1217   1
  -7   2  13    -128    1375  -2
   7  -2  12    -128    1375   1
  -8  -1  12     -19    1349   1
  -7  -1  12    2186    1558   1
  -6  -1  12    -513    1137   1
  -5  -1  12    3097     970   1
  -4  -1  12    2803    1063   1
  -3  -1  12   -1295    1616   1
  -2  -1  12    -169    1801   1
  -1  -1  12     765     791   1
   0  -1  12   31852    1853   1
   1  -1  12    7993    1117   1
   2  -1  12    1847     859   1
   3  -1  12    3260    1149   1
   4  -1  12    3514    1233   1
   5  -1  12    7384    2062   1
   6  -1  12   14659    2269   1
   7  -1  12    -730    1349   1
  -8   0  12     357    1331   1
  -7   0  12    1665    1349   1
   6   0  12    5870    1635  -2
  -6   0  12    5870    1635   1
   5   0  12    1033     865  -2
  -5   0  12    1033     865   1
   4   0  12   11786    1556  -2
  -4   0  12   11786    1556   1
   3   0  12    2559     796  -2
  -3   0  12    2559     796   1
   2   0  12   23206    2302  -2
  -2   0  12   23206    2302   1
   1   0  12   11938    1272  -2
  -1   0  12   11938    1272   1
   0   0  12   10457    1425  -2
   0   0  12   10457    1425   1
  -1   0  12   40739    2193  -2
   1   0  12   40739    2193   1
  -2   0  12   13383    1377  -2
   2   0  12   13383    1377   1
  -3   0  12    2073     998  -2
   3   0  12    2073     998   1
  -4   0  12    5990    1298  -2
   4   0  12    5990    1298   1
  -5   0  12    -830     946  -2
   5   0  12    -830     946   1
  -6   0  12    1982    1349  -2
   6   0  12    1982    1349   1
   7   0  12     623    1368   1
   8   0  12     957    2921   1
  -8   1  12    1446    1368   1
  -7   1  12    2994    1419   1
  -6   1  12    1613    1293   1
  -5   1  12    -114    1134   1
  -4   1  12    -243     835   1
  -3   1  12    2619     969   1
  -2   1  12    2037     970   1
  -1   1  12    2201     779   1
   0   1  12     263     749   1
   1   1  12    -513     724   1
   2   1  12      92     937   1
   3   1  12     909     881   1
   4   1  12   37850    2683   1
   5   1  12    1477    1493   1
   6   1  12    8345    1859   1
   7   1  12    1948    2013   1
   8   1  12    2153    1460   1
   8  -2  11   -2142    1428  -2
  -8   2  12   -2142    1428   1
   7  -2  11     617    1194  -2
  -7   2  12     617    1194   1
   6  -2  11    1143    1052  -2
  -6   2  12    1143    1052   1
   5  -2  11    2162     917  -2
  -5   2  12    2162     917   1
   4  -2  11    1227     809  -2
  -4   2  12    1227     809   1
  -3   2  12   16553    1648   1
  -2   2  12    7225    1602   1
  -1   2  12   11138    1259   1
   0   2  12   20512    1547   1
   1   2  12    7527    1086   1
   2   2  12    5351    1064   1
   3   2  12   14202    1618   1
   4   2  12     309     961   1
   5   2  12    2127    1145   1
   6   2  12    -900    1104   1
   7   2  12     900    2142   1
   8   2  12    -273    1170   1
  -8   3  12    5322    1789   1
  -7   3  12     897    1237   1
  -6   3  12    -893    1197   1
  -5   3  12    3281    1217   1
  -4   3  12    3504     917   1
  -3   3  12    7540    2083   1
  -2   3  12    6686    1163   1
  -1   3  12    5644     831   1
   0   3  12    -118    1487   1
   1   3  12    8448    1010   1
   2   3  12     415     805   1
   3   3  12    1383    1044   1
   4   3  12   30199    5940   1
   5   3  12   14751    2098   1
   6   3  12     959    1183   1
   7   3  12     853    1980   1
   8   3  12     584    1883   1
  -8   4  12    3073    2435   1
  -7   4  12     357    1194   1
  -6   4  12    -803    1276   1
  -5   4  12     452    1285   1
  -4   4  12     464     788   1
  -3   4  12    2173     984   1
  -2   4  12     731     748   1
  -1   4  12   19952    2071   1
   0   4  12   45765    2503   1
   1   4  12    5287     921   1
   2   4  12   33519    2474   1
   3   4  12   50734    3649   1
   4   4  12    1135     758   1
   5   4  12     212    1688   1
   6   4  12    -199    1915   1
   7   4  12    -195    1428   1
   8   4  12    2467    2077   1
  -8   5  12    -161    1421   1
  -7   5  12    1852    1279   1
  -6   5  12   -2142    1668   1
  -5   5  12     154    1280   1
  -4   5  12    5578    1147   1
  -3   5  12    1820     873   1
  -2   5  12    -976     650   1
  -1   5  12    -146     566   1
   0   5  12     581     742   1
   1   5  12   14385    1411   1
   2   5  12    -961     684   1
   3   5  12    8495    1579   1
   4   5  12   34849    2797   1
   5   5  12    -559     940   1
   6   5  12    5518    2142   1
   7   5  12      65    1558   1
   8   5  12    4934    2142   1
  -7   6  12      26    1136   1
  -6   6  12   17628    2348   1
  -5   6  12   -1355    2997   1
  -4   6  12    4461    1312   1
  -3   6  12     153     702   1
  -2   6  12   17260    1487   1
  -1   6  12   17977    1724   1
   0   6  12    1582     975   1
   1   6  12     597     671   1
   2   6  12     905     872   1
   3   6  12    1740    1007   1
   4   6  12    1247    1028   1
   5   6  12    2727    1753   1
   6   6  12    6817    2207   1
   7   6  12    4350    2077   1
   8   6  12    -130    1623   1
  -7   7  12     974    1818   1
  -6   7  12    3376    1948   1
  -5   7  12    -841    5778   1
  -4   7  12    -446    1937   1
  -3   7  12    -246    1284   1
  -2   7  12    1510     928   1
  -1   7  12     142    1129   1
   0   7  12    6867    1005   1
   1   7  12   13196    1265   1
   2   7  12    -784     948   1
   3   7  12    4176    1322   1
   4   7  12     390    1363   1
   5   7  12    6977    1368   1
  -6  -7   8     130    1428  -2
   6   7  12     130    1428   1
  -7  -7   8    7790    2402  -2
   7   7  12    7790    2402   1
  -8  -7   8    1948    1948  -2
   8   7  12    1948    1948   1
  -6   8  12    1688    1948   1
  -5   8  12    1521    1464   1
  -4   8  12    3395    1785   1
  -3   8  12    -674    1076   1
  -2   8  12    3115    1395   1
  -1   8  12    3602    1263   1
   0   8  12    3631    1378   1
   1   8  12   24496    2009   1
   2   8  12   25713    2448   1
   3   8  12    7336    1533   1
   4   8  12    2467    1493   1
   5   8  12    1039    1558   1
   6   8  12    -325    1493   1
   7   8  12    1883    1688   1
  -6   9  12    2662    2077   1
  -5   9  12   -1039    1493   1
   4  -9   7    -390    1260  -2
  -4   9  12    -390    1260   1
   3  -9   7     476    1150  -2
  -3   9  12     476    1150   1
   2  -9   7    -373    1688  -2
  -2   9  12    -373    1688   1
   1  -9   7    1339    1417  -2
  -1   9  12    1339    1417   1
   0  -9   7     554    1216  -2
   0   9  12     554    1216   1
  -1  -9   7    3128    1031  -2
   1   9  12    3128    1031   1
  -2  -9   7   20090    8245  -2
   2   9  12   20090    8245   1
  -3  -9   7    7347    1487  -2
   3   9  12    7347    1487   1
  -4  -9   7    3547    1260  -2
   4   9  12    3547    1260   1
  -5  -9   7   -1493    1233  -2
   5   9  12   -1493    1233   1
  -6  -9   7    1493    1623  -2
   6   9  12    1493    1623   1
  -7  -9   7    4025    1883  -2
   7   9  12    4025    1883   1
  -5  10  12    8245    2597   1
  -4  10  12    7206    2402   1
  -3  10  12    5471    1655   1
  -2  10  12     459    1110   1
  -1  10  12    2778    1619   1
   0  10  12    9219    1392   1
   1  10  12    -156    1688   1
   2  10  12    7899    1507   1
   3  10  12    -494     924   1
   4  10  12    2607    1211   1
   5  10  12     260    1298   1
   6  10  12    1493    1428   1
   4 -11   6    2207    1883  -2
  -4  11  12    2207    1883   1
   3 -11   6     325    1558  -2
  -3  11  12     325    1558   1
   2 -11   6     377    1396  -2
  -2  11  12     377    1396   1
   1 -11   6    2576    1591  -2
  -1  11  12    2576    1591   1
   0 -11   6     -38    1108  -2
   0  11  12     -38    1108   1
  -1 -11   6     -50     961  -2
   1  11  12     -50     961   1
  -2 -11   6    2031    1363  -2
   2  11  12    2031    1363   1
  -3 -11   6    2467    1169  -2
   3  11  12    2467    1169   1
   4  11  12    3681    1279   1
   5  11  12    1688    1558   1
  -3  12  12    -390    1623   1
  -2  12  12   11880    2532   1
  -1  12  12    3700    1688   1
   0  12  12    2342    1170   1
   1  12  12    2936    1199   1
   2  12  12    9122    1544   1
   3  12  12   -1143     948   1
   4  12  12    1911    1123   1
  -3  -6  13     390    1818   1
  -2  -6  13    7855    2662   1
  -1  -6  13     325    1883   1
   0  -6  13    1558    2077   1
   1  -6  13    2013    2207   1
   2  -6  13   -2629    1753   1
  -4  -5  13    1623    2013   1
  -3  -5  13    2792    2207   1
  -2  -5  13   -2240    1493   1
  -1  -5  13    3441    2207   1
   0  -5  13    1623    2207   1
   1  -5  13    2597    2272   1
   2  -5  13   -1883    1688   1
   3  -5  13    1428    2077   1
   4  -5  13   -1623    2013   1
  -5  -4  13   -1084    1183   1
  -4  -4  13    2792    2077   1
  -3  -4  13    -260    1753   1
  -2  -4  13    2097    1354   1
  -1  -4  13    2805    1368   1
   0  -4  13    4963    1645   1
   1  -4  13    1592    1310   1
   2  -4  13    4216    1618   1
   3  -4  13    1158    1400   1
   4  -4  13    3418    1575   1
   5  -4  13    3428    1645   1
  -6  -3  13     584    2013   1
  -5  -3  13     246     981   1
  -4  -3  13    6759    3668   1
  -3  -3  13    1864    1063   1
  -2  -3  13   -1276    2214   1
  -1  -3  13   10535    3723   1
   0  -3  13    1138    1216   1
   1  -3  13    1270    1237   1
   2  -3  13     791    1237   1
   3  -3  13     876    1349   1
   4  -3  13    2142    1303   1
   5  -3  13    2369    2240   1
   6  -3  13    -260    1753   1
  -6  -2  13    -116    1191   1
  -5  -2  13    1342    1054   1
  -4  -2  13    1917     932   1
  -3  -2  13    3679    2547   1
  -2  -2  13    -674    2181   1
  -1  -2  13    7168    1441   1
   0  -2  13   13404    2064   1
   1  -2  13     106    1170   1
   2  -2  13    3993    1460   1
   3  -2  13   13858    1840   1
  -4   2  14     781    1310  -2
   4  -2  13     781    1310   1
  -5   2  14    4998    1721  -2
   5  -2  13    4998    1721   1
  -6   2  14   -1169    1247  -2
   6  -2  13   -1169    1247   1
  -7  -1  13   -1331    1148   1
  -6  -1  13    -621    1145   1
  -5  -1  13    1323    1073   1
  -4  -1  13    2007    2067   1
  -3  -1  13    -736     862   1
  -2  -1  13   -1151    2441   1
  -1  -1  13   -2080    1387   1
   0  -1  13     224    1104   1
   1  -1  13     -65    1056   1
   2  -1  13    -909     964   1
   3  -1  13    1284    1092   1
   4  -1  13    -480     905   1
   5  -1  13    1013    1308   1
   6  -1  13    -495    1138   1
   7  -1  13    1427    1533   1
  -7   0  13      10    1322   1
   6   0  13    1107    1493  -2
  -6   0  13    1107    1493   1
   5   0  13    -696     923  -2
  -5   0  13    -696     923   1
   4   0  13    3917    1162  -2
  -4   0  13    3917    1162   1
   3   0  13   30359    3866  -2
  -3   0  13   30359    3866   1
   2   0  13    7002    1260  -2
  -2   0  13    7002    1260   1
   1   0  13   18140    1758  -2
  -1   0  13   18140    1758   1
   0   0  13     -80     961  -2
   0   0  13     -80     961   1
  -1   0  13   11300    1882  -2
   1   0  13   11300    1882   1
  -2   0  13    9787    1835  -2
   2   0  13    9787    1835   1
  -3   0  13   22422    2547  -2
   3   0  13   22422    2547   1
  -4   0  13    8840    1829  -2
   4   0  13    8840    1829   1
  -5   0  13    -131    1124  -2
   5   0  13    -131    1124   1
  -6   0  13    2896    1479  -2
   6   0  13    2896    1479   1
   7   0  13    -771    1283   1
  -7   1  13     233    1257   1
  -6   1  13    1831    1753   1
  -5   1  13    -451     796   1
  -4   1  13    -683     923   1
  -3   1  13    1079     872   1
  -2   1  13    4295    1191   1
  -1   1  13    1904     850   1
   0   1  13     151     980   1
   1   1  13   10146    1783   1
   2   1  13   16541    3343   1
   3   1  13    1972    1396   1
   4   1  13    4728    1559   1
   5   1  13    4370    2532   1
   6   1  13     454    1194   1
   7   1  13     815    1308   1
   7  -2  12    -791    1237  -2
  -7   2  13    -791    1237   1
   6  -2  12      93    1211  -2
  -6   2  13      93    1211   1
   5  -2  12      -7     855  -2
  -5   2  13      -7     855   1
   4  -2  12    9848    1289  -2
  -4   2  13    9848    1289   1
  -3   2  13    1557     936   1
  -2   2  13   75965    3677   1
  -1   2  13    6680    1061   1
   0   2  13   50815    3901   1
   1   2  13   23549    2569   1
   2   2  13     130    1010   1
   3   2  13   16741    2198   1
   4   2  13    2625    1246   1
   5   2  13    2968    1526   1
   6   2  13    -195    1102   1
   7   2  13     -91    1655   1
  -7   3  13   -1334    1262   1
  -6   3  13     -32    1148   1
  -5   3  13     772    1104   1
  -4   3  13     161     817   1
  -3   3  13    1192     918   1
  -2   3  13     842     751   1
  -1   3  13    6247    1167   1
   0   3  13    1499     765   1
   1   3  13   23318    2564   1
   2   3  13   36827    5096   1
   3   3  13     720    1053   1
   4   3  13    4460    1818   1
   5   3  13    1052    1090   1
   6   3  13    2643    1441   1
   7   3  13   11338    2662   1
  -7   4  13    1341    1375   1
  -6   4  13    4120    1948   1
  -5   4  13    -355     939   1
  -4   4  13    3594    1021   1
  -3   4  13   47928    2953   1
  -2   4  13    3443    1393   1
  -1   4  13    8511    1559   1
   0   4  13   11978    1356   1
   1   4  13    6252    1850   1
   2   4  13    -187    1071   1
   3   4  13    5606    1432   1
   4   4  13    2847    1883   1
   5   4  13     488    1124   1
   6   4  13    -390    1428   1
   7   4  13     -65    1688   1
  -7   5  13   -1274    1154   1
  -6   5  13    1985    1354   1
  -5   5  13   -1423     948   1
  -4   5  13     408     912   1
  -3   5  13    1115     921   1
  -2   5  13   10367    1492   1
  -1   5  13   16458    1691   1
   0   5  13    2579     926   1
   1   5  13    2077    1078   1
   2   5  13    1655    1148   1
   3   5  13     816    1044   1
   4   5  13    2508    1229   1
   5   5  13     779    1623   1
   6   5  13   11751    2792   1
   7   5  13    -325    1558   1
  -7   6  13   -2142    1623   1
  -6   6  13    -203    1165   1
  -5   6  13    -298    1136   1
  -4   6  13   -1244     829   1
  -3   6  13      33     773   1
  -2   6  13    3057    1094   1
  -1   6  13    -743     792   1
   0   6  13   16043    2554   1
   1   6  13    3067    1266   1
   2   6  13    1762    1071   1
   3   6  13    2662    1623   1
   4   6  13     909    1558   1
   5   6  13     649    1493   1
   6   6  13    1753    1753   1
   7   6  13   -1623    1363   1
  -6   7  13    2597    2077   1
  -5   7  13     838    1368   1
  -4   7  13    1065    1308   1
  -3   7  13     893    1225   1
  -2   7  13    3561    1373   1
  -1   7  13     409    1044   1
   0   7  13   13899    1951   1
   1   7  13    7426    1487   1
   2   7  13    8180    2272   1
   3   7  13    9608    2402   1
   4   7  13    9478    2402   1
   5   7  13   13828    2921   1
  -6  -7   9     195    1558  -2
   6   7  13     195    1558   1
  -7  -7   9   17139    3376  -2
   7   7  13   17139    3376   1
  -6   8  13    3181    2207   1
  -5   8  13   -1688    1363   1
  -4   8  13     524    1277   1
  -3   8  13    -868    1129   1
  -2   8  13     165    1211   1
  -1   8  13    -563     980   1
   0   8  13    1825    1211   1
   1   8  13   13179    2662   1
   2   8  13    8699    2272   1
   3   8  13     390    1558   1
   4   8  13     130    1428   1
   5   8  13    -130    1623   1
   6   8  13   -1039    1363   1
  -5   9  13    3571    2207   1
   4  -9   8    2028    2402  -2
  -4   9  13    2028    2402   1
   3  -9   8    1339    1948  -2
  -3   9  13    1339    1948   1
   2  -9   8    -531    1069  -2
  -2   9  13    -531    1069   1
   1  -9   8     891    1154  -2
  -1   9  13     891    1154   1
   0  -9   8    1760    1200  -2
   0   9  13    1760    1200   1
  -1  -9   8    5583    1948  -2
   1   9  13    5583    1948   1
  -2  -9   8     130    1298  -2
   2   9  13     130    1298   1
  -3  -9   8    5843    1948  -2
   3   9  13    5843    1948   1
  -4  -9   8     909    1428  -2
   4   9  13     909    1428   1
  -5  -9   8    8505    2272  -2
   5   9  13    8505    2272   1
  -6  -9   8     584    1688  -2
   6   9  13     584    1688   1
  -4  10  13    3246    2013   1
  -3  10  13   14233    2402   1
  -2  10  13    2266    2792   1
  -1  10  13    7533    1741   1
   0  10  13     852    1123   1
   1  10  13    1104    1493   1
   2  10  13    2077    1558   1
   3  10  13    3181    1623   1
   4  10  13     390    1363   1
   5  10  13     130    1428   1
   3 -11   7       0    1558  -2
  -3  11  13       0    1558   1
   2 -11   7       0    1558  -2
  -2  11  13       0    1558   1
   1 -11   7    -230    1247  -2
  -1  11  13    -230    1247   1
   0 -11   7    1205    1493  -2
   0  11  13    1205    1493   1
  -1 -11   7    2792    1688  -2
   1  11  13    2792    1688   1
  -2 -11   7    4350    1753  -2
   2  11  13    4350    1753   1
  -3 -11   7     -65    1428  -2
   3  11  13     -65    1428   1
   4  11  13   10907    2402   1
  -1  12  13    4934    1818   1
   0  12  13    2337    1558   1
   1  12  13     714    1493   1
   2  12  13    8699    2207   1
  -2  -5  14   -2629    1753   1
  -1  -5  14     195    2013   1
   0  -5  14    1233    2207   1
   1  -5  14    -454    2013   1
  -3  -4  14    -195    1948   1
  -2  -4  14     130    1948   1
  -1  -4  14     -31    1558   1
   0  -4  14    3009    1579   1
   1  -4  14    -483    1655   1
   2  -4  14    2990    1571   1
   3  -4  14    1397    2077   1
  -4  -3  14    1688    2142   1
  -3  -3  14     654    1283   1
  -2  -3  14     297    2175   1
  -1  -3  14     379    1850   1
   0  -3  14    3020    1441   1
   1  -3  14   -1420    1145   1
   2  -3  14    -204    1283   1
   3  -3  14    -487    1285   1
   4  -3  14    9809    2158   1
  -5  -2  14    7332    1568   1
  -4  -2  14    1250    1591   1
  -3  -2  14    2493    1491   1
  -2  -2  14      32    1148   1
  -1  -2  14    3283    2467   1
   0  -2  14    9192    2077   1
   1  -2  14    4702    2240   1
   2  -2  14     714    1246   1
   3  -2  14    1511    2207   1
  -4   2  15    1420    1421  -2
   4  -2  14    1420    1421   1
  -5   2  15    1071    1850  -2
   5  -2  14    1071    1850   1
  -6  -1  14   -1468    1262   1
  -5  -1  14     883    1025   1
  -4  -1  14    -882    1137   1
  -3  -1  14    -630    1170   1
  -2  -1  14     123    1233   1
  -1  -1  14     306    1124   1
   0  -1  14   -1948    1558   1
   1  -1  14     640    1329   1
   2  -1  14    1824    1403   1
   3  -1  14    5364    1605   1
   4  -1  14    1414    1349   1
   5  -1  14    3757    1699   1
   6  -1  14    4011    1731   1
   6   0  14    4292    1721  -2
  -6   0  14    4292    1721   1
   5   0  14    -242     994  -2
  -5   0  14    -242     994   1
   4   0  14   27326    3075  -2
  -4   0  14   27326    3075   1
   3   0  14     731    1655  -2
  -3   0  14     731    1655   1
   2   0  14    9867    1902  -2
  -2   0  14    9867    1902   1
   1   0  14    4084    1487  -2
  -1   0  14    4084    1487   1
   0   0  14     567    1124  -2
   0   0  14     567    1124   1
  -1   0  14   13561    3960  -2
   1   0  14   13561    3960   1
  -2   0  14    3423    1375  -2
   2   0  14    3423    1375   1
  -3   0  14    1432    1308  -2
   3   0  14    1432    1308   1
  -4   0  14    7254    1783  -2
   4   0  14    7254    1783   1
  -5   0  14     800    1283  -2
   5   0  14     800    1283   1
  -6   0  14    -727    1688  -2
   6   0  14    -727    1688   1
  -6   1  14     552    1377   1
  -5   1  14    3810    1331   1
  -4   1  14     968    1293   1
  -3   1  14      -4    1169   1
  -2   1  14       0    1056   1
  -1   1  14    -395    1090   1
   0   1  14    9994    1867   1
   1   1  14     372    1118   1
   2   1  14    3423    1467   1
   3   1  14    -761     967   1
   4   1  14     951    1185   1
   5   1  14      74    2207   1
   6   1  14     407    1283   1
   6  -2  13    -917    1262  -2
  -6   2  14    -917    1262   1
   5  -2  13   14984    1996  -2
  -5   2  14   14984    1996   1
   4  -2  13     605    1154  -2
  -4   2  14     605    1154   1
  -3   2  14    7240    1691   1
  -2   2  14   10089    1859   1
  -1   2  14    2235    2759   1
   0   2  14   13119    2014   1
   1   2  14    2724    1257   1
   2   2  14   14869    3928   1
   3   2  14     499    1137   1
   4   2  14    1173    1283   1
   5   2  14     -46    1117   1
   6   2  14    1169    1423   1
  -6   3  14    1037    1395   1
  -5   3  14     561    1071   1
  -4   3  14     558     956   1
  -3   3  14    1314    1322   1
  -2   3  14    1145    1137   1
  -1   3  14     747    1056   1
   0   3  14   10266    1829   1
   1   3  14    9380    1785   1
   2   3  14     594    1072   1
   3   3  14     202    1043   1
   4   3  14    1407    1217   1
   5   3  14    2888    1403   1
   6   3  14    2568    1363   1
   7   3  14     -65    1753   1
  -6   4  14    -110    1170   1
  -5   4  14    1664    2370   1
  -4   4  14    5448    1325   1
  -3   4  14    4851    2857   1
  -2   4  14   -1228    1032   1
  -1   4  14     -24     997   1
   0   4  14     212    2110   1
   1   4  14   26491    7011   1
   2   4  14    4804    1487   1
   3   4  14     806    1124   1
   4   4  14     403    1099   1
   5   4  14    2894    1487   1
   6   4  14    -974    1493   1
   7   4  14     974    1883   1
  -6   5  14    2556    1883   1
  -5   5  14    -260    1216   1
  -4   5  14    2988    1158   1
  -3   5  14    -194     894   1
  -2   5  14     572     926   1
  -1   5  14    9897    2110   1
   0   5  14    2918    1293   1
   1   5  14    -179    1044   1
   2   5  14    -857    1980   1
   3   5  14    7114    1688   1
   4   5  14     584    1558   1
   5   5  14   22008    3765   1
   6   5  14     390    1623   1
  -6   6  14    1039    1948   1
  -5   6  14    4999    2272   1
  -4   6  14     108     905   1
  -3   6  14     430    1040   1
  -2   6  14     722     965   1
  -1   6  14   13411    2039   1
   0   6  14     584    1591   1
   1   6  14    1356    2142   1
   2   6  14   12595    2727   1
   3   6  14     584    1428   1
   4   6  14    4350    2077   1
   5   6  14    -454    1623   1
   6   6  14       0    1558   1
  -5   7  14     741    1403   1
  -4   7  14    1335    1850   1
  -3   7  14     806    1461   1
  -2   7  14     519    1177   1
  -1   7  14    6038    2142   1
   0   7  14    3376    1688   1
   1   7  14    1104    1558   1
   2   7  14     130    1493   1
   3   7  14     325    1493   1
   4   7  14   -1753    1169   1
   5   7  14     714    1688   1
  -6  -7  10    2142    1818  -2
   6   7  14    2142    1818   1
  -5   8  14    6167    2467   1
  -4   8  14    1363    1477   1
  -3   8  14     507    1493   1
  -2   8  14    4317    1785   1
  -1   8  14   -2020    2272   1
   0   8  14   25773    3765   1
   1   8  14     714    1493   1
   2   8  14    1753    1623   1
   3   8  14    -260    1298   1
   4   8  14     195    1558   1
   5   8  14   -1753    1169   1
  -4   9  14    -325    1688   1
   3  -9   9    1736    1497  -2
  -3   9  14    1736    1497   1
   2  -9   9    1918    2045  -2
  -2   9  14    1918    2045   1
   1  -9   9     346    1107  -2
  -1   9  14     346    1107   1
   0  -9   9     519    1428  -2
   0   9  14     519    1428   1
  -1  -9   9    4999    2013  -2
   1   9  14    4999    2013   1
  -2  -9   9    3506    1883  -2
   2   9  14    3506    1883   1
  -3  -9   9    4869    1948  -2
   3   9  14    4869    1948   1
  -4  -9   9     909    1623  -2
   4   9  14     909    1623   1
  -5  -9   9    -584    1623  -2
   5   9  14    -584    1623   1
  -3  10  14    1948    1883   1
  -2  10  14    3399    1511   1
  -1  10  14    4142    1524   1
   0  10  14      65    1363   1
   1  10  14       0    1493   1
   2  10  14   -1493    1298   1
   3  10  14    3441    1883   1
   4  10  14     649    1623   1
   1 -11   8   -1623    1363  -2
  -1  11  14   -1623    1363   1
   0 -11   8    4285    1948  -2
   0  11  14    4285    1948   1
  -1 -11   8    2986    1818  -2
   1  11  14    2986    1818   1
  -2 -11   8    1104    1493  -2
   2  11  14    1104    1493   1
  -2  -3  15    1969    1537   1
  -1  -3  15    -399    1354   1
   0  -3  15    -705    1375   1
   1  -3  15   -1098    2305   1
   2  -3  15    2110    1653   1
  -3  -2  15     552    1331   1
  -2  -2  15    1589    1395   1
  -1  -2  15    6502    2240   1
   0  -2  15   13289    2264   1
   1  -2  15    4177    3376   1
   2  -2  15    3583    1583   1
   3  -2  15    -812    1322   1
  -4  -1  15    1531    1599   1
  -3  -1  15    3053    1559   1
  -2  -1  15     452    2532   1
  -1  -1  15     325    1239   1
   0  -1  15     -58    1688   1
   1  -1  15    2589    2142   1
   2  -1  15    -483    1591   1
   3  -1  15    -671    2272   1
   4  -1  15    1310    2402   1
   5   0  15    -978    1066  -2
  -5   0  15    -978    1066   1
   4   0  15    2442    2142  -2
  -4   0  15    2442    2142   1
   3   0  15     188    1217  -2
  -3   0  15     188    1217   1
   2   0  15    6950    3636  -2
  -2   0  15    6950    3636   1
   1   0  15    1681    1461  -2
  -1   0  15    1681    1461   1
   0   0  15    8034    1882  -2
   0   0  15    8034    1882   1
  -1   0  15     352    1229  -2
   1   0  15     352    1229   1
  -2   0  15    2321    1591  -2
   2   0  15    2321    1591   1
  -3   0  15    1753    1441  -2
   3   0  15    1753    1441   1
  -4   0  15    3176    1605  -2
   4   0  15    3176    1605   1
  -5   0  15   -1505    1200  -2
   5   0  15   -1505    1200   1
  -5   1  15     293    1058   1
  -4   1  15    2288    2759   1
  -3   1  15    -483    1217   1
  -2   1  15    1423    1354   1
  -1   1  15   10952    3149   1
   0   1  15     810    1199   1
   1   1  15    1214    1428   1
   2   1  15    5950    1716   1
   3   1  15     578    1298   1
   4   1  15      50    1948   1
   5   1  15    4090    1746   1
   5  -2  14     524    1207  -2
  -5   2  15     524    1207   1
   4  -2  14    6033    3181  -2
  -4   2  15    6033    3181   1
  -3   2  15     707    1233   1
  -2   2  15    7380    1783   1
  -1   2  15   12032    3636   1
   0   2  15    -195    1558   1
   1   2  15   -1470     980   1
   2   2  15    2627    1400   1
   3   2  15    4664    1619   1
   4   2  15     946    1283   1
   5   2  15    3357    1529   1
  -5   3  15   -1164    1109   1
  -4   3  15     -82    1035   1
  -3   3  15    9930    1926   1
  -2   3  15     130    1056   1
  -1   3  15     567    1170   1
   0   3  15    1999    1279   1
   1   3  15    2282    1303   1
   2   3  15   -1479     986   1
   3   3  15    2879    1445   1
   4   3  15    3767    1688   1
   5   3  15     100    1262   1
  -5   4  15    -647    1263   1
  -4   4  15    -189     943   1
  -3   4  15    4564    5486   1
  -2   4  15    1857    1257   1
  -1   4  15     964    1396   1
   0   4  15    7076    1697   1
   1   4  15    1888    1283   1
   2   4  15    7248    1756   1
   3   4  15    5836    1675   1
   4   4  15    5973    1699   1
   5   4  15    -909    1623   1
  -5   5  15    1067    1354   1
  -4   5  15     188    1116   1
  -3   5  15    3733    1469   1
  -2   5  15    -833    1078   1
  -1   5  15     426    1145   1
   0   5  15    -440    1980   1
   1   5  15    -531    1044   1
   2   5  15    2467    1850   1
   3   5  15    7466    2467   1
   4   5  15    5973    2402   1
   5   5  15    2142    2013   1
  -4   6  15    4415    2142   1
  -3   6  15    -390    1623   1
  -2   6  15    5778    2272   1
  -1   6  15    3830    2077   1
   0   6  15    3506    1818   1
   1   6  15    2921    2013   1
   2   6  15    1363    1753   1
   3   6  15    2792    1818   1
   4   6  15    2207    1883   1
   5   6  15    4544    2207   1
  -4   7  15    1039    1818   1
  -3   7  15    -454    1558   1
  -2   7  15    -519    1428   1
  -1   7  15    1104    1688   1
   0   7  15    1039    1688   1
   1   7  15    -195    1493   1
   2   7  15    1363    1688   1
   3   7  15    2532    1883   1
   4   7  15    -974    1298   1
   5   7  15   12984    3051   1
  -3   8  15    6557    2467   1
  -2   8  15     195    1753   1
  -1   8  15    -844    1428   1
   0   8  15   18113    3376   1
   1   8  15    6752    2337   1
   2   8  15    2207    1688   1
   3   8  15    -649    1428   1
   4   8  15    1428    1688   1
   2  -9  10   -2240    1493  -2
  -2   9  15   -2240    1493   1
   1  -9  10     390    1753  -2
  -1   9  15     390    1753   1
   0  -9  10    -519    1623  -2
   0   9  15    -519    1623   1
  -1  -9  10    3506    1948  -2
   1   9  15    3506    1948   1
  -2  -9  10    2142    1753  -2
   2   9  15    2142    1753   1
  -3  -9  10    1948    1883  -2
   3   9  15    1948    1883   1
   0  10  15    4804    2077   1
   1  10  15    3571    1948   1
  -2  -1  16    3730    1697   1
  -1  -1  16    -297    1395   1
   0  -1  16    4054    1720   1
   1  -1  16     197    1293   1
   2  -1  16    -430    1331   1
   3   0  16     -32    1423  -2
  -3   0  16     -32    1423   1
   2   0  16    1126    1558  -2
  -2   0  16    1126    1558   1
   1   0  16    1680    1491  -2
  -1   0  16    1680    1491   1
   0   0  16      72    1329  -2
   0   0  16      72    1329   1
  -1   0  16    -576    1145  -2
   1   0  16    -576    1145   1
  -2   0  16    -579    1883  -2
   2   0  16    -579    1883   1
  -3   0  16     297    1883  -2
   3   0  16     297    1883   1
  -3   1  16     468    1354   1
  -2   1  16    1768    1479   1
  -1   1  16    2297    1395   1
   0   1  16     740    1331   1
   1   1  16     695    1308   1
   2   1  16     318    1363   1
   3   1  16    1134    1432   1
  -3   2  16   -1317    1090   1
  -2   2  16    1033    1354   1
  -1   2  16    4456    1883   1
   0   2  16    1428    1883   1
   1   2  16    1001    1421   1
   2   2  16    1585    1623   1
   3   2  16     390    1558   1
   4   2  16    -415    1357   1
  -4   3  16    -278    1064   1
  -3   3  16     675    1375   1
  -2   3  16    1480    1491   1
  -1   3  16    2968    1460   1
   0   3  16    2317    1720   1
   1   3  16   10454    2402   1
   2   3  16    2692    1395   1
   3   3  16    1909    1460   1
   4   3  16    5322    3116   1
  -3   4  16    -119    1229   1
  -2   4  16    1816    1322   1
  -1   4  16    1304    1232   1
   0   4  16     225    1200   1
   1   4  16     -72    1124   1
   2   4  16    1051    1283   1
   3   4  16    1493    1883   1
   4   4  16     844    1818   1
  -3   5  16     422    1322   1
  -2   5  16    3319    2240   1
  -1   5  16    -501    1107   1
   0   5  16    -909    1493   1
   1   5  16     -65    1558   1
   2   5  16   -1233    1363   1
   3   5  16   16620    3441   1
   4   5  16    5648    2402   1
  -3   6  16    -584    1558   1
  -2   6  16   10712    2857   1
  -1   6  16    1039    1753   1
   0   6  16   -1818    1428   1
   1   6  16    1428    1818   1
   2   6  16   -2077    1428   1
   3   6  16     130    1623   1
  -2   7  16    2532    2077   1
  -1   7  16   -1753    1428   1
   0   7  16    1818    1883   1
   1   7  16    2792    1948   1
   2   7  16   -1753    1493   1
   3   7  16    -584    1558   1
  -1   8  16    3311    2207   1
   0   8  16      65    1753   1
   1   8  16    3700    1948   1
   2   8  16    1039    1753   1
  -1   3  17    -341    2272   1
   0   3  17    -637    1400   1
   1   3  17    4458    1710   1
  -1   4  17    1117    1355   1
   0   4  17    5891    2824   1
   1   4  17    1363    1818   1
   0   5  17   -1039    1558   1
;
_shelx_hkl_checksum              88744
_shelx_res_file
;
    shelx.res created by SHELXL-2014/7
TITL HK13_0m in P-1 LIGHT BROWN NEEDLE
CELL 0.71073 9.7001 12.1805 13.8660 75.990 89.069 87.074
ZERR 4.00 0.0014 0.0014 0.0017 0.005 0.006 0.006
LATT 1
SFAC C  H  N  O  S
UNIT 76  56  8  4  4
OMIT -3 52
L.S. 20
ACTA
BOND $H
HTAB
CONF
LIST 4
FMAP 2
PLAN 10
TEMP 23.000
OMIT     2  -2   6
OMIT    -2   2   2
OMIT     0  -2   5
OMIT    -1   2   7
OMIT    -1   2   2
MPLA 6 C1 C2 C3 C4 C5 N1
MPLA 6 C7 C8 C9 C10 C11 C12
MPLA 6 C14 C15 C16 C17 C18 C19
MPLA 6 C20 C21 C22 C23 C24 N3
MPLA 6 C26 C27 C28 C29 C30 C31
MPLA 6 C33 C34 C35 C36 C37 C38
HTAB N2 N1
EQIV $1 -x+1, -y+1, -z+1
HTAB C8 S2_$1
HTAB C12 S1
HTAB N4 N3
EQIV $2 x, y, z-1
HTAB C24 O1_$2
HTAB C31 S2
SIZE 0.40 0.22 0.20
WGHT    0.105800
EXTI    0.006164
BASF   0.18226
FVAR      10.81845
mole 1
S1    5    0.743708   -0.154230    0.908463    11.00000    0.08395    0.06125 =
         0.06988   -0.03316   -0.02398    0.01283
O1    4    0.198668    0.322080    0.641343    11.00000    0.09498    0.06843 =
         0.06922   -0.03144   -0.02870    0.03318
N1    3    0.813629    0.043137    1.085797    11.00000    0.05511    0.05123 =
         0.05276   -0.01787   -0.00994   -0.00234
N2    3    0.658461    0.048100    0.935703    11.00000    0.05701    0.04644 =
         0.04470   -0.01675   -0.01387    0.00277
AFIX  43
H2A   2    0.670617    0.094947    0.971940    11.00000   -1.20000
AFIX   0
C1    1    0.821934   -0.050947    1.052634    11.00000    0.04204    0.04776 =
         0.03942   -0.01013   -0.00146   -0.00274
C2    1    0.902185   -0.144670    1.096838    11.00000    0.06522    0.05362 =
         0.05572   -0.01771   -0.01740    0.01108
AFIX  43
H2    2    0.905555   -0.208881    1.071592    11.00000   -1.20000
AFIX   0
C3    1    0.977849   -0.142259    1.179334    11.00000    0.06706    0.06506 =
         0.06458   -0.01702   -0.02369    0.01487
AFIX  43
H3    2    1.033507   -0.204669    1.210802    11.00000   -1.20000
AFIX   0
C4    1    0.969516   -0.046406    1.214000    11.00000    0.05618    0.07093 =
         0.05125   -0.01833   -0.01838    0.00290
AFIX  43
H4    2    1.018942   -0.042668    1.269935    11.00000   -1.20000
AFIX   0
C5    1    0.888562    0.042949    1.166024    11.00000    0.06574    0.06066 =
         0.05861   -0.02688   -0.01758    0.00219
AFIX  43
H5    2    0.884659    0.107997    1.190076    11.00000   -1.20000
AFIX   0
C6    1    0.735682   -0.048246    0.962966    11.00000    0.04159    0.04442 =
         0.04629   -0.01055    0.00059   -0.00386
C7    1    0.561496    0.088034    0.859719    11.00000    0.04969    0.04689 =
         0.03615   -0.01544   -0.00022   -0.00318
C8    1    0.516853    0.201783    0.843566    11.00000    0.05625    0.05231 =
         0.05139   -0.02286   -0.01019   -0.00154
AFIX  43
H8    2    0.550555    0.245931    0.883199    11.00000   -1.20000
AFIX   0
C9    1    0.424290    0.248950    0.770259    11.00000    0.06192    0.04533 =
         0.06040   -0.01904   -0.01309    0.00667
AFIX  43
H9    2    0.395960    0.324923    0.760539    11.00000   -1.20000
AFIX   0
C10   1    0.371786    0.185251    0.709984    11.00000    0.04568    0.04987 =
         0.04256   -0.01568   -0.00292   -0.00020
C11   1    0.414560    0.072181    0.727434    11.00000    0.05752    0.04803 =
         0.04253   -0.01933   -0.01080    0.00055
AFIX  43
H11   2    0.380099    0.028171    0.687965    11.00000   -1.20000
AFIX   0
C12   1    0.506704    0.023007    0.801584    11.00000    0.05766    0.04111 =
         0.05124   -0.01288   -0.00642   -0.00079
AFIX  43
H12   2    0.532230   -0.053655    0.812736    11.00000   -1.20000
AFIX   0
C13   1    0.268048    0.238970    0.633152    11.00000    0.05416    0.05007 =
         0.04531   -0.01252   -0.00624    0.00351
C14   1    0.247505    0.190190    0.546161    11.00000    0.04516    0.04271 =
         0.04308   -0.00880   -0.00746    0.00120
C15   1    0.116193    0.190479    0.509911    11.00000    0.05284    0.07564 =
         0.04765   -0.01342   -0.00939    0.00896
AFIX  43
H15   2    0.041662    0.218106    0.541564    11.00000   -1.20000
AFIX   0
C16   1    0.094351    0.149999    0.426810    11.00000    0.06575    0.08666 =
         0.06106   -0.02065   -0.02593    0.00095
AFIX  43
H16   2    0.005133    0.148748    0.403667    11.00000   -1.20000
AFIX   0
C17   1    0.203636    0.111872    0.378711    11.00000    0.08944    0.06584 =
         0.04404   -0.01591   -0.01746   -0.00171
AFIX  43
H17   2    0.188602    0.085231    0.322506    11.00000   -1.20000
AFIX   0
C18   1    0.335444    0.112557    0.412644    11.00000    0.06871    0.07458 =
         0.05280   -0.02166    0.00257    0.00031
AFIX  43
H18   2    0.409934    0.088279    0.378747    11.00000   -1.20000
AFIX   0
C19   1    0.356733    0.149523    0.497430    11.00000    0.04670    0.06636 =
         0.04404   -0.01667   -0.00576   -0.00012
AFIX  43
H19   2    0.445699    0.147057    0.522129    11.00000   -1.20000
AFIX   0
mole 2
S2    5    0.198806    0.646748    0.088400    11.00000    0.07364    0.05318 =
         0.06379   -0.02464   -0.01094    0.00712
O2    4    0.738331    0.160236    0.348609    11.00000    0.09952    0.07110 =
         0.08619   -0.03390   -0.03856    0.03224
N3    3    0.180025    0.474108   -0.115417    11.00000    0.05973    0.05456 =
         0.04794   -0.01730   -0.00387    0.00158
N4    3    0.307542    0.455902    0.049304    11.00000    0.05783    0.05033 =
         0.04627   -0.01723   -0.01078    0.01046
AFIX  43
H4A   2    0.304839    0.413597    0.007968    11.00000   -1.20000
AFIX   0
C20   1    0.146285    0.554696   -0.068766    11.00000    0.04547    0.04506 =
         0.04304   -0.00899    0.00144   -0.00053
C21   1    0.047730    0.640356   -0.104487    11.00000    0.06569    0.05025 =
         0.04806   -0.00766   -0.00368    0.00362
AFIX  43
H21   2    0.023836    0.694434   -0.069137    11.00000   -1.20000
AFIX   0
C22   1   -0.013888    0.643381   -0.193580    11.00000    0.06994    0.05980 =
         0.05628    0.00106   -0.00835    0.00891
AFIX  43
H22   2   -0.079637    0.700483   -0.220214    11.00000   -1.20000
AFIX   0
C23   1    0.022258    0.562066   -0.242353    11.00000    0.06805    0.08518 =
         0.05046   -0.01383   -0.00996   -0.00445
AFIX  43
H23   2   -0.017584    0.563295   -0.303182    11.00000   -1.20000
AFIX   0
C24   1    0.117644    0.478623   -0.201070    11.00000    0.07216    0.06575 =
         0.05141   -0.02116   -0.00526   -0.00036
AFIX  43
H24   2    0.140132    0.422297   -0.234288    11.00000   -1.20000
AFIX   0
C25   1    0.221780    0.547551    0.026631    11.00000    0.04520    0.04475 =
         0.04681   -0.00851    0.00140   -0.00086
C26   1    0.400784    0.415152    0.126888    11.00000    0.04634    0.05186 =
         0.04227   -0.01331   -0.00291    0.00060
C27   1    0.503482    0.338054    0.111271    11.00000    0.04782    0.05263 =
         0.05588   -0.02265   -0.00326   -0.00168
AFIX  43
H27   2    0.510364    0.320254    0.049769    11.00000   -1.20000
AFIX   0
C28   1    0.594699    0.287746    0.184356    11.00000    0.04411    0.04943 =
         0.06102   -0.02181   -0.00227    0.00238
AFIX  43
H28   2    0.661917    0.235345    0.172437    11.00000   -1.20000
AFIX   0
C29   1    0.588246    0.313962    0.276404    11.00000    0.05038    0.04668 =
         0.05015   -0.01098   -0.00630    0.00210
C30   1    0.487790    0.391277    0.291882    11.00000    0.07662    0.07291 =
         0.03800   -0.01897   -0.00937    0.02324
AFIX  43
H30   2    0.482892    0.410485    0.352846    11.00000   -1.20000
AFIX   0
C31   1    0.393404    0.441349    0.218400    11.00000    0.07694    0.07396 =
         0.05172   -0.02523   -0.00925    0.03048
AFIX  43
H31   2    0.325036    0.492635    0.230718    11.00000   -1.20000
AFIX   0
C32   1    0.683250    0.250052    0.355898    11.00000    0.05697    0.05406 =
         0.05988   -0.01397   -0.00920    0.00198
C33   1    0.708278    0.290448    0.446782    11.00000    0.04366    0.05149 =
         0.05157   -0.01200   -0.00535    0.00288
C34   1    0.724068    0.209750    0.536424    11.00000    0.04295    0.06647 =
         0.06644   -0.00420   -0.00678   -0.00081
AFIX  43
H34   2    0.717962    0.133296    0.538362    11.00000   -1.20000
AFIX   0
C35   1    0.748557    0.242944    0.621612    11.00000    0.06384    0.09351 =
         0.04833   -0.00399   -0.00339    0.00916
AFIX  43
H35   2    0.755151    0.188671    0.681639    11.00000   -1.20000
AFIX   0
C36   1    0.763493    0.353517    0.620572    11.00000    0.10356    0.10531 =
         0.04670   -0.02970   -0.01202    0.01992
AFIX  43
H36   2    0.781611    0.374553    0.679093    11.00000   -1.20000
AFIX   0
C37   1    0.751596    0.433625    0.532497    11.00000    0.12852    0.06930 =
         0.06372   -0.02737   -0.01320    0.00926
AFIX  43
H37   2    0.763127    0.509378    0.530892    11.00000   -1.20000
AFIX   0
C38   1    0.722610    0.402403    0.446271    11.00000    0.09706    0.05502 =
         0.04702   -0.01272   -0.00535    0.00174
AFIX  43
H38   2    0.712602    0.457589    0.387014    11.00000   -1.20000
AFIX   0
HKLF 5
REM  HK13_0m in P-1
REM R1 =  0.0603 for    3316 Fo > 4sig(Fo)  and  0.1242 for all    6168 data
REM    417 parameters refined using      0 restraints
END
WGHT      0.1056      0.0000
REM Instructions for potential hydrogen bonds
HTAB N2 N1
EQIV $1 -x+1, -y+1, -z+1
HTAB C8 S2_$1
HTAB C12 S1
HTAB N4 N3
EQIV $2 x, y, z-1
HTAB C24 O1_$2
HTAB C31 S2
REM Highest difference peak  0.241,  deepest hole -0.375,  1-sigma level  0.054
Q1    1   0.7923 -0.0785  0.9093  11.00000  0.05    0.24
Q2    1   0.2691  0.5858  0.0805  11.00000  0.05    0.23
Q3    1   0.2564  0.2331  0.5757  11.00000  0.05    0.21
Q4    1   0.5572  0.0720  0.8207  11.00000  0.05    0.20
Q5    1   0.1492  0.6138 -0.1218  11.00000  0.05    0.20
Q6    1   0.7098 -0.0932  0.8287  11.00000  0.05    0.20
Q7    1   0.6276  0.1817  0.0796  11.00000  0.05    0.20
Q8    1   0.0159  0.6039 -0.1372  11.00000  0.05    0.19
Q9    1   0.4361  0.5010  0.1628  11.00000  0.05    0.19
Q10   1   0.8850 -0.0209  1.2056  11.00000  0.05    0.19
;
_shelx_res_checksum              91915
loop_
_space_group_symop_operation_xyz
'x, y, z'
'-x, -y, -z'
loop_
_atom_site_type_symbol
_atom_site_label
_atom_site_fract_x
_atom_site_fract_y
_atom_site_fract_z
_atom_site_U_iso_or_equiv
_atom_site_adp_type
_atom_site_calc_flag
_atom_site_occupancy
S S1 0.74371(12) -0.15423(8) 0.90846(8) 0.0690(4) Uani d 1
O O1 0.1987(3) 0.3221(2) 0.6413(2) 0.0760(9) Uani d 1
N N1 0.8136(3) 0.0431(2) 1.0858(2) 0.0520(8) Uani d 1
N N2 0.6585(3) 0.0481(2) 0.9357(2) 0.0484(7) Uani d 1
H H2A 0.6706 0.0949 0.9719 0.058 Uiso calc 1
C C1 0.8219(3) -0.0509(3) 1.0526(2) 0.0431(8) Uani d 1
C C2 0.9022(4) -0.1447(3) 1.0968(3) 0.0577(10) Uani d 1
H H2 0.9056 -0.2089 1.0716 0.069 Uiso calc 1
C C3 0.9778(4) -0.1423(3) 1.1793(3) 0.0657(11) Uani d 1
H H3 1.0335 -0.2047 1.2108 0.079 Uiso calc 1
C C4 0.9695(4) -0.0464(3) 1.2140(3) 0.0588(10) Uani d 1
H H4 1.0189 -0.0427 1.2699 0.071 Uiso calc 1
C C5 0.8886(4) 0.0429(3) 1.1660(3) 0.0595(10) Uani d 1
H H5 0.8847 0.1080 1.1901 0.071 Uiso calc 1
C C6 0.7357(3) -0.0482(3) 0.9630(2) 0.0441(8) Uani d 1
C C7 0.5615(4) 0.0880(3) 0.8597(2) 0.0433(8) Uani d 1
C C8 0.5169(4) 0.2018(3) 0.8436(3) 0.0515(9) Uani d 1
H H8 0.5506 0.2459 0.8832 0.062 Uiso calc 1
C C9 0.4243(4) 0.2489(3) 0.7703(3) 0.0550(10) Uani d 1
H H9 0.3960 0.3249 0.7605 0.066 Uiso calc 1
C C10 0.3718(3) 0.1853(3) 0.7100(2) 0.0453(8) Uani d 1
C C11 0.4146(4) 0.0722(3) 0.7274(2) 0.0479(9) Uani d 1
H H11 0.3801 0.0282 0.6880 0.057 Uiso calc 1
C C12 0.5067(4) 0.0230(3) 0.8016(3) 0.0497(9) Uani d 1
H H12 0.5322 -0.0537 0.8127 0.060 Uiso calc 1
C C13 0.2680(4) 0.2390(3) 0.6332(3) 0.0498(9) Uani d 1
C C14 0.2475(4) 0.1902(3) 0.5462(3) 0.0440(8) Uani d 1
C C15 0.1162(4) 0.1905(3) 0.5099(3) 0.0593(10) Uani d 1
H H15 0.0417 0.2181 0.5416 0.071 Uiso calc 1
C C16 0.0944(5) 0.1500(3) 0.4268(3) 0.0706(12) Uani d 1
H H16 0.0051 0.1487 0.4037 0.085 Uiso calc 1
C C17 0.2036(5) 0.1119(3) 0.3787(3) 0.0659(11) Uani d 1
H H17 0.1886 0.0852 0.3225 0.079 Uiso calc 1
C C18 0.3354(4) 0.1126(3) 0.4126(3) 0.0645(11) Uani d 1
H H18 0.4099 0.0883 0.3787 0.077 Uiso calc 1
C C19 0.3567(4) 0.1495(3) 0.4974(3) 0.0518(9) Uani d 1
H H19 0.4457 0.1471 0.5221 0.062 Uiso calc 1
S S2 0.19881(11) 0.64675(7) 0.08840(8) 0.0620(3) Uani d 1
O O2 0.7383(3) 0.1602(2) 0.3486(2) 0.0839(10) Uani d 1
N N3 0.1800(3) 0.4741(2) -0.1154(2) 0.0533(8) Uani d 1
N N4 0.3075(3) 0.4559(2) 0.0493(2) 0.0509(8) Uani d 1
H H4A 0.3048 0.4136 0.0080 0.061 Uiso calc 1
C C20 0.1463(3) 0.5547(3) -0.0688(2) 0.0449(8) Uani d 1
C C21 0.0477(4) 0.6404(3) -0.1045(3) 0.0556(10) Uani d 1
H H21 0.0238 0.6944 -0.0691 0.067 Uiso calc 1
C C22 -0.0139(4) 0.6434(3) -0.1936(3) 0.0649(11) Uani d 1
H H22 -0.0796 0.7005 -0.2202 0.078 Uiso calc 1
C C23 0.0223(4) 0.5621(4) -0.2424(3) 0.0682(11) Uani d 1
H H23 -0.0176 0.5633 -0.3032 0.082 Uiso calc 1
C C24 0.1176(4) 0.4786(3) -0.2011(3) 0.0620(11) Uani d 1
H H24 0.1401 0.4223 -0.2343 0.074 Uiso calc 1
C C25 0.2218(3) 0.5476(3) 0.0266(3) 0.0461(9) Uani d 1
C C26 0.4008(4) 0.4152(3) 0.1269(3) 0.0466(8) Uani d 1
C C27 0.5035(4) 0.3381(3) 0.1113(3) 0.0505(9) Uani d 1
H H27 0.5104 0.3203 0.0498 0.061 Uiso calc 1
C C28 0.5947(4) 0.2877(3) 0.1844(3) 0.0502(9) Uani d 1
H H28 0.6619 0.2353 0.1724 0.060 Uiso calc 1
C C29 0.5882(4) 0.3140(3) 0.2764(3) 0.0493(9) Uani d 1
C C30 0.4878(4) 0.3913(3) 0.2919(3) 0.0624(11) Uani d 1
H H30 0.4829 0.4105 0.3528 0.075 Uiso calc 1
C C31 0.3934(4) 0.4413(3) 0.2184(3) 0.0669(11) Uani d 1
H H31 0.3250 0.4926 0.2307 0.080 Uiso calc 1
C C32 0.6832(4) 0.2501(3) 0.3559(3) 0.0570(10) Uani d 1
C C33 0.7083(4) 0.2904(3) 0.4468(3) 0.0491(9) Uani d 1
C C34 0.7241(4) 0.2097(3) 0.5364(3) 0.0606(10) Uani d 1
H H34 0.7180 0.1333 0.5384 0.073 Uiso calc 1
C C35 0.7486(4) 0.2429(4) 0.6216(3) 0.0712(12) Uani d 1
H H35 0.7552 0.1887 0.6816 0.085 Uiso calc 1
C C36 0.7635(5) 0.3535(4) 0.6206(3) 0.0840(14) Uani d 1
H H36 0.7816 0.3746 0.6791 0.101 Uiso calc 1
C C37 0.7516(5) 0.4336(4) 0.5325(3) 0.0856(14) Uani d 1
H H37 0.7631 0.5094 0.5309 0.103 Uiso calc 1
C C38 0.7226(4) 0.4024(3) 0.4463(3) 0.0664(11) Uani d 1
H H38 0.7126 0.4576 0.3870 0.080 Uiso calc 1
loop_
_atom_site_aniso_label
_atom_site_aniso_U_11
_atom_site_aniso_U_22
_atom_site_aniso_U_33
_atom_site_aniso_U_12
_atom_site_aniso_U_13
_atom_site_aniso_U_23
S1 0.0839(8) 0.0612(6) 0.0699(7) 0.0128(5) -0.0240(6) -0.0332(5)
O1 0.095(2) 0.0684(17) 0.0692(19) 0.0332(16) -0.0287(16) -0.0314(14)
N1 0.055(2) 0.0512(17) 0.0528(19) -0.0023(14) -0.0099(16) -0.0179(14)
N2 0.0570(19) 0.0464(16) 0.0447(17) 0.0028(14) -0.0139(15) -0.0168(13)
C1 0.042(2) 0.048(2) 0.039(2) -0.0027(16) -0.0015(16) -0.0101(15)
C2 0.065(3) 0.054(2) 0.056(2) 0.0111(18) -0.017(2) -0.0177(18)
C3 0.067(3) 0.065(2) 0.065(3) 0.015(2) -0.024(2) -0.017(2)
C4 0.056(3) 0.071(3) 0.051(2) 0.003(2) -0.018(2) -0.018(2)
C5 0.066(3) 0.061(2) 0.059(3) 0.0022(19) -0.018(2) -0.0269(19)
C6 0.042(2) 0.0444(19) 0.046(2) -0.0039(16) 0.0006(17) -0.0106(15)
C7 0.050(2) 0.0469(19) 0.0362(19) -0.0032(16) -0.0002(17) -0.0154(15)
C8 0.056(2) 0.052(2) 0.051(2) -0.0015(17) -0.0102(19) -0.0229(17)
C9 0.062(2) 0.045(2) 0.060(2) 0.0067(17) -0.013(2) -0.0190(17)
C10 0.046(2) 0.050(2) 0.043(2) -0.0002(16) -0.0029(17) -0.0157(16)
C11 0.058(2) 0.048(2) 0.043(2) 0.0006(17) -0.0108(18) -0.0193(16)
C12 0.058(2) 0.0411(19) 0.051(2) -0.0008(16) -0.0064(19) -0.0129(16)
C13 0.054(2) 0.050(2) 0.045(2) 0.0035(18) -0.0062(18) -0.0125(17)
C14 0.045(2) 0.0427(18) 0.043(2) 0.0012(15) -0.0075(17) -0.0088(15)
C15 0.053(3) 0.076(3) 0.048(2) 0.0090(19) -0.0094(19) -0.0134(19)
C16 0.066(3) 0.087(3) 0.061(3) 0.001(2) -0.026(2) -0.021(2)
C17 0.089(4) 0.066(3) 0.044(2) -0.002(2) -0.017(2) -0.0159(19)
C18 0.069(3) 0.075(3) 0.053(3) 0.000(2) 0.003(2) -0.022(2)
C19 0.047(2) 0.066(2) 0.044(2) -0.0001(18) -0.0058(18) -0.0167(18)
S2 0.0736(8) 0.0532(6) 0.0638(7) 0.0071(5) -0.0109(6) -0.0246(5)
O2 0.100(2) 0.0711(18) 0.086(2) 0.0322(17) -0.0386(19) -0.0339(16)
N3 0.060(2) 0.0546(18) 0.0479(19) 0.0016(15) -0.0039(16) -0.0173(14)
N4 0.058(2) 0.0503(17) 0.0463(18) 0.0105(14) -0.0108(16) -0.0172(13)
C20 0.045(2) 0.0451(19) 0.043(2) -0.0005(16) 0.0014(17) -0.0090(16)
C21 0.066(3) 0.050(2) 0.048(2) 0.0036(18) -0.004(2) -0.0077(17)
C22 0.070(3) 0.060(2) 0.056(3) 0.009(2) -0.008(2) 0.001(2)
C23 0.068(3) 0.085(3) 0.050(2) -0.004(2) -0.010(2) -0.014(2)
C24 0.072(3) 0.066(2) 0.051(2) 0.000(2) -0.005(2) -0.0212(19)
C25 0.045(2) 0.0447(19) 0.047(2) -0.0009(16) 0.0014(17) -0.0085(16)
C26 0.046(2) 0.052(2) 0.042(2) 0.0006(16) -0.0029(18) -0.0133(16)
C27 0.048(2) 0.053(2) 0.056(2) -0.0017(17) -0.0033(19) -0.0226(18)
C28 0.044(2) 0.049(2) 0.061(2) 0.0024(16) -0.0023(19) -0.0218(18)
C29 0.050(2) 0.0467(19) 0.050(2) 0.0021(16) -0.0063(18) -0.0110(17)
C30 0.077(3) 0.073(2) 0.038(2) 0.023(2) -0.009(2) -0.0190(18)
C31 0.077(3) 0.074(3) 0.052(2) 0.030(2) -0.009(2) -0.025(2)
C32 0.057(2) 0.054(2) 0.060(3) 0.0020(18) -0.009(2) -0.0140(18)
C33 0.044(2) 0.051(2) 0.052(2) 0.0029(16) -0.0054(18) -0.0120(18)
C34 0.043(2) 0.066(2) 0.066(3) -0.0008(18) -0.007(2) -0.004(2)
C35 0.064(3) 0.094(3) 0.048(3) 0.009(2) -0.003(2) -0.004(2)
C36 0.104(4) 0.105(4) 0.047(3) 0.020(3) -0.012(3) -0.030(3)
C37 0.129(4) 0.069(3) 0.064(3) 0.009(3) -0.013(3) -0.027(2)
C38 0.097(3) 0.055(2) 0.047(2) 0.002(2) -0.005(2) -0.0127(18)
loop_
_atom_type_symbol
_atom_type_description
_atom_type_scat_dispersion_real
_atom_type_scat_dispersion_imag
_atom_type_scat_source
C C 0.0033 0.0016 'International Tables Vol C Tables 4.2.6.8 and 6.1.1.4'
H H 0.0000 0.0000 'International Tables Vol C Tables 4.2.6.8 and 6.1.1.4'
N N 0.0061 0.0033 'International Tables Vol C Tables 4.2.6.8 and 6.1.1.4'
O O 0.0106 0.0060 'International Tables Vol C Tables 4.2.6.8 and 6.1.1.4'
S S 0.1246 0.1234 'International Tables Vol C Tables 4.2.6.8 and 6.1.1.4'
loop_
_geom_angle_atom_site_label_1
_geom_angle_atom_site_label_2
_geom_angle_atom_site_label_3
_geom_angle
C1 N1 C5 116.8(3)
C6 N2 C7 132.8(3)
C6 N2 H2A 113.6
C7 N2 H2A 113.6
N1 C1 C2 122.9(3)
N1 C1 C6 115.5(3)
C2 C1 C6 121.6(3)
C1 C2 C3 118.8(3)
C1 C2 H2 120.6
C3 C2 H2 120.6
C4 C3 C2 118.6(4)
C4 C3 H3 120.7
C2 C3 H3 120.7
C5 C4 C3 119.1(3)
C5 C4 H4 120.4
C3 C4 H4 120.4
N1 C5 C4 123.7(3)
N1 C5 H5 118.2
C4 C5 H5 118.2
N2 C6 C1 111.9(3)
N2 C6 S1 127.0(3)
C1 C6 S1 121.2(2)
C12 C7 C8 118.6(3)
C12 C7 N2 125.0(3)
C8 C7 N2 116.4(3)
C9 C8 C7 120.8(3)
C9 C8 H8 119.6
C7 C8 H8 119.6
C8 C9 C10 121.0(3)
C8 C9 H9 119.5
C10 C9 H9 119.5
C11 C10 C9 118.0(3)
C11 C10 C13 122.7(3)
C9 C10 C13 119.3(3)
C12 C11 C10 121.8(3)
C12 C11 H11 119.1
C10 C11 H11 119.1
C11 C12 C7 119.9(3)
C11 C12 H12 120.1
C7 C12 H12 120.1
O1 C13 C10 120.3(3)
O1 C13 C14 119.6(3)
C10 C13 C14 120.0(3)
C15 C14 C19 118.7(3)
C15 C14 C13 119.0(3)
C19 C14 C13 122.2(3)
C14 C15 C16 120.5(4)
C14 C15 H15 119.8
C16 C15 H15 119.8
C17 C16 C15 120.0(4)
C17 C16 H16 120.0
C15 C16 H16 120.0
C16 C17 C18 120.5(4)
C16 C17 H17 119.8
C18 C17 H17 119.8
C17 C18 C19 119.5(4)
C17 C18 H18 120.3
C19 C18 H18 120.3
C18 C19 C14 120.8(3)
C18 C19 H19 119.6
C14 C19 H19 119.6
C20 N3 C24 117.8(3)
C25 N4 C26 132.7(3)
C25 N4 H4A 113.7
C26 N4 H4A 113.7
N3 C20 C21 122.7(3)
N3 C20 C25 115.9(3)
C21 C20 C25 121.4(3)
C22 C21 C20 118.2(4)
C22 C21 H21 120.9
C20 C21 H21 120.9
C23 C22 C21 119.2(4)
C23 C22 H22 120.4
C21 C22 H22 120.4
C22 C23 C24 119.2(4)
C22 C23 H23 120.4
C24 C23 H23 120.4
N3 C24 C23 122.9(4)
N3 C24 H24 118.5
C23 C24 H24 118.5
N4 C25 C20 111.5(3)
N4 C25 S2 127.3(3)
C20 C25 S2 121.3(2)
C31 C26 C27 118.4(3)
C31 C26 N4 125.0(3)
C27 C26 N4 116.5(3)
C28 C27 C26 121.2(3)
C28 C27 H27 119.4
C26 C27 H27 119.4
C27 C28 C29 120.7(3)
C27 C28 H28 119.7
C29 C28 H28 119.7
C30 C29 C28 118.3(3)
C30 C29 C32 123.1(3)
C28 C29 C32 118.3(3)
C29 C30 C31 121.3(3)
C29 C30 H30 119.4
C31 C30 H30 119.4
C26 C31 C30 120.1(3)
C26 C31 H31 120.0
C30 C31 H31 120.0
O2 C32 C33 118.7(3)
O2 C32 C29 119.6(3)
C33 C32 C29 121.6(3)
C38 C33 C34 118.4(4)
C38 C33 C32 123.7(3)
C34 C33 C32 117.9(3)
C35 C34 C33 119.9(4)
C35 C34 H34 120.1
C33 C34 H34 120.1
C36 C35 C34 121.4(4)
C36 C35 H35 119.3
C34 C35 H35 119.3
C35 C36 C37 119.3(4)
C35 C36 H36 120.3
C37 C36 H36 120.3
C36 C37 C38 120.2(4)
C36 C37 H37 119.9
C38 C37 H37 119.9
C33 C38 C37 120.7(4)
C33 C38 H38 119.6
C37 C38 H38 119.6
loop_
_geom_bond_atom_site_label_1
_geom_bond_atom_site_label_2
_geom_bond_distance
S1 C6 1.644(3)
O1 C13 1.214(4)
N1 C1 1.333(4)
N1 C5 1.338(4)
N2 C6 1.336(4)
N2 C7 1.403(4)
N2 H2A 0.8600
C1 C2 1.368(5)
C1 C6 1.503(5)
C2 C3 1.376(5)
C2 H2 0.9300
C3 C4 1.364(5)
C3 H3 0.9300
C4 C5 1.350(5)
C4 H4 0.9300
C5 H5 0.9300
C7 C12 1.388(4)
C7 C8 1.396(4)
C8 C9 1.365(5)
C8 H8 0.9300
C9 C10 1.389(4)
C9 H9 0.9300
C10 C11 1.382(4)
C10 C13 1.485(5)
C11 C12 1.375(5)
C11 H11 0.9300
C12 H12 0.9300
C13 C14 1.488(5)
C14 C15 1.376(5)
C14 C19 1.382(5)
C15 C16 1.382(5)
C15 H15 0.9300
C16 C17 1.364(6)
C16 H16 0.9300
C17 C18 1.371(6)
C17 H17 0.9300
C18 C19 1.379(5)
C18 H18 0.9300
C19 H19 0.9300
S2 C25 1.646(3)
O2 C32 1.218(4)
N3 C20 1.325(4)
N3 C24 1.330(4)
N4 C25 1.334(4)
N4 C26 1.396(4)
N4 H4A 0.8600
C20 C21 1.382(5)
C20 C25 1.504(5)
C21 C22 1.373(5)
C21 H21 0.9300
C22 C23 1.357(5)
C22 H22 0.9300
C23 C24 1.362(5)
C23 H23 0.9300
C24 H24 0.9300
C26 C31 1.381(5)
C26 C27 1.385(5)
C27 C28 1.363(5)
C27 H27 0.9300
C28 C29 1.388(5)
C28 H28 0.9300
C29 C30 1.371(5)
C29 C32 1.488(5)
C30 C31 1.386(5)
C30 H30 0.9300
C31 H31 0.9300
C32 C33 1.487(5)
C33 C38 1.376(5)
C33 C34 1.391(5)
C34 C35 1.366(5)
C34 H34 0.9300
C35 C36 1.359(6)
C35 H35 0.9300
C36 C37 1.369(6)
C36 H36 0.9300
C37 C38 1.377(5)
C37 H37 0.9300
C38 H38 0.9300
loop_
_geom_hbond_atom_site_label_D
_geom_hbond_atom_site_label_H
_geom_hbond_atom_site_label_A
_geom_hbond_site_symmetry_A
_geom_hbond_distance_DH
_geom_hbond_distance_HA
_geom_hbond_distance_DA
_geom_hbond_angle_DHA
N2 H2A N1 . 0.86 2.08 2.575(4) 116
N4 H4A N3 . 0.86 2.07 2.572(4) 116
C24 H24 O1 1_554 0.93 2.39 3.292(5) 163.9
loop_
_geom_torsion_atom_site_label_1
_geom_torsion_atom_site_label_2
_geom_torsion_atom_site_label_3
_geom_torsion_atom_site_label_4
_geom_torsion
C5 N1 C1 C2 0.0(5)
C5 N1 C1 C6 179.5(3)
N1 C1 C2 C3 0.1(6)
C6 C1 C2 C3 -179.4(3)
C1 C2 C3 C4 0.2(6)
C2 C3 C4 C5 -0.5(6)
C1 N1 C5 C4 -0.4(6)
C3 C4 C5 N1 0.7(6)
C7 N2 C6 C1 -178.5(3)
C7 N2 C6 S1 2.5(6)
N1 C1 C6 N2 -3.7(4)
C2 C1 C6 N2 175.8(3)
N1 C1 C6 S1 175.4(2)
C2 C1 C6 S1 -5.1(5)
C6 N2 C7 C12 11.0(6)
C6 N2 C7 C8 -169.9(4)
C12 C7 C8 C9 -1.9(5)
N2 C7 C8 C9 179.0(3)
C7 C8 C9 C10 0.2(6)
C8 C9 C10 C11 0.9(5)
C8 C9 C10 C13 178.1(3)
C9 C10 C11 C12 -0.3(5)
C13 C10 C11 C12 -177.4(3)
C10 C11 C12 C7 -1.4(5)
C8 C7 C12 C11 2.5(5)
N2 C7 C12 C11 -178.4(3)
C11 C10 C13 O1 154.4(4)
C9 C10 C13 O1 -22.6(5)
C11 C10 C13 C14 -24.9(5)
C9 C10 C13 C14 158.1(3)
O1 C13 C14 C15 -36.6(5)
C10 C13 C14 C15 142.6(3)
O1 C13 C14 C19 140.1(4)
C10 C13 C14 C19 -40.6(5)
C19 C14 C15 C16 0.5(5)
C13 C14 C15 C16 177.4(3)
C14 C15 C16 C17 -1.6(6)
C15 C16 C17 C18 0.5(6)
C16 C17 C18 C19 1.6(6)
C17 C18 C19 C14 -2.7(6)
C15 C14 C19 C18 1.6(5)
C13 C14 C19 C18 -175.2(3)
C24 N3 C20 C21 1.5(5)
C24 N3 C20 C25 -178.7(3)
N3 C20 C21 C22 -2.1(5)
C25 C20 C21 C22 178.1(3)
C20 C21 C22 C23 0.9(6)
C21 C22 C23 C24 0.8(6)
C20 N3 C24 C23 0.3(6)
C22 C23 C24 N3 -1.5(6)
C26 N4 C25 C20 177.8(3)
C26 N4 C25 S2 -0.2(6)
N3 C20 C25 N4 -2.5(4)
C21 C20 C25 N4 177.3(3)
N3 C20 C25 S2 175.5(3)
C21 C20 C25 S2 -4.6(5)
C25 N4 C26 C31 23.5(6)
C25 N4 C26 C27 -160.1(3)
C31 C26 C27 C28 0.7(5)
N4 C26 C27 C28 -175.9(3)
C26 C27 C28 C29 -1.0(5)
C27 C28 C29 C30 0.2(5)
C27 C28 C29 C32 175.3(3)
C28 C29 C30 C31 0.9(6)
C32 C29 C30 C31 -174.1(4)
C27 C26 C31 C30 0.3(6)
N4 C26 C31 C30 176.7(3)
C29 C30 C31 C26 -1.1(6)
C30 C29 C32 O2 156.8(4)
C28 C29 C32 O2 -18.1(5)
C30 C29 C32 C33 -20.5(6)
C28 C29 C32 C33 164.6(3)
O2 C32 C33 C38 142.6(4)
C29 C32 C33 C38 -40.1(5)
O2 C32 C33 C34 -34.4(5)
C29 C32 C33 C34 142.8(4)
C38 C33 C34 C35 2.2(6)
C32 C33 C34 C35 179.4(4)
C33 C34 C35 C36 -2.7(6)
C34 C35 C36 C37 1.0(7)
C35 C36 C37 C38 1.0(8)
C34 C33 C38 C37 -0.1(6)
C32 C33 C38 C37 -177.2(4)
C36 C37 C38 C33 -1.5(7)

_cod_database_fobs_code 1542982
