#------------------------------------------------------------------------------
#$Date: 2016-03-04 10:54:08 +0200 (Fri, 04 Mar 2016) $
#$Revision: 177372 $
#$URL: svn://www.crystallography.net/cod/cif/1/54/27/1542722.cif $
#------------------------------------------------------------------------------
#
# This file is available in the Crystallography Open Database (COD),
# http://www.crystallography.net/
#
# All data on this site have been placed in the public domain by the
# contributors.
#
data_1542722
loop_
_publ_author_name
'Pan, Hongjie'
'Huang, Hu'
'Liu, Weigang'
'Tian, Hua'
'Shi, Yian'
_publ_section_title
;
 Phosphine Oxide-Sc(OTf)3 Catalyzed Highly Regio- and Enantioselective
 Bromoaminocyclization of (E)-Cinnamyl Tosylcarbamates. An Approach to a
 Class of Synthetically Versatile Functionalized Molecules.
;
_journal_issue                   5
_journal_name_full               'Organic letters'
_journal_page_first              896
_journal_paper_doi               10.1021/acs.orglett.5b03459
_journal_volume                  18
_journal_year                    2016
_chemical_absolute_configuration ad
_chemical_formula_moiety         'C17 H13 Br F3 N O4 S'
_chemical_formula_sum            'C17 H13 Br F3 N O4 S'
_chemical_formula_weight         464.25
_space_group_crystal_system      orthorhombic
_space_group_IT_number           19
_space_group_name_Hall           'P 2ac 2ab'
_space_group_name_H-M_alt        'P 21 21 21'
_symmetry_space_group_name_Hall  'P 2ac 2ab'
_symmetry_space_group_name_H-M   'P 21 21 21'
_atom_sites_solution_hydrogens   geom
_atom_sites_solution_primary     direct
_audit_creation_date             2015-06-12
_audit_creation_method
;
Olex2 1.2
(compiled 2015.01.26 svn.r3150 for OlexSys, GUI svn.r4998)
;
_cell_angle_alpha                90
_cell_angle_beta                 90
_cell_angle_gamma                90
_cell_formula_units_Z            8
_cell_length_a                   14.600(4)
_cell_length_b                   14.941(4)
_cell_length_c                   16.318(4)
_cell_measurement_reflns_used    12678
_cell_measurement_temperature    173.1500
_cell_measurement_theta_max      31.5152
_cell_measurement_theta_min      1.8481
_cell_volume                     3559.6(16)
_computing_cell_refinement       'CrystalClear (Rigaku Inc., 2007)'
_computing_data_collection       'CrystalClear (Rigaku Inc., 2007)'
_computing_data_reduction        'CrystalClear (Rigaku Inc., 2007)'
_computing_molecular_graphics    'Olex2 (Dolomanov et al., 2009)'
_computing_publication_material  'CIFTAB (Sheldrick, 2013)'
_computing_structure_refinement  'SHELXL (Sheldrick, 2014)'
_computing_structure_solution
;
'SHELXT (Sheldrick, 2014)'
;
_diffrn_ambient_temperature      173.1500
_diffrn_detector_area_resol_mean 28.5714
_diffrn_measured_fraction_theta_full 0.998
_diffrn_measured_fraction_theta_max 0.998
_diffrn_measurement_details
;
scan:
    Number of images: 360
               Slice: -110.0000 - 70.0000
         Image width: 0.5000
            Exp time: 15.0000
       Rotation axis: Omega
               Omega: 0.0000
                 Chi: 45.0000
                 Phi: 0.0000
                 XTD: 45.1005
              2theta: -20.1287
scan:
    Number of images: 360
               Slice: -110.0000 - 70.0000
         Image width: 0.5000
            Exp time: 15.0000
       Rotation axis: Omega
               Omega: 0.0000
                 Chi: 45.0000
                 Phi: 180.0000
                 XTD: 45.1005
              2theta: -20.1287
;
_diffrn_measurement_device
;
Saturn724+ (2x2 bin mode)
;
_diffrn_measurement_device_details
;
AFC10: Fixed Chi 2 circle
;
_diffrn_measurement_device_type  'Saturn724+ CCD'
_diffrn_measurement_method       '\w scans at fixed \c = 45\%'
_diffrn_orient_matrix_type       d*Trek
_diffrn_orient_matrix_UB_11      0.0272
_diffrn_orient_matrix_UB_12      0.0444
_diffrn_orient_matrix_UB_13      0.0444
_diffrn_orient_matrix_UB_21      0.0015
_diffrn_orient_matrix_UB_22      -0.0478
_diffrn_orient_matrix_UB_23      0.0468
_diffrn_orient_matrix_UB_31      0.0562
_diffrn_orient_matrix_UB_32      -0.0162
_diffrn_orient_matrix_UB_33      -0.0183
_diffrn_radiation_detector       CCD
_diffrn_radiation_monochromator  'Graphite Monochromator'
_diffrn_radiation_type           MoK\a
_diffrn_radiation_wavelength     0.71073
_diffrn_reflns_av_R_equivalents  0.0624
_diffrn_reflns_av_unetI/netI     0.0570
_diffrn_reflns_laue_measured_fraction_full 0.998
_diffrn_reflns_laue_measured_fraction_max 0.998
_diffrn_reflns_limit_h_max       18
_diffrn_reflns_limit_h_min       -18
_diffrn_reflns_limit_k_max       19
_diffrn_reflns_limit_k_min       -19
_diffrn_reflns_limit_l_max       21
_diffrn_reflns_limit_l_min       -21
_diffrn_reflns_number            28297
_diffrn_reflns_point_group_measured_fraction_full 0.998
_diffrn_reflns_point_group_measured_fraction_max 0.998
_diffrn_reflns_theta_full        26.000
_diffrn_reflns_theta_max         27.503
_diffrn_reflns_theta_min         1.872
_diffrn_source                   'Sealed Tube'
_diffrn_source_current           30.0000
_diffrn_source_power             1.5000
_diffrn_source_voltage           50.0000
_exptl_absorpt_coefficient_mu    2.481
_exptl_absorpt_correction_T_max  1.0000
_exptl_absorpt_correction_T_min  0.7607
_exptl_absorpt_correction_type   multi-scan
_exptl_absorpt_process_details   'CrystalClear (Rigaku Inc., 2007)'
_exptl_crystal_colour            Colorless
_exptl_crystal_density_diffrn    1.733
_exptl_crystal_description       block
_exptl_crystal_F_000             1856
_exptl_crystal_size_max          0.29
_exptl_crystal_size_mid          0.14
_exptl_crystal_size_min          0.09
_refine_diff_density_max         0.470
_refine_diff_density_min         -0.592
_refine_diff_density_rms         0.092
_refine_ls_abs_structure_details
;
 Flack x determined using 2407 quotients [(I+)-(I-)]/[(I+)+(I-)]
 (Parsons, Flack and Wagner, Acta Cryst. B69 (2013) 249-259).
;
_refine_ls_abs_structure_Flack   0.003(6)
_refine_ls_extinction_method     none
_refine_ls_goodness_of_fit_ref   1.120
_refine_ls_hydrogen_treatment    constr
_refine_ls_matrix_type           full
_refine_ls_number_parameters     489
_refine_ls_number_reflns         8164
_refine_ls_number_restraints     0
_refine_ls_restrained_S_all      1.120
_refine_ls_R_factor_all          0.0669
_refine_ls_R_factor_gt           0.0588
_refine_ls_shift/su_max          0.000
_refine_ls_shift/su_mean         0.000
_refine_ls_structure_factor_coef Fsqd
_refine_ls_weighting_details
'w=1/[\s^2^(Fo^2^)+(0.0318P)^2^+6.6530P] where P=(Fo^2^+2Fc^2^)/3'
_refine_ls_weighting_scheme      calc
_refine_ls_wR_factor_gt          0.1141
_refine_ls_wR_factor_ref         0.1206
_reflns_Friedel_coverage         0.802
_reflns_friedel_fraction_full    0.998
_reflns_friedel_fraction_max     0.998
_reflns_number_gt                7342
_reflns_number_total             8164
_reflns_threshold_expression     'I > 2\s(I)'
_cod_data_source_file            ol5b03459_si_004.cif
_cod_data_source_block           sa4178
_cod_original_cell_volume        3559.6(15)
_cod_database_code               1542722
_shelx_space_group_comment
;
The symmetry employed for this shelxl refinement is uniquely defined
by the following loop, which should always be used as a source of
symmetry information in preference to the above space-group names.
They are only intended as comments.
;
_diffrn_number_total             4565
_olex2_refinement_description
;
1. Fixed Uiso
 At 1.2 times of:
  All C(H) groups, All C(H,H) groups
 At 1.5 times of:
  All C(H,H,H) groups
2.a Ternary CH refined with riding coordinates:
 C1(H1), C2(H2), C1A(H1A), C2A(H2A)
2.b Secondary CH2 refined with riding coordinates:
 C3(H3A,H3B), C3A(H3AA,H3AB)
2.c Aromatic/amide H refined with riding coordinates:
 C7(H7), C9(H9), C12(H12), C13(H13), C15(H15), C16(H16), C7A(H7A), C9A(H9A),
 C12A(H12A), C13A(H13A), C15A(H15A), C16A(H16A)
2.d Idealised Me refined as rotating group:
 C17(H17A,H17B,H17C), C17A(H17D,H17E,H17F)
;
_shelx_res_file
;
    sa4178.res created by SHELXL-2014/7

TITL sa4178_a.res in P2(1)2(1)2(1)
CELL 0.71073 14.5998 14.9413 16.3178 90 90 90
ZERR 8 0.0036 0.0037 0.0042 0 0 0
LATT -1
SYMM 0.5-X,-Y,0.5+Z
SYMM -X,0.5+Y,0.5-Z
SYMM 0.5+X,0.5-Y,-Z
SFAC C H Br F N O S
UNIT 136 104 8 24 8 32 8

L.S. 4 0 0
PLAN  20
BOND $H
LIST 6
fmap 2 53
MORE -1
ACTA 52
CONF
OMIT 2 0 0
OMIT 1 1 1
OMIT 0 1 1
OMIT 1 1 0
OMIT 0 0 2
REM <olex2.extras>
REM <HklSrc "%.\\sa4178.hkl">
REM </olex2.extras>

WGHT    0.031800    6.653000
FVAR       0.22573
BR1   3    0.699800    0.183391    0.448384    11.00000    0.03899    0.02933 =
         0.05800   -0.00249    0.00345    0.00163
S1    7    0.454060    0.348367    0.468548    11.00000    0.03112    0.02857 =
         0.03809   -0.00348    0.00060    0.00115
F1    4    0.619380    0.307041    0.699055    11.00000    0.06896    0.04060 =
         0.03777    0.01625   -0.00019   -0.00186
F2    4    0.637434    0.611213    0.766457    11.00000    0.07300    0.05713 =
         0.03713   -0.01719   -0.00793   -0.00351
F3    4    0.645015    0.524328    0.492220    11.00000    0.08798    0.02968 =
         0.02547    0.00420   -0.00192   -0.00637
O1    6    0.694863    0.386544    0.374963    11.00000    0.02791    0.03835 =
         0.03543    0.00644    0.00332   -0.00178
O2    6    0.555255    0.414997    0.330707    11.00000    0.04036    0.03965 =
         0.03141    0.00378   -0.00648   -0.00171
O3    6    0.414878    0.435972    0.461862    11.00000    0.03308    0.03172 =
         0.05682   -0.00869    0.00210    0.00991
O4    6    0.442024    0.299581    0.543968    11.00000    0.04062    0.03956 =
         0.03470    0.00151    0.00440   -0.00149
N1    5    0.568028    0.356530    0.459496    11.00000    0.02682    0.03147 =
         0.02814   -0.00083   -0.00081   -0.00289
C1    1    0.625344    0.333579    0.530829    11.00000    0.02724    0.03239 =
         0.03500    0.00590   -0.00624   -0.00223
AFIX  13
H1    2    0.595599    0.283731    0.559382    11.00000   -1.20000
AFIX   0
C2    1    0.717221    0.300587    0.500551    11.00000    0.03517    0.02621 =
         0.03893    0.00415   -0.00667    0.00376
AFIX  13
H2    2    0.758700    0.293880    0.547368    11.00000   -1.20000
AFIX   0
C3    1    0.758717    0.364762    0.440251    11.00000    0.03086    0.04417 =
         0.04301    0.00468   -0.00270   -0.00632
AFIX  23
H3A   2    0.776379    0.419209    0.468508    11.00000   -1.20000
H3B   2    0.813498    0.338387    0.416839    11.00000   -1.20000
AFIX   0
C4    1    0.604006    0.388420    0.385739    11.00000    0.03767    0.02600 =
         0.03264   -0.00343    0.00095   -0.00195
C5    1    0.632645    0.410795    0.591053    11.00000    0.03555    0.02972 =
         0.03013    0.00190   -0.00290    0.00040
C6    1    0.640191    0.500621    0.572183    11.00000    0.04994    0.02878 =
         0.02407    0.00333   -0.00191   -0.00980
C7    1    0.642674    0.568117    0.628515    11.00000    0.06063    0.03709 =
         0.02991   -0.00521   -0.00764   -0.00299
AFIX  43
H7    2    0.647927    0.627615    0.612449    11.00000   -1.20000
AFIX   0
C8    1    0.637140    0.544956    0.709591    11.00000    0.04869    0.04622 =
         0.03042   -0.00983   -0.00674   -0.00333
C9    1    0.629585    0.457990    0.735804    11.00000    0.04612    0.05650 =
         0.02301    0.00472   -0.00421    0.00321
AFIX  43
H9    2    0.625926    0.443390    0.791110    11.00000   -1.20000
AFIX   0
C10   1    0.627727    0.393220    0.675074    11.00000    0.03378    0.03170 =
         0.03562    0.00725   -0.00746   -0.00347
C11   1    0.419515    0.281423    0.386417    11.00000    0.03108    0.02669 =
         0.03891    0.00472    0.00385   -0.00130
C12   1    0.373859    0.320609    0.320834    11.00000    0.04630    0.02654 =
         0.05526    0.00127   -0.01328   -0.00113
AFIX  43
H12   2    0.363696    0.382044    0.319758    11.00000   -1.20000
AFIX   0
C13   1    0.343620    0.266762    0.256921    11.00000    0.05263    0.03343 =
         0.05070   -0.00291   -0.02104    0.00091
AFIX  43
H13   2    0.313173    0.292416    0.212714    11.00000   -1.20000
AFIX   0
C14   1    0.358560    0.174283    0.258463    11.00000    0.03412    0.03322 =
         0.04004   -0.00375    0.00201    0.00041
C15   1    0.402053    0.137487    0.326093    11.00000    0.03018    0.03202 =
         0.04373   -0.00387    0.00327    0.00053
AFIX  43
H15   2    0.411048    0.075920    0.328429    11.00000   -1.20000
AFIX   0
C16   1    0.432233    0.190230    0.389923    11.00000    0.02786    0.03384 =
         0.04042   -0.00249   -0.00250   -0.00231
AFIX  43
H16   2    0.460944    0.164415    0.434973    11.00000   -1.20000
AFIX   0
C17   1    0.330553    0.117087    0.186974    11.00000    0.04632    0.04675 =
         0.04133   -0.00811   -0.00549   -0.00930
AFIX 137
H17A  2    0.270777    0.134785    0.168586    11.00000   -1.50000
H17B  2    0.329200    0.055434    0.203491    11.00000   -1.50000
H17C  2    0.373793    0.124505    0.143175    11.00000   -1.50000
AFIX   0
BR1A  3    0.698768    0.765094    0.482704    11.00000    0.04043    0.03381 =
         0.04145   -0.00264   -0.00035    0.00545
S1A   7    0.430931    0.893046    0.508002    11.00000    0.03189    0.04014 =
         0.03376   -0.00932   -0.00039    0.00297
F1A   4    0.626383    0.818482    0.736667    11.00000    0.07288    0.04661 =
         0.03621    0.00847   -0.00280    0.01420
F2A   4    0.602514    1.093671    0.872014    11.00000    0.08891    0.07907 =
         0.03949   -0.02782   -0.01092   -0.00607
F3A   4    0.564986    1.080026    0.588244    11.00000    0.09383    0.03045 =
         0.03497    0.00605    0.00244   -0.00111
O1A   6    0.674040    0.971015    0.442925    11.00000    0.03520    0.03417 =
         0.03777    0.00751   -0.00116   -0.00771
O2A   6    0.539504    0.968119    0.381117    11.00000    0.04860    0.04175 =
         0.04045    0.01105   -0.00947   -0.00520
O3A   6    0.382452    0.970253    0.479867    11.00000    0.04418    0.04176 =
         0.06284   -0.02001   -0.01441    0.02065
O4A   6    0.412468    0.857539    0.587747    11.00000    0.04004    0.06768 =
         0.03189   -0.01073    0.00873   -0.01077
N1A   5    0.543567    0.917499    0.512214    11.00000    0.03088    0.03008 =
         0.02639    0.00455   -0.00048    0.00258
C1A   1    0.597083    0.884238    0.583044    11.00000    0.03828    0.03109 =
         0.02981    0.00647   -0.00288   -0.00646
AFIX  13
H1A   2    0.571595    0.826195    0.599238    11.00000   -1.20000
AFIX   0
C2A   1    0.694930    0.869319    0.555995    11.00000    0.02943    0.03739 =
         0.03426    0.00113   -0.00056   -0.00303
AFIX  13
H2A   2    0.733117    0.857525    0.604191    11.00000   -1.20000
AFIX   0
C3A   1    0.730697    0.949923    0.512203    11.00000    0.03098    0.03797 =
         0.03964    0.00158   -0.00434   -0.00517
AFIX  23
H3AA  2    0.731990    1.000466    0.549492    11.00000   -1.20000
H3AB  2    0.792837    0.938646    0.493876    11.00000   -1.20000
AFIX   0
C4A   1    0.583885    0.953102    0.441814    11.00000    0.03394    0.02814 =
         0.03707    0.00581   -0.00495   -0.00080
C5A   1    0.595132    0.945589    0.658140    11.00000    0.03680    0.02906 =
         0.02785   -0.00122    0.00085   -0.00076
C6A   1    0.582189    1.037145    0.659746    11.00000    0.05244    0.03544 =
         0.02957   -0.00231   -0.00121   -0.00672
C7A   1    0.584205    1.089132    0.729561    11.00000    0.07131    0.03117 =
         0.04104   -0.00593    0.00307   -0.00308
AFIX  43
H7A   2    0.574724    1.150658    0.727984    11.00000   -1.20000
AFIX   0
C8A   1    0.601204    1.044122    0.802112    11.00000    0.04936    0.06527 =
         0.02999   -0.01576   -0.00323   -0.00812
C9A   1    0.615127    0.954243    0.806423    11.00000    0.05475    0.05267 =
         0.02483   -0.00110   -0.00429   -0.00628
AFIX  43
H9A   2    0.626536    0.925997    0.856173    11.00000   -1.20000
AFIX   0
C10A  1    0.611708    0.907454    0.735272    11.00000    0.04516    0.03466 =
         0.03411    0.00516   -0.00287    0.00427
C11A  1    0.422479    0.805883    0.436126    11.00000    0.02812    0.03461 =
         0.03070    0.00062   -0.00394   -0.00757
C12A  1    0.390017    0.823022    0.357650    11.00000    0.04011    0.02826 =
         0.03602    0.00278   -0.00200   -0.00019
AFIX  43
H12A  2    0.376241    0.881067    0.341172    11.00000   -1.20000
AFIX   0
C13A  1    0.378641    0.751380    0.304418    11.00000    0.05468    0.04385 =
         0.02598   -0.00086   -0.00119   -0.00819
AFIX  43
H13A  2    0.356035    0.761719    0.251982    11.00000   -1.20000
AFIX   0
C14A  1    0.400343    0.664586    0.327907    11.00000    0.03498    0.03182 =
         0.03404   -0.00308    0.01034   -0.00707
C15A  1    0.435424    0.651279    0.406252    11.00000    0.03456    0.03111 =
         0.04137   -0.00107   -0.00012   -0.00172
AFIX  43
H15A  2    0.452819    0.593886    0.421882    11.00000   -1.20000
AFIX   0
C16A  1    0.445108    0.719787    0.460873    11.00000    0.02809    0.04377 =
         0.02997    0.00436    0.00068   -0.00091
AFIX  43
H16A  2    0.466454    0.709005    0.513655    11.00000   -1.20000
AFIX   0
C17A  1    0.387007    0.586049    0.271157    11.00000    0.05052    0.04396 =
         0.05148   -0.01737    0.00897   -0.00402
AFIX 137
H17D  2    0.327793    0.560057    0.280531    11.00000   -1.50000
H17E  2    0.433582    0.542110    0.281454    11.00000   -1.50000
H17F  2    0.391153    0.605964    0.215347    11.00000   -1.50000
AFIX   0
HKLF 4

REM  sa4178_a.res in P2(1)2(1)2(1)
REM R1 =  0.0588 for    7342 Fo > 4sig(Fo)  and  0.0669 for all    8164 data
REM    489 parameters refined using      0 restraints

END

WGHT      0.0317      6.6448

REM Highest difference peak  0.470,  deepest hole -0.592,  1-sigma level  0.092
Q1    1   0.6986  0.8622  0.4830  11.00000  0.05    0.47
Q2    1   0.6926  0.6029  0.4855  11.00000  0.05    0.39
Q3    1   0.4352  0.5053  0.5073  11.00000  0.05    0.39
Q4    1   0.3401  0.2865  0.1595  11.00000  0.05    0.39
Q5    1   0.7591  0.8363  0.4787  11.00000  0.05    0.37
Q6    1   0.6003  0.1977  0.4288  11.00000  0.05    0.36
Q7    1   0.5990  0.7826  0.4766  11.00000  0.05    0.36
Q8    1   0.6152  0.7666  0.4394  11.00000  0.05    0.36
Q9    1   0.6493  0.7832  0.5569  11.00000  0.05    0.35
Q10   1   0.6146  0.1457  0.4527  11.00000  0.05    0.35
Q11   1   0.7853  0.1420  0.4568  11.00000  0.05    0.35
Q12   1   0.6812  0.6764  0.4979  11.00000  0.05    0.34
Q13   1   0.6394  0.1485  0.5132  11.00000  0.05    0.33
Q14   1   0.3633  0.0773  0.0756  11.00000  0.05    0.33
Q15   1   0.6609  0.2384  0.5150  11.00000  0.05    0.33
Q16   1   0.6796  1.0409  0.5008  11.00000  0.05    0.33
Q17   1   0.6887  0.6762  0.4689  11.00000  0.05    0.33
Q18   1   0.3627  0.2401  0.1156  11.00000  0.05    0.32
Q19   1   0.6974  0.1749  0.5951  11.00000  0.05    0.32
Q20   1   0.7813  0.7553  0.4433  11.00000  0.05    0.32
;
_shelx_res_checksum              89649
_shelx_hkl_file
;
   0   0   1   -0.20    0.16
   0   0  -1   -0.17    0.15
   0   0   1   -0.44    0.20
   0   0   2   -0.18    0.27
   0   0  -2    0.43    0.33
   0   0   3    0.35    0.31
   0   0  -3    0.39    0.57
   0   0   3    0.86    0.58
   0   0  -4 4712.20  504.86
   0   0   4 4690.50   62.53
   0   0   5    1.10    0.55
   0   0   5    0.74    0.82
   0   0  -5   -2.21    1.23
   0   0   5    1.86    1.21
   0   0   6  174.27    6.33
   0   0   7    2.70    0.78
   0   0   7    1.51    0.54
   0   0  -7   -0.57    1.40
   0   0   7    2.87    1.31
   0   0   8   32.32    4.32
   0   0   8   33.42    5.51
   0   0  -8   33.40    5.26
   0   0   9    1.65    0.85
   0   0   9    2.11    1.10
   0   0  -9    0.22    0.99
   0   0  10   11.01    1.89
   0   0  10   13.49    2.66
   0   0 -10   15.11    2.68
   0   0  11    1.16    0.64
   0   0  11    2.56    1.01
   0   0 -11   -0.12    1.80
   0   0  12    2.84    1.19
   0   0  12    9.62    3.14
   0   0 -12    2.34    2.52
   0   0  13    0.32    0.49
   0   0  13    2.28    1.15
   0   0 -13    5.23    1.71
   0   0  14   42.54    9.05
   0   0 -14   47.70    7.47
   0   0  15    1.24    1.28
   0   0 -15   -1.25    2.21
   0   0  16   39.50    6.34
   0   0 -16   41.46    7.74
   0   0 -17    6.52    2.83
   0   0 -18    4.73    1.72
   0   0 -19    9.99    3.20
   0   0 -20   -0.88    1.54
   0   0 -21    1.27    1.56
   0  -1   0   -0.10    0.19
   0   1   0   -0.40    0.22
   0   1  -1    1.07    0.21
   0  -1   1   -0.01    0.17
   0   1   1   -0.48    0.30
   0  -1   1   -0.18    0.27
   0  -1  -1    0.62    0.23
   0   1   1    0.10    0.25
   0  -1   1   -0.52    0.34
   0   1   2    2.49    0.76
   0  -1   2    6.04    0.97
   0   1   2    6.23    1.23
   0   1  -3  136.77    4.72
   0   1   3  153.78    5.55
   0   1  -3  168.47    6.60
   0  -1   3  171.17    6.13
   0  -1  -3  148.87    5.40
   0   1   3  144.13    5.26
   0  -1   4    8.25    1.34
   0   1   4   10.78    1.85
   0  -1  -4    4.88    1.01
   0  -1   4    8.97    1.29
   0   1  -4    8.06    1.46
   0  -1   4    7.72    1.26
   0  -1  -4    7.91    1.41
   0   1   4    7.18    1.17
   0  -1   5  264.94    9.17
   0   1   5  281.29   10.06
   0  -1   5  279.38    9.71
   0  -1  -5  276.25    9.77
   0  -1   5  276.99   10.03
   0  -1  -5  274.48    9.89
   0  -1   6   13.72    1.76
   0   1   6   15.23    2.95
   0  -1   6   13.66    2.05
   0  -1  -6    9.39    2.13
   0   1  -6   17.45    2.87
   0  -1   6   13.86    2.26
   0  -1  -6   15.14    2.54
   0   1   6   12.17    1.64
   0  -1   7  875.15   23.91
   0   1   7  982.67   27.45
   0  -1   7  964.84   26.37
   0  -1  -7  962.53   26.49
   0  -1  -7  990.91   27.53
   0   1   7  871.34   24.23
   0   1   8    6.82    1.27
   0  -1   8    8.36    1.47
   0   1   8    6.54    1.77
   0  -1   8    8.64    1.55
   0   1  -8    9.95    2.13
   0  -1  -8    6.42    1.67
   0   1   9  764.61   22.60
   0  -1   9  770.93   22.71
   0   1   9  818.69   24.62
   0  -1   9  835.55   24.52
   0   1  -9  900.38   26.95
   0  -1  -9  838.29   25.15
   0   1  10   15.86    2.77
   0  -1  10   20.34    3.17
   0  -1  10   21.87    3.95
   0   1  10   23.27    4.48
   0   1 -10   20.88    4.32
   0  -1 -10   27.88    5.19
   0   1  11  417.55   16.92
   0  -1  11  410.54   16.41
   0  -1  11  469.76   18.81
   0   1  11  447.67   18.40
   0   1 -11  487.18   20.08
   0  -1 -11  494.00   21.46
   0  -1  12   25.39    5.17
   0  -1  12   35.61    5.55
   0   1  12   33.72    6.59
   0   1 -12   40.24    6.64
   0  -1 -12   40.20    6.92
   0  -1  13  256.61   12.88
   0  -1  13  335.08   17.22
   0   1  13  320.40   16.44
   0   1 -13  361.18   18.68
   0  -1 -13  350.43   18.96
   0   1  14  486.68   26.78
   0   1 -14  487.12   28.71
   0  -1 -14  486.14   27.67
   0  -1  15   58.63    8.76
   0   1  15   62.39   10.96
   0   1 -15   76.86   13.67
   0  -1 -15   88.42   11.48
   0   1  16    2.25    1.27
   0   1 -16    3.87    1.57
   0   1  17   14.10    3.64
   0   1 -17   15.87    4.50
   0  -1 -17   17.65    6.09
   0   1 -18    3.78    1.75
   0  -1 -18    2.95    2.00
   0   1 -19   14.61    4.02
   0  -1 -19   14.90    4.05
   0   1 -20    4.36    1.94
   0  -1 -20    0.41    1.70
   0   1 -21    1.22    1.38
   0  -1 -21    6.77    2.33
   0   2  -1  102.08    3.64
   0  -2   1  121.69    4.31
   0   2   1   84.02    8.11
   0  -2  -1  126.00    4.56
   0   2   1  121.82    4.36
   0  -2   1   73.95    7.16
   0   2  -1  129.58    4.65
   0   2  -2 1009.24   13.54
   0   2   2  970.11   13.41
   0  -2  -2  950.72   13.00
   0   2   2  935.86   12.76
   0   2  -3   70.98    6.80
   0  -2   3   75.76    7.32
   0   2   3   75.96    7.49
   0  -2  -3   84.35    8.29
   0   2  -3   83.55    8.24
   0  -2   3   77.00    8.94
   0   2   3   69.67    7.23
   0  -2   5  536.74    7.31
   0  -2  -5  567.20    8.48
   0  -2   5  575.04    7.79
   0   2  -5  611.49    9.27
   0  -2   5  591.02    8.82
   0  -2  -5  548.52    8.31
   0  -2   6    2.90    0.62
   0   2   6    3.13    1.30
   0  -2   6    3.23    0.78
   0  -2  -6    2.95    1.33
   0  -2   6    5.72    1.14
   0  -2  -6    3.14    1.41
   0   2   6    4.95    1.07
   0  -2   7   87.34    9.43
   0   2   7   95.13   10.70
   0  -2   7   94.62   10.25
   0  -2  -7   89.37   10.53
   0   2  -7   97.69   13.53
   0  -2  -7  102.28    6.32
   0   2   7   85.71    9.46
   0  -2   8   20.16    2.93
   0   2   8   25.36    4.83
   0  -2   8   20.97    3.31
   0  -2  -8   17.58    2.66
   0  -2  -8   20.90    4.06
   0  -2   9  275.82    8.59
   0   2   9  278.52    9.05
   0  -2  -9  269.73    8.54
   0   2  -9  282.66   10.76
   0  -2  -9  279.90    9.13
   0  -2  10   64.11    6.16
   0  -2  10   68.81    6.74
   0   2  10   63.34    7.23
   0   2 -10   77.85    9.61
   0  -2 -10   76.51    9.55
   0  -2  11   89.85   15.04
   0  -2  11  108.49    8.42
   0   2  11  105.46   11.07
   0   2 -11  107.02   12.37
   0  -2 -11  114.27   13.38
   0  -2  12   45.51    5.34
   0  -2  12   48.36    6.29
   0   2  12   59.53   10.24
   0   2 -12   56.19    7.62
   0  -2 -12   60.43    9.69
   0  -2  13   25.09    6.11
   0  -2  13   31.27    8.12
   0   2  13   29.93    7.89
   0   2 -13   37.06    7.47
   0  -2 -13   38.68    8.40
   0  -2  14   92.80    8.20
   0   2  14   91.55   13.48
   0   2 -14  104.28   12.41
   0  -2 -14  112.17   14.40
   0  -2  15    0.88    0.55
   0   2  15    6.38    2.55
   0   2 -15    3.77    2.44
   0  -2 -15    2.14    2.13
   0   2  16    7.43    1.74
   0   2 -16    3.40    1.19
   0  -2 -16    6.65    2.60
   0   2  17    1.71    0.64
   0   2 -17    4.96    2.51
   0  -2 -17    2.68    1.55
   0   2 -18   20.58    5.60
   0  -2 -18   12.12    3.87
   0   2 -19    2.23    1.86
   0  -2 -19    4.82    1.92
   0   2 -20    4.45    2.12
   0  -2 -20    4.60    2.42
   0   2 -21    8.98    3.02
   0  -2 -21   10.67    3.38
   0  -3   0   -0.69    0.90
   0  -3   0   -0.78    0.91
   0   3   0    4.41    1.50
   0   3   1   29.47    3.97
   0  -3   1   31.51    3.42
   0  -3  -1   33.28    4.10
   0  -3  -1   28.74    3.08
   0   3   1   30.08    3.11
   0   3  -1   30.10    3.73
   0   3  -2  190.74    6.80
   0  -3   2  179.99    6.42
   0   3   2  177.76    6.76
   0  -3  -2  190.22    7.08
   0   3   2  179.55    6.51
   0  -3   2  193.52    7.32
   0   3  -2  196.90    7.26
   0   3  -3    7.41    1.33
   0  -3   3    7.82    1.35
   0   3   3    5.33    1.71
   0  -3  -3    2.64    1.07
   0  -3  -3    7.54    1.48
   0   3   3    5.75    1.16
   0   3  -4   20.39    2.37
   0  -3   4   18.61    2.52
   0   3   4   18.41    3.24
   0  -3  -4   16.08    2.91
   0  -3   4   19.51    2.72
   0  -3  -4   29.81    4.85
   0   3   4   20.28    2.96
   0  -3   4   16.31    2.68
   0   3  -5   95.38    3.39
   0  -3   5   88.39    8.49
   0   3   5   92.07    4.26
   0  -3  -5   93.89    3.94
   0  -3   5   89.28   10.63
   0  -3  -5   90.89    9.99
   0   3   5   80.77    8.30
   0  -3   6   63.95    7.01
   0   3   6   70.52    9.64
   0  -3  -6   58.61    6.62
   0   3  -6   70.91    9.38
   0  -3   6   61.66    7.67
   0  -3  -6   63.06    7.11
   0   3   6   51.66    5.85
   0  -3   7    2.67    0.36
   0   3   7    5.99    2.45
   0  -3   7    2.84    0.50
   0  -3  -7    3.87    1.39
   0  -3  -7    4.93    1.73
   0   3   7    4.93    1.00
   0  -3   8  451.65   12.33
   0  -3   8  469.85   12.83
   0   3   8  481.83   14.15
   0  -3  -8  471.53   13.68
   0  -3   9   20.41    2.73
   0  -3   9   17.00    2.61
   0   3   9   21.73    3.82
   0   3  -9   27.67    5.06
   0  -3  -9   21.36    4.11
   0  -3  10    7.78    1.15
   0  -3  10    8.08    1.25
   0   3  10   10.43    2.99
   0   3 -10    5.27    1.64
   0  -3 -10    2.01    1.54
   0  -3  11    8.31    2.29
   0  -3  11    7.56    2.14
   0   3  11    5.30    2.26
   0   3 -11    6.40    2.70
   0  -3 -11    9.18    3.24
   0  -3  12   23.38    4.24
   0  -3  12   21.38    4.21
   0   3  12   22.34    4.56
   0   3 -12   31.95    6.66
   0  -3 -12   32.68    7.48
   0  -3  13    3.08    0.92
   0  -3  13    3.51    0.96
   0   3  13    2.31    2.18
   0   3 -13    7.88    3.27
   0  -3 -13    5.70    1.99
   0  -3  14   16.78    3.51
   0   3  14   26.72    6.50
   0   3 -14   34.44    7.62
   0  -3 -14   39.05    8.54
   0   3  15  192.21   12.70
   0   3 -15  219.34   19.20
   0  -3 -15  200.18   13.50
   0   3  16    0.29    1.53
   0   3 -16    7.04    3.27
   0  -3 -16    8.80    2.99
   0   3  17   52.24    7.25
   0   3 -17   49.30    7.91
   0  -3 -17   43.15   10.38
   0   3  18    6.43    2.47
   0   3 -18   12.99    3.93
   0  -3 -18    8.74    3.10
   0   3 -19   40.95    9.54
   0  -3 -19   34.64    7.47
   0   3 -20   26.78    6.22
   0  -3 -20   12.77    4.13
   0   4   0  921.00   13.32
   0  -4   0  925.97   13.19
   0   4   0  886.22   12.56
   0   4  -1 1233.72   17.16
   0  -4  -1 1161.66   16.30
   0  -4   1 1164.52   17.15
   0   4  -1 1194.66   16.62
   0   4  -2  315.25   11.12
   0  -4   2  299.31   10.52
   0  -4  -2  318.57   11.41
   0  -4  -2  323.24   11.42
   0   4   2  305.78   10.79
   0   4  -2  312.22   11.14
   0   4  -3 1117.43   15.32
   0   4   3 1095.41   15.83
   0  -4   3 1047.43   14.52
   0  -4   3 1059.18   14.94
   0  -4  -3 1064.88   14.89
   0   4   3 1017.49   14.21
   0  -4   3 1144.20   16.29
   0   4  -4  683.32    9.50
   0  -4   4  654.19    9.09
   0   4   4  687.24   10.58
   0  -4  -4  653.56    9.69
   0   4   4  660.56    9.67
   0   4  -5  486.28    6.84
   0  -4   5  476.51    6.74
   0   4   5  489.51    8.37
   0  -4   5  397.39   14.01
   0  -4  -5  489.47    7.71
   0   4   5  460.20    7.20
   0  -4   5  439.83    7.55
   0   4  -6  330.82    9.07
   0  -4   6  331.53    9.13
   0  -4  -6  327.02    9.72
   0  -4  -6  328.99    9.78
   0   4   6  301.06   36.77
   0  -4   6  341.78   10.48
   0   4   7    8.65    3.01
   0   4  -7   11.79    2.14
   0  -4  -7    8.18    2.24
   0   4   7    8.82    1.94
   0   4   8   25.96    4.48
   0   4  -8   26.96    5.10
   0  -4  -8   27.76    4.17
   0   4   9   17.29    3.21
   0  -4  -9   19.74    3.18
   0   4  10   81.38   12.12
   0   4 -10   73.33    8.94
   0  -4 -10   71.53    7.89
   0   4  11   52.67    8.69
   0   4 -11   76.38   12.81
   0  -4 -11   70.63   12.46
   0   4  12    5.01    2.10
   0   4 -12    8.06    2.43
   0  -4 -12    4.56    2.39
   0   4  13  280.13   14.79
   0   4 -13  299.87   15.90
   0  -4 -13  277.95   16.17
   0   4  14   19.94    4.78
   0   4 -14   29.10    6.39
   0  -4 -14   28.43    7.63
   0   4  15  255.47   17.15
   0   4 -15  263.98   20.80
   0  -4 -15  286.31   21.39
   0   4  16    6.36    2.40
   0   4 -16    4.11    2.05
   0  -4 -16    5.95    2.57
   0   4  17   81.81    8.91
   0   4 -17   81.78    9.86
   0  -4 -17   67.19   13.06
   0   4  18    4.69    1.21
   0   4 -18    3.93    2.44
   0  -4 -18    4.32    2.29
   0  -4 -19    4.89    1.90
   0  -4  19   11.13    4.94
   0  -4 -20    5.03    1.94
   0  -4  20    5.76    2.73
   0   5   0    3.43    0.97
   0   5  -1 3638.13   48.88
   0   5   1 3780.89   51.48
   0  -5   1 3627.59   48.72
   0  -5  -1 3594.49   48.55
   0  -5  -1 3665.33   49.19
   0   5   1 3593.94   48.19
   0   5  -2 2087.89   28.39
   0   5   2 2002.38   27.92
   0  -5   2 2071.49   28.11
   0  -5  -2 2066.84   28.47
   0  -5  -2 2025.66   27.60
   0   5   2 1991.62   27.12
   0  -5   2 2015.22   27.77
   0   5  -2 2073.20   28.37
   0   5  -3 1903.46   25.89
   0   5   3 1756.38   25.68
   0  -5   3 1823.24   24.91
   0  -5  -3 1678.71   23.36
   0  -5  -3 1836.20   25.17
   0   5   3 1805.88   24.69
   0   5  -3 1872.77   25.81
   0   5  -4 1545.50   21.02
   0   5   4 1526.24   21.71
   0  -5  -4 1480.91   20.85
   0   5   4 1470.57   20.36
   0   5  -5 1620.72  197.16
   0   5   5 1599.35  194.70
   0  -5   5 1509.22  183.59
   0  -5  -5 1645.14  200.25
   0   5   5 1506.86  183.37
   0   5  -6 1886.29  229.44
   0   5   6 1925.09  234.30
   0  -5   6 1650.67  200.78
   0  -5  -6 1932.77  235.21
   0   5   6 1787.78  217.55
   0  -5   6 1910.30  232.50
   0   5  -7  188.64   13.21
   0  -5   7  191.59   13.53
   0  -5  -7  207.47   14.90
   0   5   7  168.64   12.18
   0  -5   7  201.47   14.80
   0   5   8   48.12    7.05
   0  -5  -8   50.76    6.65
   0  -5   8   58.36    9.40
   0   5   9   16.60    3.97
   0  -5  -9   16.59    2.73
   0  -5   9   14.74    2.99
   0   5  10  101.05    9.30
   0  -5 -10  124.89   10.05
   0  -5  10  105.05    9.20
   0   5  11   97.33   11.93
   0  -5 -11  103.89   14.64
   0   5  12    6.17    3.03
   0  -5 -12    3.14    1.23
   0   5  13  118.71   30.61
   0  -5 -13  137.09   10.10
   0   5  14    4.03    1.85
   0  -5 -14    3.93    2.05
   0   5  15    9.02    2.90
   0  -5 -15    4.64    2.40
   0  -5  15   10.30    4.60
   0   5  16    7.08    3.13
   0  -5 -16    5.25    2.53
   0  -5  16   -1.34    3.28
   0   5  17   -0.46    1.58
   0  -5 -17    7.13    2.48
   0  -5  17    3.31    3.03
   0   5  18   17.24    5.16
   0  -5 -18   10.63    3.52
   0  -5  18   21.48    6.47
   0  -5 -19    5.76    2.46
   0  -5  19   -1.50    3.17
   0  -5 -20    4.25    1.43
   0  -5  20   18.18    4.81
   0   6   0   41.58    6.06
   0  -6   0   32.23    3.54
   0  -6   0   33.72    3.89
   0   6   0   35.63    3.81
   0   6  -1   -1.18    1.36
   0  -6   1    2.36    1.03
   0  -6  -1    1.01    1.17
   0  -6  -1    2.85    1.94
   0  -6   1    2.56    1.94
   0   6   1    1.72    2.14
   0   6  -1    1.53    1.42
   0   6  -2  135.00    7.76
   0  -6   2  142.13    8.07
   0  -6  -2  146.87    8.72
   0  -6  -2  153.27    8.77
   0   6   2  142.52    8.12
   0   6  -3   81.40   10.27
   0  -6   3   82.68   10.11
   0  -6  -3   84.17    9.30
   0   6   3   77.23    8.90
   0  -6   3   73.66    8.32
   0   6  -4   45.19    6.08
   0   6   4   41.29    7.26
   0  -6   4   40.25    5.58
   0  -6  -4   40.56    4.85
   0   6   4   42.07    6.07
   0   6  -5  113.85    6.45
   0   6   5  100.38   13.15
   0  -6   5  116.25    6.61
   0  -6  -5  118.34    6.98
   0   6   5  107.58    6.46
   0   6  -6  335.06   10.03
   0  -6   6  343.51   10.47
   0  -6  -6  348.19   11.00
   0   6   6  329.30   10.34
   0  -6   6  334.89   10.95
   0   6  -7    4.04    1.06
   0   6   7   -0.33    2.12
   0  -6   7    1.49    0.71
   0  -6  -7   -0.48    1.56
   0  -6   7    1.23    2.71
   0   6  -8  903.29  227.70
   0   6   8  926.22  233.62
   0  -6   8  855.58   33.66
   0  -6  -8  894.04   35.84
   0  -6   8  864.22   34.84
   0   6   9   53.67    8.93
   0  -6  -9   69.02    6.71
   0  -6   9   70.34    7.11
   0   6  10  548.17   28.13
   0  -6 -10  515.95   26.48
   0  -6  10  549.14   28.28
   0   6  11   12.46    3.64
   0  -6 -11    8.63    2.86
   0  -6  11   19.62    4.71
   0   6  12  148.83   20.21
   0  -6 -12  139.19    8.01
   0  -6  12  135.73   10.36
   0   6  13  117.17   13.26
   0  -6 -13  128.73    9.85
   0  -6  13  110.04    7.45
   0   6  14   30.10    7.47
   0  -6 -14   35.50    9.42
   0  -6  14   44.14    5.59
   0   6  15  112.17    9.13
   0  -6 -15  109.85   11.91
   0  -6  15  107.01    8.75
   0   6  16    5.55    2.61
   0  -6 -16    2.40    2.88
   0  -6  16    5.06    3.48
   0   6  17   50.05    6.84
   0  -6 -17   32.76    9.74
   0  -6  17   49.41    7.17
   0   6  18    5.09    1.95
   0  -6 -18    2.60    2.22
   0  -6  18    3.26    3.38
   0   6  19    9.20    3.44
   0  -6 -19   13.71    4.04
   0  -6  19   36.22    7.37
   0  -6 -20    7.00    2.29
   0  -6  20   20.34    6.55
   0   7   0    1.19    1.49
   0  -7   0    3.15    1.55
   0  -7   0   -1.58    2.02
   0   7   0    4.68    1.92
   0   7  -1  986.30   27.53
   0   7   1 1000.55   28.20
   0  -7   1  935.88   26.04
   0  -7  -1  942.03   26.65
   0  -7   1  967.99   27.04
   0   7   1  923.31   25.63
   0   7  -2  239.38   13.42
   0   7   2  262.56   14.92
   0  -7   2  245.20   13.62
   0  -7  -2  269.02   14.95
   0   7   2  242.16   13.46
   0  -7   2  265.29   14.92
   0   7  -3 1377.87  167.75
   0   7   3 1249.04  152.13
   0  -7   3 1067.41   29.40
   0  -7  -3 1332.71  162.22
   0   7   3  940.08   26.01
   0   7  -4  379.72   10.99
   0   7   4  388.56   12.12
   0  -7   4  399.36   11.45
   0  -7  -4  372.90   10.92
   0   7   4  358.31   10.56
   0  -7   4  370.29   11.27
   0   7  -5  590.13   17.58
   0   7   5  602.74   18.82
   0  -7   5  577.60   17.21
   0  -7  -5  596.98   18.10
   0   7  -6  180.43   12.79
   0   7   6  171.69   12.98
   0  -7   6  166.76   12.15
   0  -7  -6  173.73   12.60
   0  -7   6  191.64   16.59
   0   7  -7    8.54    1.45
   0   7   7    6.07    1.43
   0  -7   7    2.24    0.73
   0  -7  -7    3.50    1.65
   0  -7   7    3.91    3.03
   0   7  -8  100.60    8.90
   0   7   8  111.78   15.26
   0  -7   8   83.67    7.93
   0  -7  -8   88.91    8.30
   0  -7   8   97.98    9.43
   0   7   9   34.07    5.47
   0  -7  -9   44.10    5.96
   0  -7   9   31.26    4.98
   0   7  10   73.34   10.61
   0  -7 -10   66.63    7.67
   0  -7  10   79.63    9.75
   0   7  11    7.82    2.99
   0  -7 -11    3.89    2.51
   0  -7  11    2.20    3.25
   0   7  12   57.34    8.04
   0  -7 -12   66.68    6.37
   0  -7  12   52.71    6.56
   0   7  13   21.32    5.69
   0  -7 -13   17.88    6.17
   0  -7  13   23.55    5.94
   0   7  14    9.38    3.06
   0  -7 -14    9.69    2.70
   0  -7  14    9.77    5.22
   0   7  15    4.74    2.36
   0  -7 -15    4.65    1.54
   0  -7  15    2.28    3.19
   0   7  16   25.91    6.93
   0  -7 -16   15.90    4.79
   0  -7  16   15.46    5.11
   0   7  17    2.73    3.02
   0  -7 -17   10.85    3.30
   0  -7  17   10.88    5.32
   0   7  18    2.12    1.54
   0  -7 -18    2.19    1.28
   0  -7  18    8.08    3.80
   0   7  19    2.46    1.14
   0  -7 -19    3.94    1.51
   0  -7  19    3.19    3.05
   0   8   0  324.52   10.74
   0  -8   0  312.65   10.18
   0   8  -1   82.02    6.47
   0   8   1   85.83   11.90
   0  -8  -1   85.96    6.79
   0  -8   1   87.70    9.20
   0   8  -2   58.72   10.44
   0   8   2   51.95    8.79
   0  -8   2   50.27    7.56
   0  -8  -2   57.30    7.61
   0  -8   2   42.86    6.01
   0   8  -3    7.43    1.78
   0  -8   3    3.48    1.05
   0  -8  -3    6.32    1.91
   0  -8   3    6.69    3.97
   0   8  -4   11.16    2.18
   0   8   4   15.60    3.80
   0  -8   4    7.58    1.53
   0  -8  -4   14.64    2.60
   0  -8   4   14.09    3.43
   0   8  -5   13.96    2.23
   0   8   5   15.95    3.28
   0  -8   5   12.64    2.36
   0  -8  -5   16.84    2.83
   0  -8   5   15.16    2.95
   0   8  -6  141.45   12.83
   0   8   6  124.73   12.15
   0  -8   6  141.25   12.56
   0  -8  -6  154.22   39.09
   0   8  -7  117.95    9.05
   0   8   7  129.55   10.88
   0  -8   7  116.93    9.37
   0  -8  -7  115.51    9.25
   0   8  -8  286.63   14.47
   0   8   8  275.02   16.44
   0  -8   8  264.12   13.30
   0  -8  -8  274.28   15.22
   0  -8   8  279.12   15.05
   0   8  -9   11.26    2.26
   0   8   9    7.97    2.38
   0  -8  -9    8.00    2.56
   0  -8   9   13.30    4.81
   0   8  10  234.92   13.62
   0  -8 -10  245.07   13.06
   0  -8  10  216.28   12.05
   0   8  11    4.33    2.83
   0  -8 -11    3.96    2.12
   0  -8  11    9.96    4.33
   0   8  12   95.98   13.42
   0  -8 -12  104.92    6.49
   0  -8  12  101.63    8.18
   0   8  13   52.37    7.60
   0  -8 -13   37.48    8.82
   0  -8  13   49.47    6.74
   0   8  14    8.42    3.03
   0  -8 -14    2.41    1.80
   0  -8  14    0.52    3.32
   0   8  15    5.21    2.43
   0  -8 -15    5.99    2.35
   0  -8  15    5.39    3.76
   0   8  16    5.39    3.64
   0  -8 -16    3.59    1.30
   0  -8  16    7.75    4.64
   0   8  17   10.92    3.24
   0  -8 -17    6.13    1.92
   0  -8  17   17.26    5.85
   0   8  18    5.32    2.46
   0  -8 -18    7.17    2.28
   0  -8  18   11.62    3.99
   0   8  19    9.85    3.62
   0  -8 -19    9.56    3.37
   0  -8  19   10.95    4.23
   0   9   0    3.23    1.89
   0  -9   0    2.75    1.44
   0   9  -1 1397.89   41.39
   0   9   1 1529.60   45.34
   0  -9  -1 1466.56   43.28
   0  -9   1 1525.69   45.07
   0   9  -2   61.74    8.59
   0   9   2   51.59    7.16
   0  -9  -2   45.94    6.38
   0  -9   2   60.10    8.18
   0   9  -3  193.81    8.58
   0   9   3  212.57   13.02
   0  -9  -3  192.45    8.72
   0  -9   3  185.42    8.63
   0   9  -4    3.40    1.71
   0   9   4    5.25    2.47
   0  -9   4    4.09    1.63
   0  -9  -4    0.68    1.67
   0  -9   4    6.92    3.55
   0   9  -5   26.66    4.72
   0   9   5   29.42    6.55
   0  -9   5   30.71    4.13
   0  -9  -5   28.85    3.98
   0  -9   5   38.66    5.88
   0   9  -6    1.11    1.40
   0   9   6    1.46    1.47
   0  -9   6   -0.02    0.86
   0  -9  -6    3.57    1.91
   0  -9   6    2.41    2.31
   0   9  -7   58.24    7.74
   0   9   7   61.50   11.35
   0  -9   7   55.91    7.41
   0  -9  -7   62.62    8.18
   0  -9   7   54.29    7.41
   0   9  -8  152.82    7.35
   0   9   8  146.46    9.90
   0  -9   8  124.42   13.44
   0  -9  -8  152.93    8.26
   0   9  -9    2.06    0.89
   0   9   9    5.50    3.00
   0  -9   9    3.08    1.04
   0  -9  -9    3.87    2.19
   0  -9   9   10.12    3.96
   0   9 -10    3.09    0.90
   0   9  10    3.61    1.65
   0  -9 -10    8.67    3.92
   0  -9  10    7.91    4.48
   0   9  11   68.11   11.62
   0  -9 -11   56.48    7.26
   0  -9  11   60.59    8.94
   0   9  12  138.98   15.06
   0  -9 -12  115.81    7.96
   0  -9  12  132.76   10.96
   0   9  13    5.23    1.96
   0  -9 -13    7.43    2.07
   0  -9  13    7.27    3.29
   0   9  14  140.07   17.17
   0  -9 -14  136.82   11.40
   0  -9  14  166.26   14.29
   0   9  15    8.41    3.18
   0  -9 -15    4.57    1.86
   0  -9  15    7.55    3.55
   0   9  16    8.03    2.79
   0  -9 -16    5.93    1.97
   0  -9  16   18.48    5.69
   0   9  17    3.48    1.70
   0  -9 -17    4.55    1.36
   0  -9  17    2.95    3.25
   0   9  18    4.60    2.45
   0  -9 -18    1.35    1.30
   0  -9  18    3.33    3.58
   0  10   0    6.64    1.74
   0 -10   0   10.50    3.38
   0  10  -1  165.10   11.89
   0  10   1  177.62   13.51
   0 -10  -1  158.49   40.19
   0 -10   1  146.85   13.68
   0  10  -2   37.74    7.25
   0  10   2   35.22    6.77
   0 -10  -2   43.73    6.36
   0 -10   2   32.07    4.95
   0  10  -3   59.76   10.88
   0  10   3   69.04   10.54
   0 -10  -3   50.75    7.07
   0 -10   3   47.20    6.89
   0  10  -4   45.71    8.15
   0  10   4   50.32    9.18
   0 -10  -4   49.08    6.42
   0 -10   4   51.00    7.38
   0  10  -5  533.45   26.98
   0  10   5  522.46   27.13
   0 -10  -5  515.68   26.21
   0 -10   5  545.97   28.20
   0  10  -6  128.29    8.62
   0  10   6  135.02   13.16
   0 -10   6  101.16   10.76
   0 -10  -6  137.03    7.55
   0 -10   6  126.63    7.64
   0  10  -7   28.50    5.67
   0  10   7   30.10    7.01
   0 -10   7   20.56    4.40
   0 -10  -7   38.21    6.51
   0 -10   7   35.31    4.98
   0  10  -8    3.14    1.69
   0  10   8    4.94    1.82
   0 -10   8   -0.16    0.63
   0 -10  -8    2.08    1.43
   0 -10   8    5.45    2.39
   0  10  -9  211.15   11.92
   0  10   9  236.30   22.75
   0 -10  -9  220.55   12.78
   0  10 -10    1.71    0.67
   0  10  10    4.17    2.55
   0 -10 -10    1.73    1.77
   0 -10  10    7.28    3.84
   0  10  11   34.08    8.30
   0 -10 -11   22.87    6.88
   0 -10  11   23.44    6.52
   0  10  12    4.49    2.78
   0 -10 -12    4.58    2.68
   0 -10  12    6.94    3.79
   0  10  13    5.28    2.55
   0 -10 -13   -0.02    1.52
   0 -10  13    0.11    3.15
   0  10  14   10.76    4.51
   0 -10 -14    6.47    2.65
   0 -10  14   22.55    6.52
   0  10  15    5.05    2.30
   0 -10 -15   11.90    3.18
   0 -10  15   10.94    5.77
   0  10  16   32.91    7.71
   0 -10 -16   23.69    9.01
   0 -10  16   49.85    6.99
   0  10  17    3.75    1.74
   0 -10 -17    2.92    1.44
   0 -10  17    3.11    3.63
   0  10  18   26.49    8.09
   0 -10 -18   22.80    5.77
   0 -10  18   53.77   13.39
   0  11   0    4.12    2.33
   0 -11   0   -1.44    2.52
   0  11   1   24.80    5.41
   0 -11  -1   16.28    4.88
   0 -11   1   13.00    4.16
   0  11  -2  158.23   11.24
   0  11   2  130.34   13.43
   0 -11  -2  135.66    7.78
   0 -11   2  168.68   13.51
   0  11  -3  181.93    9.36
   0  11   3  158.58   10.13
   0 -11  -3  188.04    9.71
   0 -11   3  169.31    9.17
   0  11  -4  438.14   20.77
   0  11   4  462.41   22.47
   0 -11  -4  450.28   21.49
   0 -11   4  433.67   20.95
   0  11  -5    5.97    2.45
   0 -11  -5    5.96    2.49
   0 -11   5    8.72    4.00
   0  11  -6    4.13    1.92
   0  11   6    4.40    1.95
   0 -11  -6    8.98    3.81
   0 -11   6    6.25    2.70
   0  11  -7    8.59    2.77
   0  11   7    3.93    2.60
   0 -11  -7    7.66    3.54
   0 -11   7   11.92    4.77
   0  11  -8   18.51    4.28
   0  11   8    8.58    3.07
   0 -11  -8   14.61    4.96
   0 -11   8   11.49    4.21
   0  11  -9   15.44    3.63
   0  11   9   18.90    4.61
   0 -11  -9   16.32    4.19
   0 -11   9   22.38    5.09
   0  11  10   51.61    8.59
   0 -11 -10   56.96    6.31
   0  11  11    4.03    3.01
   0 -11 -11    9.12    3.44
   0 -11  11    6.33    3.76
   0  11  12  107.24   14.36
   0 -11 -12   83.28    7.03
   0  11  13    8.69    4.19
   0 -11 -13    3.86    2.55
   0 -11  13    7.98    3.48
   0  11  14  169.62   29.52
   0 -11 -14  142.60   17.44
   0 -11  14  143.92   18.14
   0  11  15    5.11    2.66
   0 -11 -15    2.12    1.52
   0 -11  15    4.64    3.62
   0  11  16   29.22    6.78
   0 -11 -16   17.89    5.61
   0 -11  16   35.97    9.51
   0  11  17    8.53    3.76
   0 -11  17    9.07    4.24
   0  12   0   31.31    8.19
   0 -12   0   27.68    6.73
   0  12  -1   53.54   10.19
   0  12   1   44.64    7.50
   0 -12  -1   63.68   10.07
   0 -12   1   52.62    9.35
   0  12  -2    8.71    2.92
   0  12   2    3.75    2.04
   0 -12  -2   21.85    5.66
   0 -12   2    4.24    3.97
   0  12  -3  136.17    8.01
   0  12   3  137.00    9.30
   0 -12  -3  134.65    7.97
   0 -12   3  132.31   34.66
   0  12  -4   44.58    8.70
   0  12   4   34.40    6.60
   0 -12  -4   54.12   10.34
   0 -12   4   38.73    6.43
   0  12  -5  748.38   40.88
   0  12   5  746.96   41.49
   0 -12  -5  774.14  197.63
   0 -12   5  811.43  207.20
   0  12  -6    0.94    0.98
   0  12   6    3.53    2.43
   0 -12  -6    2.10    2.02
   0 -12   6    3.20    3.15
   0  12  -7  307.39   16.17
   0  12   7  308.93   17.58
   0 -12  -7  344.17   18.39
   0 -12   7  329.18   18.09
   0  12  -8   17.81    3.84
   0  12   8    8.35    4.67
   0 -12  -8   17.31    4.22
   0 -12   8   15.83    4.42
   0  12  -9  171.14    9.46
   0  12   9  189.24   18.08
   0 -12  -9  181.24   10.81
   0 -12   9  166.74   10.65
   0  12  10   13.45    5.69
   0 -12 -10    6.24    2.41
   0 -12  10   -1.59    3.15
   0  12  11   92.18   12.66
   0 -12 -11   70.43    6.64
   0 -12  11   75.82    8.50
   0  12  12   14.43    5.04
   0 -12 -12    9.80    3.52
   0  12  13   16.86    5.68
   0 -12 -13    6.37    2.25
   0 -12  13   15.37    5.67
   0  12  14    0.08    2.31
   0 -12 -14    5.68    2.78
   0 -12  14    8.59    4.16
   0  12  15    7.09    2.39
   0 -12 -15    0.94    1.53
   0 -12  15    5.91    5.05
   0  12  16   18.93    5.39
   0 -12  16   17.29    6.00
   0  13   0    4.89    3.40
   0 -13   0    5.64    4.16
   0  13  -1    7.54    2.93
   0  13   1    5.97    3.61
   0 -13  -1    8.93    5.13
   0 -13   1   17.79    5.45
   0  13  -2  102.76   14.27
   0  13   2   97.29   12.21
   0 -13  -2   96.76   15.03
   0 -13   2   92.73    8.59
   0  13  -3   32.21    7.67
   0  13   3   30.55    7.15
   0 -13  -3   38.97    6.37
   0 -13   3   30.89    6.41
   0  13  -4   73.84   12.55
   0  13   4   94.66   12.85
   0 -13  -4   79.53   20.91
   0 -13   4   74.41    9.95
   0  13  -5   63.97    8.14
   0  13   5   67.40   11.88
   0 -13  -5   60.21   12.44
   0 -13   5   73.44   10.21
   0  13  -6  110.22    8.64
   0 -13  -6  111.16    9.44
   0 -13   6  121.76   11.72
   0  13  -7   99.27   11.93
   0  13   7  120.95   15.19
   0 -13  -7  120.57    8.32
   0 -13   7  122.46    9.92
   0  13  -8    0.90    0.90
   0  13   8    0.77    2.93
   0 -13  -8    1.17    1.52
   0 -13   8    6.41    4.73
   0  13   9   79.70    9.26
   0 -13  -9   85.83    7.41
   0 -13   9   88.05    9.01
   0  13  10   21.23    4.94
   0 -13 -10   13.30    4.17
   0 -13  10   23.76    6.13
   0  13  11   18.52    5.79
   0 -13 -11   18.38    5.01
   0 -13  11   13.04    5.12
   0  13  12   42.94    7.51
   0 -13 -12   41.83    5.80
   0 -13  12   42.61    8.22
   0  13  13   18.97    5.21
   0 -13 -13    0.15    1.45
   0  13  14   70.88   11.71
   0 -13 -14   64.52    9.88
   0 -13  14   63.48   10.42
   0  13  15    9.16    5.00
   0 -13  15    3.73    4.73
   0  14   0  383.48   26.03
   0 -14   0  411.76   59.81
   0  14  -1   38.60    8.55
   0  14   1   24.64    5.11
   0 -14  -1   42.82    7.41
   0 -14   1   31.35    6.26
   0  14  -2    2.26    1.87
   0  14   2    8.59    3.42
   0 -14  -2    7.40    4.06
   0 -14   2    0.37    2.47
   0  14  -3   44.41    6.43
   0  14   3   63.43    9.68
   0 -14  -3   70.66    7.75
   0 -14   3   61.67    7.27
   0  14  -4   50.93    5.49
   0  14   4   55.20    8.08
   0 -14  -4   59.62    6.57
   0 -14   4   68.11    7.60
   0  14  -5   66.50    7.72
   0  14   5   68.25    8.83
   0 -14  -5   53.02   10.44
   0 -14   5   71.73    6.87
   0  14  -6    8.90    2.78
   0  14   6    9.66    4.06
   0 -14  -6   13.36    4.21
   0 -14   6    7.78    3.52
   0  14  -7  118.34    9.27
   0  14   7  107.50    9.79
   0 -14  -7  119.99   10.12
   0 -14   7  128.14   10.89
   0  14   8   -0.71    2.62
   0 -14  -8    5.04    2.28
   0 -14   8    8.53    5.12
   0  14   9   31.32    7.97
   0 -14  -9   48.98    5.17
   0 -14   9   57.43    6.87
   0  14  10    5.56    3.10
   0 -14 -10    1.67    1.61
   0 -14  10   11.75    5.33
   0  14  11   26.42    6.73
   0 -14 -11   22.85    6.32
   0 -14  11   36.65    6.86
   0  14  12    3.58    1.95
   0 -14 -12    2.42    2.17
   0 -14  12    2.36    3.13
   0  14  13   20.77    5.24
   0 -14 -13    7.39    2.32
   0 -14  13   16.04    4.89
   0  14  14   -2.96    2.56
   0  15   0    2.26    2.17
   0 -15   0   11.51    5.74
   0  15  -1    7.41    2.68
   0  15   1    3.78    2.47
   0 -15  -1    7.06    3.19
   0 -15   1   11.74    5.10
   0  15  -2    1.27    1.02
   0  15   2    6.87    3.17
   0 -15  -2    8.29    4.21
   0 -15   2    4.40    3.67
   0  15  -3    4.71    1.63
   0  15   3    4.39    1.92
   0 -15  -3    3.28    2.74
   0 -15   3    6.83    4.78
   0  15  -4   59.28    6.45
   0  15   4   58.56    8.39
   0 -15  -4   58.61    8.59
   0 -15   4   49.66    8.78
   0  15  -5   14.15    4.33
   0  15   5   14.73    5.44
   0 -15  -5   12.96    4.33
   0 -15   5    1.23    3.39
   0  15  -6   29.55    5.15
   0  15   6   28.38    7.23
   0 -15  -6   26.72    5.36
   0 -15   6   25.69    5.52
   0  15  -7   20.55    5.59
   0  15   7   12.56    4.45
   0 -15  -7   22.51    6.45
   0 -15   7   21.13    6.87
   0  15   8   37.67    8.97
   0 -15  -8   35.75    7.51
   0 -15   8   46.06    7.59
   0  15   9    9.59    3.60
   0 -15  -9    3.66    1.79
   0 -15   9   12.52    5.08
   0  15  10   36.30    7.91
   0 -15 -10   19.48    5.67
   0 -15  10   17.34    4.58
   0  15  11   25.99    6.32
   0 -15 -11   10.88    3.53
   0 -15  11   30.58    7.07
   0  15  12    8.50    3.62
   0 -15 -12    6.41    2.64
   0 -15  12   20.12    5.63
   0  15  13    9.85    4.47
   0 -15  13    5.34    3.21
   0  16   0    9.05    3.31
   0 -16   0   19.26    5.06
   0  16  -1    4.92    1.81
   0  16   1    6.16    1.87
   0 -16  -1   10.57    4.15
   0 -16   1    2.20    4.35
   0  16  -2    3.34    1.55
   0  16   2    9.18    4.59
   0 -16  -2    5.52    2.91
   0 -16   2    1.80    2.84
   0  16  -3    4.11    1.22
   0  16   3    1.09    1.77
   0 -16  -3    3.74    2.47
   0 -16   3    1.63    3.32
   0  16  -4    0.58    1.54
   0  16   4    7.92    3.34
   0 -16  -4    1.49    2.19
   0 -16   4   10.17    5.33
   0  16  -5    3.42    1.82
   0  16   5   11.67    5.77
   0 -16  -5   10.10    3.81
   0 -16   5   10.43    5.02
   0  16  -6    9.27    3.15
   0  16   6   14.71    5.14
   0 -16  -6    9.45    3.69
   0 -16   6   22.80    6.36
   0  16   7   11.14    4.03
   0 -16  -7    3.12    2.04
   0 -16   7    4.51    3.77
   0 -16  -8   63.39   10.18
   0 -16   8   77.30   13.32
   0  16   9   -2.36    2.92
   0 -16  -9    7.07    2.30
   0 -16   9   10.24    5.16
   0  16  10   19.93    4.78
   0 -16  10   28.25    6.92
   0  16  11   36.62    8.56
   0 -16  11   17.60    4.82
   0  16  12    7.87    3.56
   0 -16  12    1.65    2.98
   0  17   0    4.41    2.50
   0 -17   0    3.65    2.77
   0  17  -1   33.90    7.51
   0  17   1   44.84    6.99
   0 -17  -1   43.70    7.15
   0 -17   1   38.04    7.44
   0  17  -2   18.40    4.25
   0  17   2   14.64    4.91
   0 -17  -2   15.53    4.91
   0 -17   2   21.12    5.80
   0  17  -3   14.33    3.98
   0  17   3   12.36    4.15
   0 -17  -3   20.76    5.52
   0 -17   3    3.72    3.46
   0  17  -4   50.96   11.59
   0  17   4   63.78   10.95
   0 -17  -4   70.28   11.71
   0 -17   4   70.67   11.19
   0  17  -5    3.84    2.20
   0  17   5    5.36    1.69
   0 -17  -5    4.12    2.17
   0 -17   5    4.62    3.56
   0  17   6   73.60   14.11
   0 -17  -6  110.19   12.36
   0 -17   6   88.13   10.88
   0  17   7    3.84    2.45
   0 -17  -7    2.75    2.04
   0 -17   7    5.53    3.68
   0  17   8   28.33    5.71
   0 -17  -8   18.72    5.29
   0 -17   8   40.54    7.49
   0  17   9    7.01    3.59
   0 -17  -9    7.89    3.41
   0 -17   9    6.21    3.67
   0  17  10   15.33    5.13
   0 -17  10   15.06    5.71
   0  18   0    9.76    4.12
   0 -18   0    0.33    2.70
   0  18  -1    4.05    1.77
   0  18   1    3.44    1.86
   0 -18  -1    5.19    3.65
   0 -18   1   12.30    4.84
   0  18  -2    8.23    3.77
   0  18   2    4.26    2.61
   0 -18  -2    9.63    4.14
   0 -18   2    3.81    3.08
   0  18   3   12.03    4.19
   0 -18  -3    6.65    2.97
   0 -18   3   12.10    5.03
   0  18  -4    2.37    1.35
   0  18   4    2.50    3.77
   0 -18  -4    1.01    1.96
   0 -18   4    2.41    3.31
   0  18   5   22.17    5.90
   0 -18  -5    9.48    3.37
   0 -18   5   10.58    4.57
   0  18   6   11.34    3.89
   0 -18  -6    8.97    3.61
   0 -18   6    9.84    4.88
   0  18   7   11.22    5.05
   0 -18  -7   10.20    3.82
   0 -18   7    6.53    3.47
   0  19   0    3.97    2.49
   0 -19   0   13.91    5.05
   0  19  -1    8.91    3.26
   0  19   1   12.61    4.52
   0 -19  -1   12.34    4.70
   0 -19   1    4.62    2.90
   0  19  -2   31.86    7.91
   0  19   2   25.29    7.45
   0 -19  -2   20.29    5.52
   0 -19   2   20.86    5.79
   0  19  -3    2.77    2.40
   0  19   3   10.47    4.14
   0 -19  -3    4.82    2.08
   0 -19   3    3.46    2.88
   0  19   4   49.89   12.06
   0 -19  -4   21.64    6.16
   0 -19   4   45.60   11.41
  -1   0   0    0.20    0.22
   1   0   0    0.02    0.24
   1   0   0    0.40    0.24
  -1   0   0   -0.15    0.20
   1   0   1   -0.74    0.29
  -1   0   1   -0.01    0.29
   1   0  -1    0.01    0.18
   1   0  -1    1.27    0.52
   1   0   1    0.86    0.23
  -1   0  -2    1.51    0.48
   1   0   2    3.18    0.67
  -1   0   2    0.36    0.46
   1   0  -2    4.23    0.76
  -1   0  -2    0.97    0.25
   1   0   2    5.38    0.90
   1   0  -2    0.73    0.68
  -1   0   2    2.95    0.60
   1   0   3 1162.74   15.87
  -1   0   3 1197.51   16.15
   1   0  -3 1235.30   16.59
   1   0   3 1229.79   16.72
  -1   0   3 1178.68   16.21
  -1   0  -4 1791.91   24.12
   1   0   4 1710.57   23.04
  -1   0   4 1766.26   23.73
   1   0  -4 1776.75   23.82
   1   0  -4 1820.28   24.96
  -1   0   4 1714.44   23.44
   1   0   5   32.58    4.40
  -1   0   5   29.94    3.44
   1   0  -5   32.72    4.26
   1   0   5   35.99    5.00
  -1   0  -5   41.18    4.65
   1   0   5   37.93    4.87
  -1   0   5   31.97    3.51
   1   0   6  257.50    9.17
  -1   0   6  252.61    8.92
   1   0  -6  275.37    9.71
   1   0   6  258.08    9.26
  -1   0  -6  284.37   10.25
   1   0  -6  277.79   10.14
   1   0   6  264.26    9.46
  -1   0   6  260.85    9.43
   1   0   7  787.55   21.77
  -1   0   7  827.36   22.78
   1   0   7  821.14   22.64
   1   0  -7  826.75   22.70
  -1   0  -7  854.91   24.38
   1   0   7  826.10   23.00
   1   0   8  621.24   17.25
  -1   0   8  671.37   18.64
   1   0   8  652.11   18.37
   1   0  -8  678.24   18.75
  -1   0  -8  683.82   19.29
   1   0   9  312.12    9.62
  -1   0   9  321.30    9.99
   1   0   9  306.48    9.48
   1   0  -9  316.28    9.63
  -1   0  -9  340.80   10.85
   1   0  -9  322.51   10.98
  -1   0  10  130.05    9.53
   1   0  10  132.17    9.58
  -1   0  10  145.71   10.52
   1   0  10  150.19   11.01
  -1   0 -10  145.56   12.28
   1   0 -10  153.46   11.33
  -1   0  11   45.70    6.39
   1   0  11   42.52    6.77
  -1   0  11   54.53   14.60
   1   0  11   52.48    6.41
  -1   0 -11   59.23    8.16
   1   0 -11   71.58    8.78
  -1   0  12   17.65    5.05
   1   0  12   18.23    5.00
  -1   0  12   24.59    4.85
   1   0  12   25.48    5.31
  -1   0 -12   30.29    5.43
   1   0 -12   29.11    5.23
  -1   0  13    1.31    0.89
   1   0  13   -0.42    0.69
  -1   0  13    1.43    1.02
   1   0  13    3.34    1.68
  -1   0 -13    3.60    1.56
   1   0 -13    5.03    2.16
  -1   0  14   54.51    7.75
   1   0  14   60.10    7.89
  -1   0 -14   58.86    7.80
   1   0 -14   67.75    8.33
  -1   0  15  128.03    8.91
   1   0  15  117.87    7.55
  -1   0 -15  127.57   14.38
   1   0 -15  127.82   15.37
  -1   0  16   17.30    4.31
   1   0  16   13.96    4.15
  -1   0 -16   23.86    6.32
   1   0 -16   18.46    5.94
  -1   0 -17   15.80    4.51
   1   0 -17   12.89    3.64
  -1   0 -18   23.56    6.07
   1   0 -18   20.80    5.58
  -1   0 -19   -1.04    1.99
   1   0 -19    3.21    2.06
  -1   0 -20   31.43    8.13
   1   0 -20   35.28   10.41
  -1   0 -21    3.77    1.95
   1   0 -21    7.30    3.25
  -1  -1   0   -0.13    0.31
   1   1   0   -0.55    0.31
   1  -1   0   -0.10    0.34
   1   1   0   -0.03    0.20
   1  -1   0    0.40    0.37
  -1  -1  -1    0.67    0.34
  -1  -1   1    0.66    0.28
  -1   1   1   -0.54    0.44
   1   1  -1   -0.08    0.42
   1  -1  -1    1.89    0.51
   1  -1   1   -0.36    0.47
  -1  -1  -2  175.06    6.20
   1   1   2  172.36    6.55
  -1  -1   2  162.57    5.62
  -1   1  -2  162.27    5.69
   1  -1   2  174.02    6.14
  -1   1   2  179.84    6.36
   1   1  -2  183.43    6.51
   1   1   2  145.45    5.08
  -1   1   2  170.30    6.06
   1  -1   2  173.44    6.13
   1   1   3  555.86    7.93
  -1   1  -3  551.63    7.65
  -1   1   3  580.93    8.27
   1   1   3  551.03    7.91
   1   1  -3  523.27    7.79
   1  -1  -3  535.27    7.92
  -1   1   3  548.92    8.01
  -1   1  -4  117.60    4.31
   1  -1   4  127.68    4.70
  -1  -1   4  120.75    4.37
   1  -1  -4  113.75    4.27
   1   1  -4  143.72    5.08
   1   1   4  125.12    4.89
  -1   1  -4  127.03    5.12
   1  -1   4  140.14    5.17
  -1  -1  -4  132.02    5.48
  -1  -1   4  123.50    4.68
   1   1   4  112.56    4.23
  -1   1   4  126.22    4.88
   1   1   5  295.48   10.95
  -1   1  -5  286.95    9.98
   1  -1   5  254.91    8.91
  -1  -1   5  291.50   10.15
  -1   1   5  261.31    9.37
   1  -1  -5  292.46   10.30
   1   1  -5  266.03    9.20
   1   1   5  285.85   10.21
   1   1  -5  279.19   10.23
  -1  -1  -5  269.19    9.58
  -1  -1   5  299.58   10.66
   1  -1  -5  295.01   10.62
   1   1   5  280.82    9.96
  -1   1  -6  132.03    4.78
   1   1   6  138.50    5.63
   1  -1   6  138.85    5.06
  -1  -1   6  137.68    4.95
  -1   1   6  139.86    5.29
   1  -1  -6  129.68    5.18
   1   1   6  138.79    5.36
   1   1  -6  150.03    5.32
  -1   1  -6  147.77    6.79
   1  -1   6  145.06    5.46
  -1  -1  -6  163.02    6.13
  -1  -1   6  126.69    5.15
   1   1   6  131.25    4.98
  -1   1   6  136.72    5.42
   1   1   7   26.05    3.49
   1  -1   7   25.67    3.77
  -1  -1   7   25.05    3.68
  -1   1   7   24.87    4.56
   1   1   7   25.95    3.28
   1  -1  -7   24.68    3.07
   1  -1   7   20.34    2.64
  -1   1  -7   28.09    3.93
   1   1  -7   29.44    4.15
  -1  -1  -7   27.92    5.26
   1  -1   7   20.96    3.22
   1  -1  -7   28.89    5.34
   1   1   7   24.73    3.08
  -1   1   7   23.08    2.88
  -1  -1   8  216.45   11.82
   1   1   8  215.32   11.94
   1  -1   8  182.65   10.08
  -1  -1   8  212.33   11.69
  -1   1   8  201.58   11.43
   1   1   8  201.11   11.46
   1  -1   8  200.71   11.10
   1  -1  -8  206.83   11.47
  -1   1  -8  218.79   12.29
   1   1  -8  218.41   13.35
  -1  -1  -8  214.51   12.08
   1  -1  -8  224.09   12.80
   1   1   8  194.50   10.88
  -1  -1   9   68.04    8.60
   1   1   9   58.09    8.26
   1  -1   9   43.88    6.35
  -1  -1   9   72.92    8.53
  -1   1   9   47.68    8.18
   1   1   9   73.32    8.59
   1  -1   9   42.50    5.41
   1  -1  -9   67.87    9.25
  -1   1  -9   67.66   12.24
   1   1  -9   52.40    9.38
  -1  -1  -9   57.22    8.08
   1  -1  -9   67.49   10.85
  -1  -1  10  215.01    8.95
   1   1  10  198.56    8.30
   1  -1  10  159.86   40.36
  -1  -1  10  218.00    8.97
  -1   1  10  181.56    7.80
   1   1  10  229.76    9.86
   1  -1  10  187.93    7.92
   1  -1 -10  222.94    9.28
  -1   1 -10  224.20    9.82
   1   1 -10  201.42   11.15
  -1  -1 -10  195.17    8.92
   1  -1 -10  237.25   10.58
  -1   1  11  416.75   16.82
  -1  -1  11  462.33   18.49
   1  -1  11  419.17   16.97
  -1  -1  11  484.80   19.39
  -1   1  11  473.23   19.20
   1   1  11  490.06   19.86
   1  -1  11  463.95   19.00
  -1   1 -11  518.92   21.38
   1   1 -11  484.07   20.00
  -1  -1 -11  491.70   20.68
   1  -1 -11  518.36   21.32
  -1   1  12   23.15    6.68
  -1  -1  12   44.50    6.24
   1  -1  12   28.07    4.35
  -1  -1  12   45.32    7.56
  -1   1  12   32.85    4.39
   1  -1  12   37.94    6.66
   1   1  12   57.95    8.30
  -1   1 -12   57.77    9.17
   1   1 -12   44.04    7.35
  -1  -1 -12   38.77    6.17
   1  -1 -12   60.70   10.39
  -1  -1  13  708.89   35.05
   1  -1  13  571.39   28.38
  -1  -1  13  858.74  215.24
  -1   1  13  735.35   36.86
   1   1  13  832.41  208.74
   1  -1  13  743.23   36.89
  -1   1 -13  896.94  224.92
   1   1 -13  777.66  195.05
  -1  -1 -13  767.09  192.38
   1  -1 -13  890.29  223.35
  -1  -1  14    9.34    2.73
  -1   1  14    4.07    3.34
   1  -1  14    7.00    2.28
   1   1  14   10.69    3.14
  -1   1 -14   13.49    4.47
   1   1 -14    9.38    3.39
  -1  -1 -14    9.05    3.56
   1  -1 -14   17.51    4.20
  -1  -1  15  234.57   12.22
  -1   1  15  218.82   11.80
   1  -1  15  241.80   12.83
   1   1  15  222.73   12.29
  -1   1 -15  259.15   19.86
  -1  -1 -15  248.18   15.55
   1   1 -15  241.51   24.75
   1  -1 -15  269.50   14.89
  -1   1  16   22.56    5.81
   1   1  16   26.35    6.40
  -1   1 -16   32.27    5.52
  -1  -1 -16   21.72    5.51
   1   1 -16   28.59    6.75
   1  -1 -16   26.54    6.56
   1   1  17  104.56   11.72
  -1   1 -17  122.38   16.69
  -1  -1 -17  106.96   11.39
   1   1 -17   93.26   14.27
   1  -1 -17  114.48   17.47
  -1   1 -18    3.94    1.74
  -1  -1 -18    4.18    2.19
   1   1 -18   10.84    4.29
   1  -1 -18    7.93    2.35
  -1   1 -19   18.68    6.10
   1   1 -19   21.26    6.85
  -1  -1 -19   14.05    4.82
   1  -1 -19   19.18    5.81
  -1   1 -20    5.89    1.86
   1   1 -20    9.11    3.14
  -1  -1 -20    7.72    2.49
   1  -1 -20    6.51    2.16
  -1   1 -21    4.89    1.99
  -1  -1 -21    7.04    2.68
   1   1 -21    7.08    3.06
   1  -1 -21    6.27    2.58
  -1  -2   0 1973.77   26.28
  -1   2  -1  806.44   11.16
   1  -2   1  908.43   12.39
  -1   2   1  806.18   11.24
   1   2   1  840.72   11.31
  -1   2  -1  869.88   11.97
   1   2  -2 1760.93   23.41
  -1   2   2 1830.61   24.76
   1   2  -2 1799.96   23.96
   1   2  -2 1936.10   26.09
  -1  -2  -2 1748.89   23.38
  -1   2   2 1741.85   23.54
   1  -2   2 1868.47   25.20
   1   2  -3  236.32    8.09
  -1   2  -3  256.25    8.93
   1  -2   3  227.05    8.04
  -1   2   3  239.18    8.68
   1  -2   3  242.46    8.64
  -1  -2  -3  235.63    8.30
   1   2   3  249.62    8.76
  -1   2   3  224.25    8.10
   1  -2   3  223.17    8.02
  -1   2  -4 1532.81   20.56
   1  -2   4 1366.40   18.46
  -1   2   4 1457.13   20.21
   1  -2  -4 1524.88   20.93
   1   2   4 1571.10   21.73
   1  -2   4 1487.82   20.61
   1   2  -4 1504.49   21.42
  -1  -2  -4 1387.42   19.00
   1  -2  -4 1574.78   21.80
   1   2   4 1425.94   19.49
   1  -2   4 1386.35   19.19
   1   2   5    3.52    1.02
  -1   2  -5    4.27    0.71
   1  -2   5    3.56    1.09
  -1   2   5    3.61    1.47
   1  -2  -5    5.42    1.50
   1   2   5    3.75    1.49
  -1   2  -5    9.21    1.85
   1  -2   5    2.97    1.11
  -1  -2   5    4.22    2.11
  -1  -2  -5    2.70    0.90
   1   2   5    4.90    1.45
  -1   2   5    5.81    1.16
   1  -2   6  638.10    8.96
  -1   2   6  687.71   10.35
  -1  -2  -6  695.82   10.35
   1   2   6  715.98   10.52
   1   2   7    9.70    2.12
  -1   2  -7   14.47    2.13
  -1  -2   7   15.17    1.97
   1  -2   7   11.41    1.75
  -1  -2   7   13.53    1.96
  -1   2   7    9.72    2.11
   1   2   7   13.33    2.79
   1  -2  -7   10.62    1.85
  -1   2  -7   16.63    3.08
   1   2  -7   14.47    2.96
   1  -2   7    8.52    1.40
  -1  -2  -7    8.61    1.73
   1  -2  -7   10.75    2.08
   1   2   7   11.56    1.88
  -1   2   7   11.06    2.35
   1   2   8  375.70   11.00
  -1  -2   8  369.93   10.19
   1  -2   8  363.86   10.29
  -1  -2   8  378.18   10.47
  -1   2   8  416.14   12.19
   1  -2  -8  373.05   10.76
   1  -2   8  415.03   11.94
  -1   2  -8  420.75   12.35
  -1  -2  -8  423.11   12.34
   1  -2  -8  389.98   11.73
   1   2   8  331.10    9.74
   1   2   9  174.87   13.72
  -1  -2   9  168.47   11.86
   1  -2   9  192.01   13.53
  -1  -2   9  188.32   13.23
  -1   2   9  219.70   15.77
   1   2   9  191.73   13.81
   1  -2   9  217.88   15.40
   1  -2  -9  169.94   12.45
  -1   2  -9  188.89   13.61
   1   2  -9  215.63   18.59
  -1  -2  -9  214.17   15.36
   1  -2  -9  198.13   14.48
   1  -2  10  117.89   10.53
  -1  -2  10  116.88   10.38
  -1   2  10  128.12   11.64
   1   2  10  122.56   11.18
   1  -2  10  121.81   11.24
   1  -2 -10  100.06   10.19
  -1   2 -10  123.45   12.11
   1   2 -10  132.10   12.71
  -1  -2 -10  116.44   10.93
   1  -2 -10  117.32   10.91
  -1  -2  11    5.89    1.70
   1  -2  11    1.61    0.61
  -1  -2  11    6.52    2.11
  -1   2  11    0.13    1.89
   1   2  11    6.60    3.01
   1  -2  11    1.55    1.19
  -1   2 -11    5.90    1.98
   1   2 -11    2.93    1.95
  -1  -2 -11    4.24    1.56
   1  -2 -11    6.38    2.49
  -1  -2  12   14.98    2.97
   1  -2  12   16.14    2.92
  -1  -2  12   16.58    3.51
  -1   2  12   15.77    3.56
   1   2  12   12.60    3.37
   1  -2  12   14.32    3.40
  -1   2 -12   19.07    4.53
   1   2 -12   18.87    4.21
  -1  -2 -12   18.86    4.19
   1  -2 -12   19.10    4.21
  -1  -2  13   36.45    5.41
   1  -2  13   26.39    6.66
  -1  -2  13   39.84    6.65
  -1   2  13   44.84    6.86
   1   2  13   44.41    6.70
   1  -2  13   39.82    6.41
  -1   2 -13   43.07    7.58
   1   2 -13   48.43    9.11
  -1  -2 -13   40.78    7.90
   1  -2 -13   45.45    8.54
  -1  -2  14  108.65    8.72
  -1   2  14  121.93    7.59
   1  -2  14  121.93    7.40
   1   2  14  101.70    9.02
  -1   2 -14  126.93   14.85
   1   2 -14  128.96   14.80
  -1  -2 -14  137.21   13.81
   1  -2 -14  120.14   13.28
  -1   2  15   21.50    5.38
   1  -2  15   20.38    4.41
   1   2  15   26.05    6.24
  -1   2 -15   29.89    6.07
   1   2 -15   31.18    6.35
  -1  -2 -15   30.48    6.89
   1  -2 -15   33.96    7.31
  -1   2  16   24.53    6.02
   1   2  16   18.72    5.29
  -1   2 -16   28.26    7.99
   1   2 -16   29.19    6.83
  -1  -2 -16   32.19    6.10
   1  -2 -16   21.40    6.03
  -1   2  17   13.94    4.52
   1   2  17   14.09    4.24
  -1   2 -17   10.80    3.86
   1   2 -17   20.22    4.48
  -1  -2 -17    9.13    2.75
   1  -2 -17   14.23    4.68
  -1   2 -18   10.45    3.95
   1   2 -18   11.10    3.93
  -1  -2 -18    6.20    2.67
   1  -2 -18    4.35    2.72
  -1   2 -19   12.54    3.56
   1   2 -19   12.81    5.00
  -1  -2 -19   12.80    4.04
   1  -2 -19   14.14    4.83
  -1   2 -20   13.68    4.55
   1   2 -20   15.55    4.88
  -1  -2 -20    9.60    3.25
   1  -2 -20   21.86    5.91
   1   2 -21    4.27    1.80
  -1  -2 -21    4.89    1.83
   1  -2 -21    1.61    2.81
   1  -2  21   13.28    5.38
   1  -3   0  154.92    5.73
   1   3   0  151.35    5.61
  -1  -3   0  158.41    5.80
   1  -3   0  160.21    6.28
  -1   3   0  160.55    5.90
   1   3   0  157.46    5.68
   1  -3   1  189.32    6.82
   1  -3  -1  173.38    6.43
   1   3  -1  192.02    6.91
   1   3   1  176.12    6.62
  -1  -3  -1  188.40    6.87
  -1  -3   1  161.49    5.81
  -1   3   1  190.98    6.92
  -1  -3  -1  193.75    6.86
  -1   3  -1  179.71    6.60
  -1  -3   1  183.31    6.69
   1   3  -1  201.42    7.25
  -1   3   2  677.58   10.20
   1   3  -2  662.33    9.29
  -1  -3  -2  599.21    8.62
  -1   3   2  600.76    8.76
  -1   3  -2  610.29    9.02
   1   3  -3   34.69    3.64
  -1   3  -3   42.34    4.22
   1  -3   3   39.58    4.38
  -1   3   3   40.88    6.85
   1   3  -3   37.71    4.12
   1   3   3   53.84    6.35
  -1  -3  -3   36.82    6.39
   1   3  -3   42.93    6.17
  -1  -3  -3   36.34    3.73
   1  -3  -3   53.93    5.67
  -1   3   3   34.77    3.86
   1   3   3   47.25    4.74
   1  -3   3   38.30    4.26
   1   3  -4  404.12   13.81
  -1   3  -4  418.78   44.93
   1  -3   4  398.73   13.79
   1   3  -4  358.90   12.31
  -1   3   4  438.06    7.45
   1   3   4  418.06   44.98
  -1  -3  -4  402.59   14.22
   1  -3   4  435.40    6.76
   1   3  -4  443.05    7.02
  -1  -3  -4  412.85   44.35
   1   3   4  405.78   43.56
   1  -3   4  420.63   45.25
  -1   3  -5   25.07    2.81
   1  -3   5   27.14    3.11
  -1   3   5   25.59    4.79
   1  -3  -5   20.45    3.95
   1   3   5   22.86    4.80
  -1  -3  -5   26.75    4.23
   1   3  -5   36.93    6.07
   1  -3   5   29.89    4.15
  -1  -3   5   25.94    3.56
  -1  -3  -5   23.61    2.63
   1  -3  -5   31.91    5.42
   1   3   5   20.11    2.88
  -1   3   5   24.57    2.90
   1  -3   5   25.85    3.54
  -1   3  -6  167.32    9.23
   1  -3   6  165.14    9.09
  -1   3   6  186.26   10.68
   1  -3  -6  165.60    9.35
  -1  -3  -6  176.96   10.01
   1   3  -6  184.24   11.36
   1  -3   6  179.59   10.10
  -1  -3  -6  182.84   10.24
   1  -3  -6  165.62    9.45
   1   3   6  149.21    8.66
  -1   3   6  150.37    8.53
   1  -3   6  176.08   10.08
  -1   3  -7  112.17    6.21
   1  -3   7  138.75    7.86
  -1   3   7  145.47    8.76
   1   3   7  106.40    6.54
   1  -3  -7  102.26    6.43
  -1   3  -7  109.12    8.00
  -1  -3  -7  149.49    8.60
   1  -3  -7  112.82    6.99
   1   3   7   93.29   10.36
  -1   3   7  130.48    7.63
  -1   3  -8  609.04   17.84
   1  -3   8  605.72   17.87
  -1   3   8  682.99   21.84
   1   3   8  634.02   19.33
   1  -3  -8  540.12   16.31
   1   3  -8  711.48   21.45
  -1  -3  -8  709.52   22.14
   1  -3  -8  592.06   18.17
  -1   3   9  366.40   11.67
   1   3   9  439.70   13.77
   1  -3   9  366.99   10.97
  -1   3  -9  427.65   13.34
  -1  -3  -9  350.20   11.48
   1  -3  -9  449.12   14.22
   1  -3  10  182.51    7.59
  -1   3  10  206.30    9.07
   1   3  10  168.98    7.75
   1  -3  10  205.76    8.40
  -1   3 -10  190.13    8.45
  -1  -3 -10  206.25    9.82
   1  -3 -10  179.01    8.55
   1  -3  11  172.96   13.07
  -1   3  11  184.77   14.76
   1   3  11  231.09   12.51
   1  -3  11  193.55   32.62
  -1   3 -11  227.45   12.72
   1   3 -11  221.29   18.89
  -1  -3 -11  206.39   13.95
   1  -3 -11  234.85   12.91
   1  -3  12  106.15   11.37
  -1   3  12  123.09   15.04
   1   3  12   98.36   10.78
   1  -3  12  118.00   12.65
  -1   3 -12  116.44   15.99
   1   3 -12  141.34   12.97
  -1  -3 -12  133.22    8.29
   1  -3 -12  103.85   11.54
   1  -3  13  216.44   11.58
  -1   3  13  271.31   14.99
   1  -3  13  247.44   12.41
   1   3  13  355.45   18.34
  -1   3 -13  348.89   18.12
   1   3 -13  267.04   14.64
  -1  -3 -13  271.77   20.05
   1  -3 -13  359.26   19.44
  -1   3  14    4.81    1.98
   1  -3  14    1.76    0.87
   1   3  14   -0.01    1.07
  -1   3 -14    4.49    2.19
   1   3 -14    3.24    2.10
  -1  -3 -14    3.46    1.89
   1  -3 -14    5.11    2.46
  -1   3  15  108.11   11.58
   1   3  15  126.74   14.60
  -1   3 -15  148.04   17.32
   1   3 -15  112.82   15.46
  -1  -3 -15  112.35   13.72
   1  -3 -15  160.85   18.01
  -1   3  16   36.41    7.68
   1   3  16   47.79   10.37
  -1   3 -16   64.39   12.47
   1   3 -16   53.16    9.43
  -1  -3 -16   43.98    8.93
   1  -3 -16   47.94    8.60
  -1   3  17   46.29    7.25
   1   3  17   64.15    8.79
  -1   3 -17   73.06   11.52
   1   3 -17   60.37    8.52
   1  -3 -17   62.33   15.42
   1   3  18    3.39    1.40
  -1   3 -18    4.33    2.36
   1   3 -18    3.21    2.00
  -1  -3 -18    8.27    3.34
   1  -3 -18    7.77    3.77
   1   3 -19   21.14    5.78
  -1  -3 -19   22.16    7.72
   1  -3 -19   18.35    7.06
   1  -3  19   28.26    4.13
   1   3 -20    7.70    2.70
  -1  -3 -20    8.23    3.14
   1  -3 -20   12.59    4.72
   1  -3  20    5.94    3.36
  -1   4   0   29.63    5.01
   1  -4   0   20.04    3.56
  -1  -4   0   19.68    3.59
  -1   4   0   24.42    2.87
  -1  -4   0   23.75    2.85
   1   4   0   25.09    2.87
  -1   4  -1  155.61    6.02
  -1   4   1  166.92    6.59
   1  -4  -1  147.38    5.75
   1   4  -1  169.62    6.39
  -1  -4   1  148.89    5.56
  -1  -4  -1  161.90    6.09
   1  -4  -1  154.19    5.88
  -1  -4  -1  165.45    6.09
  -1   4   1  167.70    6.29
   1  -4   1  172.34    6.62
   1   4   1  157.23    5.81
  -1   4  -1  169.87    6.47
  -1   4  -2  175.79    6.51
   1  -4   2  185.19    6.77
  -1   4   2  205.61    7.99
   1  -4  -2  172.14    6.55
   1   4  -2  186.45    6.80
  -1  -4  -2  176.73    6.67
  -1  -4   2  164.74    6.00
  -1  -4  -2  182.96    6.65
  -1   4   2  173.58    6.43
   1   4   2  172.99    6.28
  -1   4  -2  172.71    6.64
  -1   4  -3   56.03    5.60
   1  -4   3   56.18    5.59
  -1   4   3   79.86   10.70
   1   4  -3   61.74    6.07
   1  -4  -3   47.83    8.47
   1   4   3   50.68    5.63
  -1  -4   3   48.10    5.43
  -1  -4   3   56.50    6.77
  -1  -4  -3   62.10    6.21
   1   4   3   52.00    5.29
   1  -4   3   61.09    6.37
  -1   4  -3   46.94    4.96
  -1  -4   3   50.56    5.42
  -1   4  -4  119.98    4.48
   1   4  -4  115.65    4.24
  -1   4   4  114.38    6.53
   1  -4  -4  114.41    4.73
   1   4   4  129.45    5.50
  -1  -4  -4  110.65    4.30
   1  -4  -4  130.80    5.45
  -1   4   4  111.71    4.63
   1   4   4  114.32    4.63
   1  -4   4  112.28    4.91
   1   4  -5  593.43    8.03
  -1   4  -5  621.40    8.79
   1   4  -5  590.51    8.04
   1  -4   5  586.90    8.53
  -1   4   5  607.43    9.92
   1  -4  -5  621.61    9.80
   1   4   5  643.28   10.37
   1   4  -5  613.45    9.50
   1  -4   5  611.99    9.25
  -1  -4   5  629.00    9.50
  -1  -4  -5  602.40    9.56
   1  -4  -5  624.84    9.73
   1   4   5  583.12    8.63
   1  -4   5  602.23    9.46
  -1   4  -6  180.45    9.86
   1  -4   6  214.45   11.90
   1   4   6  182.48   10.50
   1  -4  -6  179.31   10.15
   1   4  -6  228.19   12.78
  -1  -4  -6  225.79   12.59
   1  -4  -6  198.03   11.30
   1   4   6  174.48    9.75
  -1   4   6  197.12   11.16
   1  -4   6  221.52   12.62
  -1   4  -7  338.70    9.43
   1  -4   7  438.67   12.22
   1   4   7  356.65   10.92
   1   4  -7  356.53   10.65
   1  -4  -7  341.53   10.32
   1  -4   7  394.01   11.76
  -1   4  -8  153.88   10.84
   1  -4   8  171.04   12.34
  -1   4   8  177.04   13.08
   1   4   8  153.96   11.48
   1   4  -8  163.99   13.30
  -1  -4  -8  169.89   12.52
   1  -4  -8  161.33   12.02
   1   4   8  127.33    9.22
   1  -4   8  171.51   12.75
   1  -4   9  495.13   14.55
  -1   4   9  489.66   15.44
   1   4   9  502.97   15.83
   1   4  -9  488.84   16.45
  -1  -4  -9  514.52   16.71
   1  -4  -9  491.30   15.35
   1  -4   9  482.92   15.50
   1  -4  10   41.75    5.20
  -1   4  10   32.48    5.50
   1   4  10   46.12    6.13
   1  -4  10   38.19    5.14
   1   4 -10   49.25    9.90
  -1  -4 -10   57.58    8.60
   1  -4 -10   41.24    8.64
   1  -4  10   31.70    5.32
   1  -4  11  274.35   13.74
  -1   4  11  268.46   14.23
   1   4  11  282.44   15.04
   1  -4  11  270.24   13.53
  -1  -4 -11  290.61   15.19
   1  -4 -11  277.29   14.71
   1  -4  12  169.86    8.03
  -1   4  12  164.41   12.04
   1  -4  12  172.79    8.27
   1   4  12  143.67   12.07
   1   4 -12  182.59   11.61
  -1  -4 -12  186.53   11.26
   1  -4 -12  134.13    7.78
   1  -4  13   27.29    5.16
  -1   4  13   36.62    7.63
   1  -4  13   26.08    5.04
   1   4  13   35.32    8.75
   1   4 -13   43.25    9.02
  -1  -4 -13   42.90    9.27
   1  -4 -13   40.68    8.87
  -1   4  14  120.65    9.39
   1   4  14  122.28    7.49
   1   4 -14  129.44   11.89
  -1  -4 -14  134.56   13.52
   1  -4 -14  122.91    7.96
  -1   4  15   34.19    8.53
   1   4  15   35.12    6.46
   1   4 -15   56.79    8.69
  -1  -4 -15   45.37    9.46
   1  -4 -15   34.05    6.73
   1  -4  15   45.92    5.52
  -1   4  16   43.83    9.60
   1   4  16   42.88    9.81
   1   4 -16   59.67    8.77
  -1  -4 -16   45.81   10.49
   1  -4 -16   31.05    7.59
   1  -4  16   52.94    9.29
  -1   4  17   64.09   11.20
   1   4  17   53.72    8.83
   1   4 -17   74.63   11.78
  -1  -4 -17   60.81   11.96
   1  -4 -17   49.11   11.42
   1  -4  17   88.04    8.57
  -1   4  18   35.58    9.11
   1   4  18   28.63    6.88
   1   4 -18   51.83   11.19
  -1  -4 -18   32.41   10.96
   1  -4 -18   22.61    5.05
   1  -4  18   63.41   13.75
   1   4 -19   28.72    5.20
  -1  -4 -19   11.25    3.82
   1  -4  19   27.41    4.87
   1   4 -20    5.64    2.42
  -1  -4 -20    5.94    1.78
   1  -4 -20    7.41    3.28
   1  -4  20   13.28    5.36
   1  -5   0 1193.69   16.88
   1   5   0 1186.52   16.93
   1  -5   0 1229.43   17.38
  -1  -5   0 1250.01   17.43
  -1   5   0 1195.04   16.82
   1   5   0 1225.09   17.06
  -1   5  -1   68.28    6.93
   1  -5   1   95.81    5.85
   1  -5  -1   67.36    7.34
   1   5  -1  105.67    4.49
   1   5   1   78.59   10.02
  -1  -5  -1   89.18    8.84
  -1  -5   1   61.22    6.29
  -1  -5  -1  102.85    4.27
  -1   5   1   92.09    3.90
   1   5   1   64.55    8.28
  -1  -5   1   72.51    7.31
  -1   5  -1   61.00    6.17
   1   5  -1   97.67    4.02
  -1   5   2  485.77    8.15
   1   5   2  571.70    8.40
  -1   5  -3  961.57   13.63
   1  -5  -3  915.67   13.32
  -1   5   3 1018.13   14.50
   1   5   3  912.78   12.92
  -1   5  -3  910.76   13.19
  -1   5  -4  643.63   17.89
   1  -5   4  517.56   14.47
   1   5  -4  494.49   13.74
  -1   5   4  538.63   15.61
   1   5   4  655.17   18.78
  -1  -5   4  606.74   16.72
  -1  -5  -4  520.83   14.69
   1  -5  -4  642.97   18.11
   1   5   4  579.37   16.20
  -1  -5   4  606.49   17.67
  -1   5  -5 1097.12   30.05
   1   5  -5 1290.19  156.95
   1  -5   5 1032.13   28.24
  -1   5   5 1292.00  157.36
   1   5   5 1190.93   33.18
  -1  -5  -5 1259.72  153.33
   1  -5  -5 1099.96   30.51
   1   5   5 1091.12   30.00
   1  -5   5 1287.98  156.82
   1   5  -6  314.34    8.66
  -1   5  -6  310.81    8.77
   1   5  -6  322.92    8.92
   1  -5   6  314.19    8.87
  -1   5   6  323.99   10.00
   1   5   6  347.46   10.90
  -1  -5  -6  328.75    9.71
   1  -5  -6  333.86   10.38
   1   5   6  299.13   36.53
   1  -5   6  319.70    9.95
  -1  -5   6  306.05   37.50
  -1   5  -7   58.45    7.25
   1  -5   7   32.38    4.47
  -1   5   7   31.82    7.03
   1   5  -7   52.23    9.51
  -1  -5  -7   35.77    4.78
   1  -5  -7   62.33    8.16
   1   5   7   62.01    7.85
   1  -5   7   34.19    5.25
  -1   5  -8   99.01    7.05
   1  -5   8  104.29    7.83
  -1   5   8  115.67   11.63
   1   5   8  112.55   11.45
   1   5  -8  103.05    8.23
  -1  -5  -8  105.40    7.94
   1  -5  -8   98.88    8.21
   1   5   8   87.94    6.55
   1  -5   8  101.05    8.30
  -1   5  -9  251.53   10.10
  -1   5   9  305.87   13.34
   1   5   9  268.79   11.95
   1   5  -9  289.55   12.35
  -1  -5  -9  300.48   12.63
   1  -5  -9  259.06   11.21
   1  -5   9  279.00   12.51
   1  -5  10  147.70   11.34
  -1   5  10  156.99   14.94
   1   5  10  163.80   17.56
   1  -5  10  148.33   11.27
   1   5 -10  169.96   13.46
  -1  -5 -10  145.13   12.63
   1  -5 -10  158.74   12.60
   1  -5  10  159.39   12.88
  -1   5  11  137.36   13.72
   1   5  11   99.56   16.13
   1   5 -11  132.82    9.01
  -1  -5 -11  166.91   11.11
   1  -5 -11  103.50   11.36
   1  -5  11  153.69   12.16
  -1   5  12   55.49    9.80
   1   5  12   58.04   10.69
  -1  -5 -12   63.96   10.57
   1  -5 -12   49.24   10.70
   1  -5  12   53.21    8.78
  -1   5  13   68.59    8.27
   1   5  13   45.22   12.79
   1   5 -13   82.03   11.88
  -1  -5 -13   66.43   12.24
   1  -5 -13   39.86    9.53
   1  -5  13   47.57   12.68
  -1   5  14   35.44    7.05
   1   5  14   45.86    7.04
   1   5 -14   48.58    8.43
  -1  -5 -14   47.27    8.94
   1  -5 -14   48.74    9.65
   1  -5  14   45.81    6.63
  -1   5  15    3.94    1.44
   1   5  15    3.38    1.21
   1   5 -15    6.62    1.95
  -1  -5 -15    5.09    1.36
   1  -5 -15    4.48    2.32
   1  -5  15   11.70    4.76
  -1   5  16    5.15    2.05
   1   5  16    5.53    2.52
   1   5 -16   12.79    3.75
  -1  -5 -16    6.13    2.09
   1  -5 -16    6.79    2.26
   1  -5  16    5.41    3.51
   1   5  17    8.87    3.50
   1   5 -17   15.81    5.03
  -1  -5 -17    6.82    2.28
   1  -5 -17    5.08    2.05
   1  -5  17    9.04    4.82
  -1   5  18   17.89    5.01
   1   5  18   14.69    4.81
  -1  -5 -18    6.83    2.52
   1  -5 -18   16.55    4.45
   1  -5  18   12.92    4.33
   1   5  19   17.18    4.85
   1  -5 -19   10.27    3.72
   1  -5  19   26.76    6.03
  -1  -5  19   17.48    6.26
  -1  -5 -20    3.27    2.46
   1  -5 -20    4.62    2.23
   1  -5  20    5.63    3.44
  -1  -5  20   11.19    6.00
  -1   6   0   41.37    7.27
   1  -6   0   36.70    5.70
   1   6   0   46.73    6.63
  -1  -6   0   38.50    5.30
  -1  -6   0   37.49    4.27
   1   6   0   43.54    4.61
  -1   6  -1  156.74    6.94
  -1   6   1  156.01    6.48
   1  -6   1  161.13    6.21
   1   6  -1  167.59    6.56
   1  -6  -1  154.70    6.05
  -1  -6   1  169.72    6.45
   1  -6  -1  165.96    6.73
  -1  -6  -1  168.38    6.52
  -1   6   1  162.36    6.20
   1  -6   1  159.09    7.73
  -1  -6   1  172.83    6.80
   1   6   1  160.21    6.32
  -1   6  -1  156.69    6.01
   1   6  -1  173.90    6.60
  -1   6  -2  247.10   14.08
   1  -6   2  195.09   11.10
   1   6  -2  228.76   12.76
   1  -6  -2  225.09   12.66
  -1  -6   2  244.10   13.49
  -1  -6  -2  219.75   12.36
   1  -6  -2  248.01   14.02
  -1  -6  -2  216.17   12.00
  -1   6   2  202.87   11.36
   1   6   2  241.46   13.32
  -1  -6   2  245.59   13.72
  -1   6  -2  249.08   13.86
   1   6  -2  213.14   11.93
  -1   6  -3  385.02   11.13
   1   6  -3  385.61   11.07
   1  -6   3  385.51   10.99
   1   6   3  402.31   12.10
  -1  -6   3  392.99   11.16
  -1  -6   3  378.37   10.95
   1  -6  -3  372.28   10.91
  -1  -6  -3  386.15   11.02
  -1   6   3  367.70   10.64
   1   6   3  384.62   11.10
  -1  -6   3  389.76   11.53
  -1   6  -4  203.44   11.34
   1   6  -4  194.92   10.81
  -1   6   4  205.86   12.03
   1  -6   4  190.64   10.62
   1   6   4  172.33   10.18
  -1  -6   4  203.93   11.25
  -1  -6  -4  201.76   11.28
   1  -6  -4  193.21   11.03
  -1   6   4  191.17   10.87
   1   6   4  196.03   10.97
   1  -6   4  192.98   11.12
  -1   6  -5  290.58   15.96
   1   6  -5  288.62   15.78
  -1   6   5  271.46   15.47
   1  -6   5  282.39   15.49
   1   6   5  292.13   16.55
  -1  -6   5  286.94   15.65
  -1  -6  -5  304.21   37.18
   1  -6  -5  300.79   36.85
   1   6   5  287.63   15.88
  -1  -6   5  283.28   16.53
  -1   6  -6   34.50    4.98
   1   6  -6   25.35    3.65
   1  -6   6   27.61    4.33
   1   6   6   39.61    7.43
  -1  -6  -6   24.78    3.61
   1  -6  -6   37.44    5.29
   1   6   6   34.92    4.65
   1  -6   6   29.21    5.50
   1   6  -7  114.04    8.18
  -1   6  -7  117.29    8.51
   1   6  -7  114.09    8.04
  -1   6   7  109.49   13.30
   1  -6   7  110.92    9.19
   1   6   7  121.12    9.59
  -1  -6  -7  117.15    8.75
   1  -6  -7  123.24    9.24
   1   6   7  119.75    8.80
   1  -6   7  124.43    9.66
  -1  -6   7  122.53    9.59
  -1   6  -8   44.75    5.17
  -1   6   8   76.88   12.60
   1  -6   8   53.40    6.76
   1   6   8   50.12    9.01
  -1  -6  -8   57.13    6.92
   1  -6  -8   45.61    6.08
   1  -6   8   57.91    6.02
  -1  -6   8   47.11    6.77
  -1   6  -9  161.60   12.21
  -1   6   9  204.86   11.57
   1  -6   9  179.53   14.06
   1   6   9  163.81   14.84
  -1  -6  -9  199.75   10.68
   1  -6  -9  157.41   12.45
   1  -6   9  177.05   13.96
  -1  -6   9  182.37   17.65
  -1   6 -10  160.29   12.01
  -1   6  10  204.05   14.43
   1   6  10  158.22   15.39
   1  -6  10  186.94   14.10
  -1  -6 -10  198.21   10.71
   1  -6 -10  153.25   12.34
   1  -6  10  179.80   14.50
  -1  -6  10  158.09   12.74
  -1   6  11  134.74    7.85
   1   6  11  130.71   14.08
  -1  -6 -11  135.29    7.28
   1  -6 -11  115.71   12.67
   1  -6  11  128.92    9.12
  -1  -6  11  114.20   13.01
  -1   6  12  178.22   18.28
   1   6  12  157.15   12.54
  -1  -6 -12  172.78   11.01
   1  -6 -12  156.01    8.95
   1  -6  12  175.23   10.89
  -1  -6  12  161.45   10.32
  -1   6  13   20.72    5.01
   1   6  13    4.53    2.50
  -1  -6 -13   21.21    5.97
   1  -6 -13   12.94    3.40
   1  -6  13   12.25    4.42
  -1  -6  13   14.56    4.43
  -1   6  14  124.50    8.81
   1   6  14  120.78   17.94
  -1  -6 -14  123.40    9.37
   1  -6 -14  118.13   12.52
   1  -6  14  132.57    9.97
  -1  -6  14  136.33   10.65
  -1   6  15    1.97    2.17
   1   6  15    1.71    1.52
  -1  -6 -15    1.43    0.99
   1  -6 -15    2.08    2.60
   1  -6  15    5.59    3.50
  -1  -6  15   13.75    5.71
  -1   6  16   52.65    7.98
   1   6  16   74.50   14.14
  -1  -6 -16   58.31    9.67
   1  -6 -16   83.98   12.41
   1  -6  16   74.28    8.22
  -1  -6  16   96.85    9.07
  -1   6  17    7.98    3.23
   1   6  17   11.79    3.86
  -1  -6 -17   10.73    3.44
   1  -6 -17    9.53    3.65
   1  -6  17    9.10    5.14
  -1  -6  17   12.41    4.42
  -1   6  18   41.38    8.02
   1   6  18   35.82    8.41
  -1  -6 -18   24.61    8.84
   1  -6 -18   20.47   10.18
   1  -6  18   37.48    6.92
  -1  -6  18   59.11   12.20
  -1   6  19    3.58    1.33
   1   6  19    4.05    2.38
  -1  -6 -19    1.29    0.94
   1  -6 -19    5.10    1.85
   1  -6  19   16.33    5.22
  -1  -6  19   12.40    4.17
  -1  -6 -20    5.09    2.02
   1  -6 -20    5.87    2.42
   1  -6  20    8.17    3.81
  -1  -6  20    7.13    3.74
  -1   7   0  913.62   25.63
   1   7   0  925.94   25.97
  -1  -7   0  911.96   25.46
   1  -7   0  933.33   26.10
  -1  -7   0  949.10   26.43
   1   7   0  940.59   26.07
  -1   7  -1   78.21    9.19
   1   7  -1   58.00    8.55
   1  -7   1   47.34    7.61
   1   7   1   85.54   11.81
  -1  -7   1   74.48    9.45
   1  -7  -1   76.54    8.72
  -1  -7  -1   48.05    5.67
  -1  -7   1   71.78    8.21
   1   7   1   68.51    7.64
   1   7  -1   44.65    5.19
  -1   7  -2  282.43   15.81
  -1   7   2  362.08   11.27
   1   7  -2  366.68   11.32
   1  -7   2  326.95    9.67
   1   7   2  288.36   16.30
  -1  -7   2  276.33   15.28
   1  -7  -2  282.71   16.45
  -1  -7  -2  369.57   10.81
   1  -7   2  374.77   11.34
   1   7   2  273.33   15.11
  -1  -7   2  294.50   16.52
  -1   7  -3  613.66   17.49
   1   7  -3  537.24   15.24
  -1  -7   3  593.08   16.63
   1  -7  -3  588.53   16.93
  -1  -7  -3  512.93   15.44
  -1  -7   3  592.57   17.04
  -1   7  -4  179.41   13.18
   1   7  -4  233.12   16.56
  -1   7   4  209.99   16.48
   1  -7   4  231.61   16.43
   1   7   4  200.71   15.36
  -1  -7   4  186.41   13.25
  -1  -7  -4  229.53   16.96
   1  -7  -4  196.25   15.55
   1   7   4  181.55   12.98
   1  -7   4  255.74    8.72
  -1  -7   4  175.27   12.82
  -1   7  -5  267.20    8.66
   1   7  -5  235.21   16.79
  -1   7   5  256.29    9.17
   1  -7   5  214.02   15.17
   1   7   5  271.21   11.92
  -1  -7   5  256.93    7.93
   1  -7  -5  263.39    8.94
  -1  -7  -5  235.05   16.74
   1   7   5  242.08   27.51
   1  -7   5  241.47   27.65
  -1  -7   5  258.92    8.76
  -1   7  -6  130.00    9.35
   1   7  -6   99.72    7.20
  -1   7   6  109.63   11.13
   1  -7   6  106.25    7.71
   1   7   6  138.91   13.67
  -1  -7   6  121.03    9.45
  -1  -7  -6  106.43    7.90
   1  -7  -6  122.48    9.16
   1   7   6  119.21    8.67
   1  -7   6  133.41   16.17
  -1  -7   6  126.54    9.68
   1   7  -7  379.98   15.12
  -1   7  -7  404.68   16.22
   1   7  -7  402.40   16.00
  -1   7   7  400.09   16.96
   1  -7   7  389.67   15.76
   1   7   7  442.49   18.78
  -1  -7  -7  393.62   16.13
   1  -7  -7  433.83   17.97
   1  -7   7  346.54   14.85
   1   7  -8   39.16    4.76
  -1   7  -8   33.65    4.18
   1   7  -8   53.23    6.14
  -1   7   8   53.47    9.52
   1   7   8   26.91    5.09
   1  -7   8   47.17    6.07
  -1  -7  -8   42.69    5.42
   1  -7  -8   48.46    6.51
   1  -7   8   49.15    6.86
  -1  -7   8   28.32    4.52
  -1   7  -9  103.80    7.88
  -1   7   9  102.56   14.37
   1   7   9  101.28    8.69
   1  -7   9   94.71    7.80
  -1  -7  -9  101.25    8.35
   1  -7  -9  106.13    8.93
   1  -7   9  114.77    9.67
  -1  -7   9  110.80    9.83
  -1   7 -10    2.86    0.56
  -1   7  10    5.54    2.57
   1   7  10   -0.73    2.32
   1  -7  10    1.58    0.59
  -1  -7 -10    4.51    2.27
   1  -7 -10    2.53    2.21
   1  -7  10    6.67    3.38
  -1  -7  10    6.58    4.32
  -1   7  11   12.31    4.67
   1   7  11   19.80    5.95
  -1  -7 -11   13.66    4.10
   1  -7 -11   13.39    4.15
   1  -7  11   12.01    5.09
  -1  -7  11   16.99    5.62
  -1   7  12    3.56    2.60
   1   7  12   -1.42    2.39
  -1  -7 -12    4.36    2.02
   1  -7 -12    5.29    3.00
   1  -7  12    3.09    3.30
  -1  -7  12    4.11    3.83
  -1   7  13    9.84    3.43
   1   7  13   34.61    7.82
  -1  -7 -13   22.53    5.09
   1  -7 -13   21.45    6.27
   1  -7  13   21.06    5.16
  -1  -7  13   27.52    6.81
  -1   7  14    3.68    2.28
   1   7  14    4.66    1.60
  -1  -7 -14    4.38    1.35
   1  -7 -14    2.09    1.90
   1  -7  14    9.21    4.88
  -1  -7  14   25.42   11.96
  -1   7  15    9.34    2.38
   1   7  15    8.84    2.87
  -1  -7 -15   12.26    3.14
   1  -7 -15    6.49    2.17
   1  -7  15   16.77    5.06
  -1  -7  15   22.84    6.86
  -1   7  16    8.28    2.87
   1   7  16    5.63    1.95
  -1  -7 -16    6.25    1.66
   1  -7 -16    7.05    1.79
   1  -7  16    9.67    4.78
  -1  -7  16    2.04    2.92
  -1   7  17   14.45    4.42
   1   7  17    3.43    2.19
  -1  -7 -17    7.30    2.14
   1  -7 -17    4.99    1.66
   1  -7  17    8.82    3.92
  -1  -7  17   15.01    5.88
  -1   7  18    5.17    3.35
   1   7  18    6.28    2.21
  -1  -7 -18    6.00    1.62
   1  -7 -18   10.32    3.27
   1  -7  18    8.60    2.98
  -1  -7  18   11.62    4.42
  -1   7  19    7.60    3.54
   1   7  19    2.02    1.93
  -1  -7 -19    2.83    1.38
   1  -7 -19    3.74    1.48
   1  -7  19   12.58    5.55
  -1  -7  19   13.67    5.98
  -1   8   0    5.12    1.32
   1   8   0    6.59    2.31
   1  -8   0    7.95    2.41
  -1  -8   0    4.22    2.51
  -1   8  -1  349.06   11.28
  -1   8   1  325.18   10.71
   1   8  -1  324.02   10.99
   1   8   1  345.49   11.37
   1  -8  -1  373.47   12.19
  -1  -8  -1  327.13   10.41
   1  -8   1  295.25    9.77
  -1  -8   1  387.05   12.32
  -1   8  -2    7.36    1.79
  -1   8   2   13.09    2.86
   1   8  -2   14.88    3.11
   1   8   2    6.19    1.44
  -1  -8   2    7.45    1.48
   1  -8  -2   17.25    4.49
  -1  -8  -2   15.62    3.13
   1  -8   2   11.84    2.79
  -1  -8   2   14.92    3.42
   1   8   2    9.97    2.71
  -1   8  -3  153.18   11.23
  -1   8   3  191.88   14.19
   1   8  -3  195.95   14.11
   1  -8   3  185.35   14.11
  -1  -8   3  141.24   11.14
   1  -8  -3  153.11   11.51
  -1  -8  -3  191.47   13.75
   1   8   3  150.42   10.88
   1  -8   3  187.94   14.00
  -1  -8   3  152.41   11.32
  -1   8  -4  190.75   13.72
   1   8  -4  183.04   13.14
  -1   8   4  180.00   13.63
   1   8   4  184.06   14.84
   1  -8   4  168.47   12.43
  -1  -8   4  181.82   13.87
   1  -8  -4  189.00   13.85
  -1  -8  -4  183.24   13.30
   1   8   4  173.42   12.44
  -1  -8   4  190.85   13.93
  -1   8  -5  176.69    7.62
   1   8  -5  176.89    7.56
  -1   8   5  179.50    8.63
   1   8   5  190.12    9.21
   1  -8   5  189.96    8.15
  -1  -8   5  172.58    7.27
   1  -8  -5  176.43    8.04
  -1  -8  -5  188.02    8.15
  -1  -8   5  193.70    9.14
  -1   8  -6  199.18    8.41
   1   8  -6  235.11    9.72
  -1   8   6  238.01   10.88
   1   8   6  202.55    9.45
   1  -8   6  222.09    9.22
  -1  -8   6  204.13    8.42
  -1  -8  -6  246.04   10.52
   1  -8  -6  208.70   12.82
   1  -8   6  247.84   14.69
  -1  -8   6  196.68    9.51
  -1   8  -7  114.39    8.85
   1   8  -7  111.25    8.53
  -1   8   7  104.79   12.79
   1   8   7  124.60   15.21
   1  -8   7  101.65   10.13
  -1  -8  -7  118.96    9.49
   1  -8  -7  123.88   10.18
   1  -8   7  118.76   10.26
  -1  -8   7  138.45   12.38
   1   8  -8    8.36    2.22
  -1   8  -8    4.93    1.56
   1   8  -8    4.37    1.29
  -1   8   8    9.68    3.98
   1   8   8    7.77    2.86
   1  -8   8    1.84    0.93
  -1  -8  -8    5.51    2.36
   1  -8  -8    4.96    2.59
   1  -8   8    8.23    3.65
  -1  -8   8    9.49    3.15
  -1   8  -9   51.74    6.08
  -1   8   9   70.19   10.32
   1   8   9   59.80    7.78
   1  -8   9   53.88    6.03
  -1  -8  -9   61.18    7.00
   1  -8  -9   66.44    8.06
   1  -8   9   68.39    8.72
  -1  -8   9   60.38    7.36
  -1   8 -10  335.80   16.63
  -1   8  10  354.30   19.94
   1   8  10  375.21   20.07
   1  -8  10  308.48   15.31
  -1  -8 -10  313.18   16.13
   1  -8 -10  359.80   18.63
   1  -8  10  332.85   18.30
  -1  -8  10  355.48   18.72
  -1   8  11  103.15    9.91
   1   8  11  116.10   10.85
  -1  -8 -11  112.93    9.69
   1  -8 -11  107.30    9.35
   1  -8  11  109.45   10.40
  -1  -8  11   96.72    8.83
  -1   8  12  233.40   14.64
   1   8  12  329.55   22.34
  -1  -8 -12  248.35   13.69
   1  -8 -12  302.21   16.38
   1  -8  12  244.90   16.10
  -1  -8  12  268.74   19.30
  -1   8  13    5.47    2.82
   1   8  13   12.34    4.78
  -1  -8 -13    8.18    2.64
   1  -8 -13    7.99    2.91
   1  -8  13    8.88    3.43
  -1  -8  13   16.65    5.65
  -1   8  14  193.59   20.26
   1   8  14  210.31   26.16
  -1  -8 -14  190.09   15.98
   1  -8 -14  241.10   18.37
   1  -8  14  201.79   16.19
  -1  -8  14  208.82   16.50
  -1   8  15    6.96    2.43
   1   8  15    8.62    3.01
  -1  -8 -15    1.27    1.11
   1  -8 -15   12.21    4.48
   1  -8  15    9.25    3.91
  -1  -8  15   11.78    5.07
  -1   8  16   64.34   13.69
   1   8  16   93.82   15.96
  -1  -8 -16   43.41   11.33
   1  -8 -16   71.78   12.08
   1  -8  16   68.14    9.32
  -1  -8  16  103.40   13.29
  -1   8  17    4.27    2.45
   1   8  17   19.99    5.44
  -1  -8 -17    4.16    1.24
   1  -8 -17   15.49    4.40
   1  -8  17    8.03    3.64
  -1  -8  17   12.77    5.19
  -1   8  18   46.22    8.72
   1   8  18   56.49   10.23
  -1  -8 -18   16.61    8.19
   1  -8 -18   34.58    7.16
   1  -8  18   76.20   12.45
  -1  -8  18   77.12   12.61
  -1   8  19   10.79    3.81
   1   8  19    8.99    4.22
   1  -8 -19    6.55    2.95
   1  -8  19   10.49    4.18
  -1  -8  19    5.91    4.92
  -1   9   0  110.83    8.70
   1   9   0  126.24    9.80
   1  -9   0  134.54   13.64
  -1  -9   0  122.38    9.27
  -1   9  -1   45.67    8.98
  -1   9   1   45.31    7.93
   1   9  -1   50.55    8.83
   1   9   1   62.65    9.15
   1  -9  -1   55.01    7.39
  -1  -9  -1   43.25    6.01
   1  -9   1   41.60    5.88
  -1  -9   1   48.73    6.63
  -1   9  -2    9.37    2.60
  -1   9   2    5.83    2.73
   1   9  -2   12.81    2.68
   1   9   2   11.60    3.07
   1  -9  -2   10.97    2.66
  -1  -9  -2   12.09    2.94
   1  -9   2    3.72    1.59
  -1  -9   2    8.23    3.56
  -1   9  -3  291.68   12.37
   1   9  -3  229.36    9.85
  -1   9   3  236.50   11.03
   1   9   3  303.69   13.33
   1  -9  -3  321.97   13.88
  -1  -9  -3  234.15    9.98
   1  -9   3  235.99   10.62
  -1  -9   3  300.27   13.01
  -1   9  -4   37.32    6.73
   1   9  -4   62.49    6.66
  -1   9   4   58.38    9.32
  -1  -9   4   25.93    4.55
   1  -9  -4   37.65    4.99
  -1  -9  -4   60.07    6.91
   1  -9   4   54.56   14.53
  -1  -9   4   34.14    4.76
  -1   9  -5  635.20   25.54
   1   9  -5  547.68   22.08
  -1   9   5  535.74   22.36
   1   9   5  661.08   27.29
   1  -9   5  493.72   19.91
  -1  -9   5  605.92   24.23
  -1  -9  -5  544.71   22.09
   1  -9  -5  593.13   24.76
   1  -9   5  546.22   23.10
  -1  -9   5  639.11   26.16
  -1   9  -6   20.05    6.01
   1   9  -6   52.97    7.87
  -1   9   6   52.06    9.58
   1   9   6   17.11    5.47
   1  -9   6   39.58    6.44
  -1  -9   6   12.38    3.64
  -1  -9  -6   49.84    6.49
   1  -9  -6   17.23    5.54
  -1  -9   6   39.38    6.73
  -1   9  -7  164.99   12.67
   1   9  -7  171.68   13.07
  -1   9   7  194.84   35.30
   1   9   7  175.50   15.82
   1  -9   7  155.87   13.13
  -1  -9  -7  182.24   14.49
   1  -9  -7  170.51   13.42
   1  -9   7  169.53   13.65
  -1  -9   7  183.25   16.92
   1   9  -8  139.74    7.87
  -1   9  -8  179.40    8.62
   1   9  -8  173.77    8.23
  -1   9   8  173.64   13.46
   1   9   8  180.01   13.88
   1  -9   8  152.93    8.29
  -1  -9  -8  157.61   10.76
   1  -9  -8  177.91   10.34
   1  -9   8  180.52   18.50
  -1  -9   8  189.99   12.68
   1   9  -9  217.94   10.85
  -1   9  -9  235.71   12.01
   1   9  -9  238.65   11.89
  -1   9   9  214.13   15.36
   1   9   9  248.74   20.30
   1  -9   9  210.10   11.03
  -1  -9  -9  231.28   12.33
   1  -9  -9  244.48   13.05
   1  -9   9  230.82   12.86
  -1   9 -10   44.56    8.71
  -1   9  10   38.86    8.42
   1   9  10   66.74    8.73
  -1  -9 -10   40.88    7.91
   1  -9 -10   52.05    5.48
   1  -9  10   42.38    8.77
  -1   9  11   15.11    4.02
   1   9  11   24.60    6.16
  -1  -9 -11    9.83    3.18
   1  -9 -11   30.17    6.28
   1  -9  11   27.17    6.95
  -1  -9  11   17.66    4.53
  -1   9  12    4.70    2.46
   1   9  12    7.15    3.03
  -1  -9 -12    2.60    1.51
   1  -9 -12   15.46    4.81
   1  -9  12   13.49    5.90
  -1  -9  12   14.17    6.48
  -1   9  13    4.38    2.57
   1   9  13    3.56    2.04
  -1  -9 -13   -0.40    1.51
   1  -9 -13    0.32    1.94
   1  -9  13    9.84    3.21
  -1  -9  13    2.97    3.38
  -1   9  14    4.19    1.68
   1   9  14    4.75    2.55
  -1  -9 -14   -0.35    1.42
   1  -9 -14    1.74    1.80
   1  -9  14   13.41    6.66
  -1  -9  14   -0.13    2.90
  -1   9  15    7.67    3.26
   1   9  15   -2.13    2.28
  -1  -9 -15    3.54    1.85
   1  -9 -15    8.82    3.15
   1  -9  15    4.10    3.18
  -1  -9  15   -1.07    3.10
  -1   9  16   13.10    4.63
   1   9  16   13.85    4.23
  -1  -9 -16    7.43    2.01
   1  -9 -16   14.02    3.75
   1  -9  16   21.13    6.87
  -1  -9  16   14.19    4.79
  -1   9  17    6.92    2.14
   1   9  17    5.87    2.49
  -1  -9 -17    2.31    1.68
   1  -9 -17    7.69    2.45
   1  -9  17   14.74    6.65
  -1  -9  17   16.67    6.08
  -1   9  18   37.93    8.97
   1   9  18   32.93    9.61
   1  -9 -18   24.47    6.87
   1  -9  18   40.92    8.79
  -1  -9  18   37.16    8.13
  -1  10   0  114.07   12.49
   1  10   0  117.16   13.11
   1 -10   0  112.78   10.92
  -1 -10   0  114.88   10.73
  -1  10  -1  694.54   28.25
  -1  10   1  648.19   26.54
   1  10  -1  702.89   28.77
   1  10   1  681.43   27.92
   1 -10  -1  668.87   27.23
  -1 -10  -1  644.76   26.16
   1 -10   1  610.24   25.00
  -1 -10   1  680.59   27.61
  -1  10  -2  117.66   12.17
  -1  10   2  129.33   15.29
   1  10  -2  119.52   13.25
   1  10   2  104.10    9.02
   1 -10  -2  141.48   15.08
  -1 -10  -2  121.14    9.81
   1 -10   2  116.84    9.93
  -1 -10   2  114.83    9.50
  -1  10  -3  275.90   14.51
  -1  10   3  260.28   14.36
   1  10  -3  251.00   13.30
   1  10   3  299.96   16.35
   1 -10  -3  282.11   15.17
  -1 -10  -3  249.39   13.24
   1 -10   3  254.99   13.88
  -1 -10   3  299.60   15.93
  -1  10  -4   17.05    4.96
   1  10  -4   10.83    3.78
   1  10   4   15.10    4.75
   1 -10  -4   29.98    5.44
  -1 -10  -4    8.85    3.03
   1 -10   4    4.74    3.56
  -1 -10   4   26.02    5.54
  -1  10  -5  182.21   14.10
   1  10  -5  124.14   12.02
  -1  10   5  156.17   14.58
   1  10   5  188.36   15.23
   1 -10  -5  174.23   15.21
  -1 -10  -5  139.35   11.26
   1 -10   5  136.44   11.63
  -1 -10   5  183.56   14.64
  -1  10  -6   82.03   11.81
   1  10  -6   79.43   10.35
  -1  10   6   78.73   11.58
   1  10   6   96.29   13.56
  -1 -10   6   72.82    8.56
  -1 -10  -6   83.00    9.22
   1 -10  -6  108.52   15.82
   1 -10   6  101.00   11.97
  -1 -10   6   96.75   12.88
  -1  10  -7   60.59    9.79
   1  10  -7   63.38    9.29
  -1  10   7   56.64   11.18
   1  10   7   82.07   14.81
   1 -10   7   45.41    6.56
  -1 -10  -7   69.76   10.25
   1 -10  -7   75.09   13.39
  -1 -10   7   59.91    9.31
   1  10  -8   12.09    3.23
  -1  10  -8   24.95    5.83
   1  10  -8   20.26    5.20
  -1  10   8   14.91    5.05
   1  10   8   24.88    6.79
   1 -10   8   12.56    3.80
  -1 -10  -8   21.19    5.83
   1 -10  -8   23.71    6.01
   1 -10   8   16.62    4.71
  -1 -10   8   28.15    7.19
  -1  10  -9  165.66    9.39
   1  10  -9  156.83    8.80
  -1  10   9  168.91   19.76
   1  10   9  177.18   11.64
  -1 -10  -9  162.13    9.77
   1 -10  -9  145.90   12.50
   1 -10   9  158.61   10.23
  -1 -10   9  170.13   13.57
  -1  10 -10    5.19    1.58
  -1  10  10    5.42    2.88
   1  10  10    7.37    3.99
  -1 -10 -10    5.32    2.11
   1 -10 -10    9.38    3.34
   1 -10  10   -0.88    3.51
  -1 -10  10    9.38    3.88
  -1  10  11  111.74    8.59
   1  10  11  104.72   13.27
  -1 -10 -11  106.75    7.27
   1 -10 -11   92.74    6.90
   1 -10  11   99.84    8.43
  -1  10  12   10.45    3.51
   1  10  12   24.30    6.31
  -1 -10 -12   17.61    4.33
   1 -10 -12   12.19    3.85
   1 -10  12   15.46    4.43
  -1 -10  12   19.50    6.39
  -1  10  13   36.60    7.66
   1  10  13   38.52    8.39
  -1 -10 -13   35.40    6.20
   1 -10 -13   46.13    8.19
   1 -10  13   34.01    7.02
  -1 -10  13   46.32    8.39
  -1  10  14   20.42    5.59
   1  10  14   10.30    3.27
  -1 -10 -14    9.53    3.17
   1 -10 -14   12.93    4.35
   1 -10  14   20.69    6.89
  -1 -10  14   27.26    7.24
  -1  10  15    6.55    3.31
   1  10  15   14.29    4.32
  -1 -10 -15    9.58    2.73
   1 -10 -15    3.66    2.07
   1 -10  15   15.81    6.05
  -1 -10  15   12.20    4.43
  -1  10  16    9.16    3.83
   1  10  16    7.04    2.60
  -1 -10 -16   10.66    3.62
   1 -10 -16    8.81    2.79
   1 -10  16   10.85    4.14
  -1 -10  16   30.73    6.33
  -1  10  17    4.43    1.95
   1  10  17    5.07    2.94
   1 -10 -17    4.08    1.91
   1 -10  17   16.12    6.08
  -1 -10  17   10.45    4.28
  -1  10  18    9.92    3.42
   1  10  18    2.92    2.65
   1 -10 -18   10.84    3.57
   1 -10  18   16.60    5.88
  -1 -10  18   11.07    4.55
  -1  11   0    4.67    2.29
   1  11   0    7.60    3.31
   1 -11   0   16.45    5.10
  -1 -11   0   15.60    5.51
  -1  11  -1   14.51    4.88
  -1  11   1   18.52    5.52
   1  11  -1   15.08    4.62
   1  11   1   16.27    5.94
   1 -11  -1    9.59    4.54
  -1 -11  -1   11.85    3.72
   1 -11   1   11.72    3.55
  -1 -11   1   17.00    5.50
  -1  11  -2   44.41    7.73
  -1  11   2   52.54    8.61
   1  11  -2   43.51    7.49
   1  11   2   47.21    7.44
   1 -11  -2   48.67    8.41
  -1 -11  -2   47.44    6.11
   1 -11   2   45.77    6.10
  -1 -11   2   43.16    5.57
  -1  11  -3   75.59    9.91
  -1  11   3   88.50   14.37
   1  11  -3   95.13   11.09
   1  11   3   98.47   16.21
   1 -11  -3   99.08   13.00
  -1 -11  -3   83.80   10.30
   1 -11   3  104.45   16.39
  -1 -11   3   73.83    8.86
  -1  11  -4   19.41    4.01
   1  11  -4   28.25    6.10
  -1  11   4   32.84    8.57
   1  11   4   15.52    4.46
   1 -11  -4   19.80    4.45
  -1 -11  -4   26.44    6.02
   1 -11   4   28.15    6.15
  -1 -11   4   19.18    4.20
  -1  11  -5  113.00   18.19
   1  11  -5   97.99   13.90
  -1  11   5  120.86   17.47
  -1 -11  -5  106.11   15.17
   1 -11  -5   96.96   13.93
   1 -11   5  132.72   11.77
  -1 -11   5  114.89   18.14
  -1  11  -6  214.54   11.35
   1  11  -6  297.25   15.31
  -1  11   6  289.43   15.75
   1  11   6  255.74   14.38
   1 -11  -6  234.32   12.66
  -1 -11  -6  273.61   14.32
   1 -11   6  292.64   15.80
  -1 -11   6  252.82   13.98
  -1  11  -7   33.40    7.59
   1  11  -7   20.57    4.40
  -1  11   7   18.60    5.19
   1  11   7   22.48    5.56
  -1 -11  -7   19.37    4.79
   1 -11  -7   37.69    9.94
   1 -11   7   19.80    5.02
  -1 -11   7   31.83    6.86
  -1  11  -8  184.15   10.47
   1  11  -8  249.79   13.97
  -1  11   8  263.83   16.27
   1  11   8  210.37   22.95
  -1 -11  -8  244.36   14.06
   1 -11  -8  179.62   11.02
  -1 -11   8  164.87   10.52
  -1  11  -9   41.42    6.72
   1  11  -9   55.34    7.97
  -1  11   9   61.03    8.67
   1  11   9   52.21    8.87
  -1 -11  -9   61.22   11.97
   1 -11  -9   54.41    7.57
  -1 -11   9   42.53    6.34
  -1  11  10  155.21   13.87
   1  11  10  150.85   18.31
  -1 -11 -10  163.09   10.54
   1 -11 -10  149.55   10.16
   1 -11  10  163.87   11.30
  -1 -11  10  153.16   12.44
  -1  11  11   28.50    7.57
   1  11  11   29.41    5.73
  -1 -11 -11   36.84    5.15
   1 -11 -11   42.72    6.07
   1 -11  11   40.15    6.66
  -1 -11  11   46.67    7.37
  -1  11  12   42.32    9.43
   1  11  12   30.21    7.19
  -1 -11 -12   32.25    5.87
   1 -11 -12   15.55    4.40
   1 -11  12   38.33    8.10
  -1  11  13   -1.18    2.32
   1  11  13    1.33    1.74
  -1 -11 -13    3.63    1.57
   1 -11 -13    5.59    2.13
   1 -11  13    3.83    3.59
  -1 -11  13    8.29    5.09
  -1  11  14    7.69    3.42
   1  11  14   13.67    4.45
  -1 -11 -14    2.72    2.06
   1 -11 -14    6.69    3.19
   1 -11  14    2.16    3.65
  -1 -11  14    6.36    4.96
  -1  11  15    5.86    2.46
   1  11  15   -2.09    2.49
  -1 -11 -15    3.53    1.81
   1 -11 -15    7.88    2.54
   1 -11  15    0.85    3.42
  -1 -11  15    6.50    1.98
  -1  11  16   10.51    3.71
   1  11  16   10.13    3.97
   1 -11 -16   10.45    2.43
   1 -11  16   13.99    5.61
  -1 -11  16    8.46    5.03
  -1  11  17    4.37    2.60
   1  11  17    5.57    2.67
   1 -11 -17    8.07    2.99
   1 -11  17    4.49    3.52
  -1 -11  17    9.56    5.19
  -1  12   0   14.39    4.32
   1  12   0   15.48    4.82
   1 -12   0   12.89    5.14
  -1 -12   0   10.27    4.83
  -1  12  -1  492.70   25.36
  -1  12   1  516.86   26.54
   1  12  -1  495.28   25.45
   1  12   1  535.85   27.56
   1 -12  -1  507.96   25.99
  -1 -12  -1  483.29   24.66
   1 -12   1  491.19   25.24
  -1 -12   1  531.59   27.10
  -1  12  -2   81.49   13.12
  -1  12   2   68.62   11.89
   1  12  -2   72.57   12.27
   1  12   2   89.91   17.64
   1 -12  -2  100.62   15.03
  -1 -12  -2   65.74   10.03
   1 -12   2   62.08    9.81
  -1 -12   2   83.92   12.50
  -1  12  -3  508.49   25.92
  -1  12   3  555.33   28.75
   1  12  -3  525.35   26.73
   1  12   3  487.86   25.58
   1 -12  -3  522.82   26.67
  -1 -12  -3  574.37   29.02
   1 -12   3  575.66   29.66
  -1 -12   3  513.35   27.03
  -1  12  -4   54.37    9.85
   1  12  -4   30.98    9.35
  -1  12   4   47.67    8.52
   1  12   4   60.36   10.43
   1 -12  -4   59.49    9.36
  -1 -12  -4   48.74    9.09
   1 -12   4   54.37    8.70
  -1 -12   4   60.34    9.27
  -1  12  -5  131.01   10.99
   1  12  -5  149.90   11.86
   1  12   5  140.38   14.01
   1 -12  -5  126.75   11.06
  -1 -12  -5  150.54    9.05
   1 -12   5  144.11    9.73
  -1 -12   5  127.43    8.53
  -1  12  -6   -0.08    1.27
   1  12  -6    5.27    2.04
  -1  12   6    6.42    3.01
   1  12   6    7.87    3.23
   1 -12  -6    5.60    4.23
  -1 -12  -6    6.57    3.22
   1 -12   6    9.25    4.36
  -1 -12   6    8.47    4.84
  -1  12  -7   95.11   10.39
   1  12  -7  118.26    6.86
  -1  12   7   97.68   12.36
   1  12   7  116.27   11.64
  -1 -12  -7  100.36   10.87
   1 -12  -7  123.50    8.46
   1 -12   7  105.71    7.27
  -1 -12   7  131.77   11.96
  -1  12  -8   36.02    7.27
   1  12  -8   28.58    6.39
  -1  12   8   46.28    7.91
   1  12   8   30.70    6.52
  -1 -12  -8   31.48    7.74
   1 -12  -8   28.46    5.85
   1 -12   8   45.50    6.50
  -1 -12   8   36.67    8.25
  -1  12  -9   39.36    6.34
  -1  12   9   32.18    5.75
   1  12   9   37.70    7.46
  -1 -12  -9   39.03    7.20
   1 -12  -9   38.78    5.48
   1 -12   9   33.59    5.47
  -1 -12   9   34.63    5.93
  -1  12  10   41.73    8.86
   1  12  10   33.16    7.20
  -1 -12 -10   43.08    7.38
   1 -12 -10   32.82    7.52
  -1 -12  10   33.23    6.63
  -1  12  11    7.70    3.96
   1  12  11   -2.32    2.45
  -1 -12 -11   -0.16    1.48
   1 -12 -11    3.98    2.99
  -1 -12  11    0.68    3.41
  -1  12  12   27.02    7.45
   1  12  12   24.32    7.03
  -1 -12 -12   15.11    4.59
   1 -12 -12   15.51    4.86
   1 -12  12   18.00    5.43
  -1 -12  12   29.57    8.56
  -1  12  13    6.69    3.85
   1  12  13    3.13    1.69
  -1 -12 -13    2.65    1.39
   1 -12 -13    1.86    1.79
   1 -12  13    2.80    3.21
  -1 -12  13   18.51    6.08
  -1  12  14   13.95    4.48
   1  12  14   12.53    4.65
  -1 -12 -14    5.79    1.83
   1 -12 -14    3.87    1.83
   1 -12  14   18.71    5.40
  -1  12  15    7.57    4.65
   1  12  15    4.34    3.09
   1 -12 -15    6.33    2.74
   1 -12  15    5.79    3.85
  -1 -12  15   15.78    5.87
  -1  12  16    8.27    2.86
   1  12  16   12.49    5.21
   1 -12 -16    5.05    1.95
   1 -12  16   16.38    5.47
  -1 -12  16    6.56    4.15
  -1  13   0   75.91   10.97
   1  13   0   90.38   11.72
   1 -13   0   76.05    7.35
  -1 -13   0   83.30    7.67
  -1  13  -1  127.86   10.45
  -1  13   1  128.17   12.21
   1  13  -1  128.96    9.62
   1  13   1  124.07    8.43
   1 -13  -1  134.73    8.98
  -1 -13  -1  100.02    8.93
   1 -13   1  125.12    8.59
  -1 -13   1  126.63   15.32
  -1  13  -2   18.80    4.19
  -1  13   2   13.57    4.82
   1  13  -2   13.70    4.46
   1  13   2   22.30    5.64
   1 -13  -2   26.41    6.11
  -1 -13  -2   13.40    5.05
   1 -13   2   15.03    5.51
  -1 -13   2   21.51    5.44
  -1  13  -3   28.71    5.96
   1  13  -3   13.70    3.48
  -1  13   3   23.17    5.63
   1  13   3   26.82    6.17
  -1 -13  -3   30.60    6.75
   1 -13  -3   42.30    6.96
   1 -13   3   13.93    5.39
  -1 -13   3   35.41    9.01
  -1  13  -4  121.42    9.42
   1  13  -4  113.60    8.90
  -1  13   4  113.75    8.34
   1  13   4  134.94   13.55
  -1 -13  -4  113.36    9.89
   1 -13  -4  125.01    8.20
   1 -13   4  130.23   12.31
  -1 -13   4  113.95    7.44
  -1  13  -5   15.97    3.87
   1  13  -5   13.79    3.50
  -1  13   5    3.31    2.47
   1  13   5   11.93    4.46
  -1 -13  -5   20.59    5.87
   1 -13  -5   13.45    3.88
   1 -13   5   13.26    3.96
  -1 -13   5    6.68    3.39
  -1  13  -6  116.94   10.34
   1  13  -6  109.62    9.50
   1  13   6  135.48   18.27
  -1 -13  -6  126.87    8.85
   1 -13  -6  118.10    9.12
   1 -13   6  110.78    8.57
  -1 -13   6  123.14    9.12
  -1  13  -7    2.30    0.92
   1  13  -7    3.17    1.58
  -1  13   7    6.91    3.98
   1  13   7    3.60    2.08
  -1 -13  -7    2.84    1.57
   1 -13  -7    4.84    3.48
   1 -13   7    4.51    3.60
  -1 -13   7    6.37    3.24
  -1  13  -8  255.46   14.71
   1  13  -8  262.30   14.33
  -1  13   8  237.01   14.54
   1  13   8  263.68   21.07
  -1 -13  -8  254.45   14.35
   1 -13  -8  246.43   14.39
   1 -13   8  255.04   15.07
  -1 -13   8  265.08   15.59
  -1  13   9   17.36    4.64
   1  13   9   17.37    5.16
  -1 -13  -9   15.03    3.88
   1 -13  -9   14.01    5.06
   1 -13   9   13.67    5.47
  -1 -13   9   21.16    5.92
  -1  13  10  116.03   12.71
   1  13  10  155.37   20.02
  -1 -13 -10   89.14   14.50
   1 -13 -10  122.99   10.73
   1 -13  10  122.97   11.42
  -1 -13  10  130.65   14.08
  -1  13  11   37.83    5.22
   1  13  11   48.49    7.66
  -1 -13 -11   32.41    3.65
   1 -13 -11   35.43    4.26
  -1 -13  11   46.81    5.37
  -1  13  12   13.71    4.87
   1  13  12   22.40    6.04
  -1 -13 -12   10.40    4.04
   1 -13 -12    8.73    2.99
   1 -13  12   26.73    6.38
  -1 -13  12   17.20    5.03
  -1  13  13   14.28    4.21
   1  13  13   15.87    5.13
  -1 -13 -13    3.16    1.57
   1 -13 -13    7.48    2.69
   1 -13  13    6.75    3.33
  -1 -13  13    6.86    4.20
  -1  13  14    6.85    3.18
   1  13  14   10.66    5.18
   1 -13 -14    2.87    2.52
   1 -13  14   11.38    4.35
  -1 -13  14    3.52    2.28
  -1  13  15   14.96    5.24
   1  13  15   12.73    4.53
   1 -13  15   15.96    6.36
  -1  14   0    7.70    4.42
   1  14   0    8.40    3.62
   1 -14   0    5.62    3.50
  -1 -14   0    8.35    3.60
  -1  14  -1   89.77    6.93
  -1  14   1  106.55   12.25
   1  14  -1   87.49   11.30
   1  14   1   93.17    7.47
   1 -14  -1  106.06    8.45
  -1 -14  -1   91.11    7.33
   1 -14   1  103.06    7.86
  -1 -14   1  101.87    7.91
  -1  14  -2   93.46    7.08
  -1  14   2   75.57   11.10
   1  14  -2   97.34   10.96
   1  14   2   77.37   13.63
   1 -14  -2   76.39   15.06
  -1 -14  -2   76.43   14.91
   1 -14   2   81.88   11.65
  -1 -14   2   86.41    7.14
  -1  14  -3   90.24   10.89
   1  14  -3   79.38   14.42
  -1  14   3   82.13   11.35
   1  14   3   88.55    7.43
  -1 -14  -3   74.19    8.71
   1 -14  -3   99.42    8.05
   1 -14   3   79.22   12.38
  -1 -14   3   93.16    7.41
  -1  14  -4  182.88   19.56
   1  14  -4  188.85   12.22
  -1  14   4  195.65   22.40
   1  14   4  198.35   19.80
  -1 -14  -4  177.81   12.02
   1 -14  -4  180.16   18.22
   1 -14   4  189.73   16.47
  -1 -14   4  185.34   18.97
  -1  14  -5   16.57    4.31
   1  14  -5   22.85    6.09
  -1  14   5   26.82    6.80
   1  14   5   10.22    4.02
   1 -14  -5   26.96    6.79
  -1 -14  -5   33.34    6.19
   1 -14   5   25.70    6.48
  -1 -14   5   23.70    7.38
  -1  14  -6   67.26    4.78
   1  14  -6   40.21    8.73
  -1  14   6   56.08    8.23
   1  14   6   95.04    9.29
  -1 -14  -6   65.39   14.63
   1 -14  -6   59.36    8.08
   1 -14   6   53.70    7.67
  -1 -14   6   81.78    7.26
  -1  14  -7   13.71    3.92
   1  14  -7   14.84    4.01
  -1  14   7    5.47    2.88
  -1 -14  -7    8.27    2.70
   1 -14  -7   12.38    4.10
   1 -14   7   20.75    6.26
  -1 -14   7   11.74    3.90
  -1  14  -8   34.73    6.07
  -1  14   8   25.15    5.71
   1  14   8   37.72    8.89
  -1 -14  -8   29.66    5.46
   1 -14  -8   25.54    5.17
   1 -14   8   38.37    7.69
  -1 -14   8   23.96    4.73
  -1  14   9    7.35    3.07
   1  14   9   14.33    5.00
  -1 -14  -9    4.55    1.79
   1 -14  -9   11.06    3.92
   1 -14   9   13.34    5.75
  -1 -14   9   18.93    6.21
  -1  14  10    9.03    4.77
   1  14  10    3.87    2.37
  -1 -14 -10    2.04    1.33
   1 -14 -10   -0.35    1.86
   1 -14  10    7.93    4.23
  -1 -14  10    7.14    4.68
  -1  14  11    7.43    3.19
   1  14  11   -0.39    2.00
  -1 -14 -11    4.25    2.19
   1 -14 -11    2.35    1.41
   1 -14  11   13.78    5.30
  -1 -14  11    2.60    3.17
  -1  14  12   14.66    5.11
   1  14  12    0.97    2.81
  -1 -14 -12    1.54    1.42
   1 -14 -12    4.86    2.14
   1 -14  12    4.68    3.45
  -1 -14  12    8.87    5.32
  -1  14  13    7.86    2.49
   1  14  13   13.32    5.21
   1 -14 -13   10.41    3.71
   1 -14  13   11.00    4.00
  -1 -14  13   16.77    5.78
  -1  14  14   29.29    6.97
   1  14  14   12.61    4.51
   1 -14  14   17.95    6.01
  -1 -14  14   16.78    5.27
  -1  15   0   73.59   12.02
   1  15   0  102.30   11.47
   1 -15   0   87.18    6.67
  -1 -15   0   95.20    7.18
  -1  15  -1   37.04    7.14
  -1  15   1   27.99    6.97
   1  15  -1   42.15    6.96
   1  15   1   38.67    6.57
   1 -15  -1   62.97    9.60
  -1 -15  -1   42.35    6.38
   1 -15   1   46.93    9.21
  -1 -15   1   41.03    6.75
  -1  15  -2   15.42    4.06
  -1  15   2   38.11    7.44
   1  15  -2   34.09    6.90
   1  15   2   26.18    5.73
   1 -15  -2   31.61    5.98
  -1 -15  -2   30.26    5.85
   1 -15   2   35.82    7.32
  -1 -15   2   31.98    7.71
  -1  15  -3  109.04   15.43
   1  15  -3  121.34   10.07
  -1  15   3  142.15   17.47
   1  15   3  116.53   10.25
   1 -15  -3  136.41   12.04
  -1 -15  -3  133.14   11.00
   1 -15   3  132.44   11.05
  -1 -15   3  112.96   12.77
  -1  15  -4   24.18    6.03
   1  15  -4   22.87    5.39
  -1  15   4   25.34    5.85
   1  15   4   30.46    6.83
   1 -15  -4   34.63    6.69
  -1 -15  -4   37.09    6.73
   1 -15   4   47.19    8.89
  -1 -15   4   23.47    5.98
  -1  15  -5   78.50    7.06
   1  15  -5   83.73    7.49
  -1  15   5   77.69   10.64
   1  15   5   72.36    9.18
   1 -15  -5   94.11    9.41
  -1 -15  -5   56.81   10.92
   1 -15   5   83.97   10.09
  -1 -15   5   74.91    9.07
  -1  15  -6   22.24    4.97
   1  15  -6    9.20    3.02
  -1  15   6   14.61    5.63
   1  15   6   24.76    5.88
  -1 -15  -6   12.74    4.36
   1 -15   6    5.50    3.38
  -1 -15   6   23.41    5.45
  -1  15  -7    9.31    2.94
   1  15  -7   11.73    3.48
   1  15   7   10.11    5.02
   1 -15  -7    2.97    2.25
   1 -15   7    6.24    3.17
  -1 -15   7    7.79    3.42
   1  15   8   20.51    5.39
  -1 -15  -8    8.83    3.40
   1 -15  -8    8.55    3.21
   1 -15   8   22.03    5.85
  -1 -15   8   27.71    7.03
  -1  15   9    7.91    3.33
   1  15   9   20.96    6.71
  -1 -15  -9   14.09    3.94
   1 -15  -9    5.67    2.34
   1 -15   9   13.03    5.05
  -1 -15   9    9.72    5.07
  -1  15  10    6.75    2.81
   1  15  10   10.55    4.46
  -1 -15 -10   -1.28    1.41
   1 -15 -10    5.82    2.65
   1 -15  10    0.93    3.29
  -1 -15  10   13.45    5.53
  -1  15  11    6.50    3.14
   1  15  11    1.39    1.22
   1 -15 -11    4.53    2.61
   1 -15  11    7.82    3.35
  -1 -15  11    9.61    3.11
  -1  15  12   12.02    4.30
   1  15  12    2.54    2.64
   1 -15 -12    4.03    2.05
   1 -15  12    7.94    3.74
  -1 -15  12   10.10    5.18
  -1  15  13   10.09    4.97
   1  15  13    4.48    3.65
   1 -15 -13   -0.98    1.66
   1 -15  13   13.21    4.84
  -1 -15  13   10.66    4.11
  -1  16   0   14.50    4.89
   1  16   0   20.19    4.75
   1 -16   0   18.75    5.24
  -1 -16   0   20.19    4.45
  -1  16  -1   22.97    4.62
  -1  16   1   10.95    3.94
   1  16  -1   12.91    4.83
   1  16   1   18.78    4.56
   1 -16  -1   17.90    4.31
  -1 -16  -1   29.43    5.97
   1 -16   1   20.97    5.19
  -1 -16   1   15.25    5.36
  -1  16  -2    6.04    2.99
  -1  16   2    4.07    3.72
   1  16  -2   11.77    3.98
   1  16   2    9.55    4.91
  -1 -16  -2    6.68    2.55
   1 -16  -2   15.31    5.55
   1 -16   2    9.58    4.88
  -1 -16   2    3.55    2.82
  -1  16  -3   19.34    5.60
   1  16  -3   28.42    7.25
  -1  16   3   27.97    7.80
   1  16   3   11.47    3.92
   1 -16  -3   19.53    5.91
  -1 -16  -3   26.74    7.15
   1 -16   3   23.50    7.37
  -1 -16   3   19.94    5.79
  -1  16  -4   36.64    3.99
   1  16  -4   39.85    6.20
  -1  16   4   50.40    5.75
  -1 -16  -4   36.62    4.37
   1 -16  -4   45.21    5.88
   1 -16   4   42.37    6.50
  -1 -16   4   41.43    4.72
  -1  16  -5    0.80    1.00
   1  16  -5    7.02    2.50
  -1  16   5   12.26    3.76
   1  16   5   -2.11    2.60
   1 -16  -5   10.68    4.03
  -1 -16  -5    6.05    2.42
   1 -16   5   13.54    4.57
  -1 -16   5   18.65    5.62
  -1  16  -6   17.90    4.82
   1  16  -6   16.59    4.53
  -1  16   6   25.48    6.02
   1  16   6   20.69    5.22
  -1 -16  -6   15.83    4.46
   1 -16   6   25.15    5.89
  -1 -16   6   17.61    5.14
  -1  16   7   23.57    5.81
   1  16   7   31.85    8.30
  -1 -16  -7   20.03    4.86
   1 -16   7   42.14    8.46
  -1 -16   7   19.96    5.55
  -1  16   8   28.35    7.07
   1  16   8   34.73    6.87
  -1 -16  -8   10.65    3.59
   1 -16  -8   23.96    6.02
  -1 -16   8   23.94    6.05
  -1  16   9   35.39    6.39
   1  16   9   14.97    5.37
  -1 -16  -9   21.43    7.60
   1 -16   9   34.31    6.42
  -1 -16   9   39.97    6.06
  -1  16  10    8.50    3.71
   1  16  10    5.08    3.30
   1 -16 -10   15.21    4.72
   1 -16  10   28.53    6.56
  -1 -16  10   27.77    5.64
  -1  16  11    3.59    3.06
   1  16  11    5.31    2.05
   1 -16 -11    2.41    1.77
   1 -16  11   14.02    6.04
  -1 -16  11    1.43    3.15
  -1  17   0  100.69   16.80
   1  17   0  110.83   16.42
   1 -17   0  111.40   14.61
  -1 -17   0  113.06   14.47
  -1  17  -1   28.33    6.27
  -1  17   1   31.50    7.27
   1  17  -1   26.77    7.27
   1  17   1   34.39    8.92
   1 -17  -1   51.50    7.94
  -1 -17  -1   33.82    7.86
   1 -17   1   37.05    7.38
  -1 -17   1   48.07    7.10
  -1  17  -2  119.13   16.10
   1  17  -2  129.69   18.45
  -1  17   2  101.60   17.04
   1  17   2  123.76   16.44
   1 -17  -2   97.42   19.40
  -1 -17  -2  152.75   26.34
   1 -17   2  139.62   17.55
  -1 -17   2  140.90   17.58
  -1  17  -3   54.65    9.53
   1  17  -3   51.57    9.32
  -1  17   3   70.81   12.66
   1  17   3   57.22    9.58
   1 -17  -3   39.41    9.39
  -1 -17  -3   66.14   10.71
   1 -17   3   39.19    7.63
  -1 -17   3   58.76   11.78
  -1  17  -4   72.06   11.21
   1  17  -4   63.13    9.92
  -1  17   4   73.05   12.56
   1  17   4   70.16   12.88
  -1 -17  -4   61.52    9.76
   1 -17  -4   69.03   11.05
   1 -17   4   81.91   13.67
  -1 -17   4   86.48   14.68
  -1  17  -5   30.73    6.09
   1  17  -5   44.46    6.83
  -1  17   5   47.73    7.47
   1  17   5   47.64    7.75
   1 -17  -5   19.78    5.50
  -1 -17  -5   26.05    4.90
   1 -17   5   43.03    7.31
  -1 -17   5   33.72    5.29
  -1  17   6   23.31    7.13
   1  17   6   19.99    6.36
   1 -17  -6   17.66    5.15
  -1 -17  -6   14.45    4.31
   1 -17   6   22.25    6.83
  -1 -17   6   23.66    7.49
  -1  17   7   13.58    5.12
   1  17   7   13.34    4.91
  -1 -17  -7   11.31    3.38
   1 -17  -7    5.61    2.51
   1 -17   7   19.68    5.94
  -1 -17   7   22.47    6.10
  -1  17   8    9.03    4.31
   1  17   8   10.21    3.89
   1 -17  -8    5.80    2.20
   1 -17   8   19.33    7.23
  -1 -17   8    6.04    4.27
  -1  17   9    6.96    3.99
   1  17   9    8.78    4.08
   1 -17  -9    5.26    3.12
   1 -17   9   11.38    4.81
  -1 -17   9    5.93    3.65
  -1  17  10    0.44    3.20
   1  17  10    4.61    3.37
   1 -17 -10    2.39    1.89
   1 -17  10    7.24    4.87
  -1 -17  10    1.87    4.47
  -1  18   0    5.11    3.81
   1 -18   0   12.29    4.67
  -1 -18   0    9.72    3.99
  -1  18  -1    4.31    2.58
  -1  18   1    9.12    4.59
   1  18  -1    0.00    2.14
   1  18   1    4.04    1.80
   1 -18  -1    5.37    4.07
  -1 -18  -1   11.04    4.13
   1 -18   1    4.76    3.14
  -1 -18   1    6.71    2.68
  -1  18  -2   10.96    3.48
   1  18  -2    4.62    2.29
  -1  18   2   19.06    5.54
   1 -18  -2   14.09    4.85
  -1 -18  -2   17.05    4.89
   1 -18   2   20.11    4.78
  -1 -18   2   16.82    5.32
  -1  18  -3    2.82    2.19
   1  18  -3    5.66    2.48
  -1  18   3    8.79    3.91
   1  18   3    8.66    2.52
  -1 -18  -3    2.59    1.28
   1 -18  -3    4.34    2.68
   1 -18   3   17.00    6.28
  -1 -18   3   10.49    3.66
  -1  18  -4    4.67    2.51
   1  18  -4    5.87    2.25
   1  18   4   15.07    5.52
   1 -18  -4    2.12    3.14
  -1 -18  -4    5.78    2.28
   1 -18   4    7.67    3.58
  -1 -18   4   -1.59    3.00
  -1  18  -5    9.09    2.79
  -1  18   5   19.83    5.54
   1  18   5   15.58    5.87
  -1 -18  -5   11.63    3.97
   1 -18  -5   13.38    4.50
   1 -18   5   17.76    4.84
  -1  18   6   -1.81    2.99
   1  18   6    2.56    2.98
   1 -18  -6    2.28    2.82
   1 -18   6    4.76    2.41
  -1 -18   6    8.76    5.15
  -1  18   7   10.06    3.81
   1  18   7   32.83    9.57
   1 -18   7   22.84    6.91
  -1 -18   7   18.88    6.00
  -1  19   0   75.69   20.03
   1  19   0   70.62   16.89
   1 -19   0   55.89   15.85
  -1 -19   0   56.79   15.67
  -1  19  -1   35.42   10.00
  -1  19   1   59.54   14.04
   1  19  -1   33.01    8.69
   1  19   1   37.43    9.45
   1 -19  -1   28.20    7.40
  -1 -19  -1   30.06    8.83
   1 -19   1   25.47    6.85
  -1 -19   1   31.98    8.42
  -1  19  -2   58.36   15.92
  -1  19   2   45.99   12.66
   1  19  -2   34.68   10.54
   1  19   2   46.41   12.03
  -1 -19  -2   38.15    9.23
   1 -19  -2   77.53   18.12
   1 -19   2   53.58   13.05
  -1 -19   2   72.17   16.52
  -1  19  -3    4.13    2.09
   1  19  -3   11.22    4.09
  -1  19   3    8.32    4.10
   1  19   3    7.66    2.69
   1 -19  -3    7.79    3.74
  -1 -19  -3    6.65    3.17
   1 -19   3    8.74    3.82
  -1 -19   3   -0.08    2.71
  -1  19  -4   21.52    5.78
  -1  19   4   36.52   10.64
   1  19   4   29.17    8.02
   1 -19  -4   12.19    5.25
  -1 -19  -4   16.84    4.44
   1 -19   4   19.63    5.80
  -1 -19   4   18.66    5.88
  -2   0   0    1.66    0.84
   2   0   0    2.93    0.45
   2   0   2  361.17   12.66
  -2   0   2  350.98   12.20
   2   0  -2  349.42   12.23
  -2   0   2  345.50   12.07
   2   0   2  360.94   12.43
  -2   0  -2  354.57   12.27
   2   0   3  232.03    8.48
   2   0  -3  227.24    8.00
   2   0  -3  242.50    8.86
  -2   0  -4  842.78   11.84
  -2   0   4  818.64   11.44
   2   0  -4  823.45   11.43
  -2   0  -4  846.26   11.75
   2   0   4  882.12   12.26
   2   0  -4  800.06   11.78
  -2   0  -5    0.40    0.80
   2   0   5    0.77    0.61
  -2   0   5   -0.26    0.82
   2   0  -5    0.66    0.80
  -2   0  -5    2.58    0.99
   2   0   5    2.02    0.74
  -2   0   5    6.38    1.70
  -2   0  -6   10.05    1.56
   2   0   6    7.79    1.30
  -2   0   6    7.59    1.32
   2   0  -6    7.31    1.26
  -2   0  -6   10.32    1.72
   2   0   6   10.77    1.63
   2   0  -6    8.21    2.53
  -2   0   6    4.29    1.02
  -2   0  -7   64.61    8.50
   2   0   7   60.82    7.79
  -2   0   7   60.62    6.73
   2   0  -7   54.38    6.14
  -2   0  -7   65.27    8.66
   2   0   7   63.83    8.45
   2   0   8    5.93    0.97
  -2   0   8    6.27    1.63
   2   0  -8    9.37    1.69
   2   0   8    4.62    1.61
  -2   0  -8    4.54    1.44
   2   0  -8    7.97    1.89
   2   0   8    2.37    1.09
   2   0   9    9.61    1.74
  -2   0   9   10.97    2.24
   2   0  -9    9.98    1.99
   2   0   9   11.26    1.93
  -2   0  -9   12.88    2.46
   2   0  -9   12.66    2.30
   2   0  10   39.55    6.23
  -2   0  10   56.66    7.18
   2   0  10   51.43    6.19
   2   0 -10   48.54    7.31
  -2   0 -10   55.85    8.40
   2   0 -10   52.20    7.71
   2   0  11    2.35    1.13
  -2   0  11   13.67    3.79
   2   0  11   10.40    3.12
   2   0 -11    7.54    2.17
  -2   0 -11    9.87    3.38
   2   0 -11    6.83    2.83
  -2   0  12    8.79    1.80
  -2   0  12    6.96    1.98
   2   0  12    3.91    1.83
  -2   0 -12    9.80    3.07
   2   0 -12    7.64    2.35
  -2   0  13   28.28    6.80
  -2   0  13   43.90    6.56
   2   0  13   39.11    6.11
  -2   0 -13   48.03    9.69
   2   0 -13   42.75    8.47
  -2   0  14   36.22    8.24
   2   0  14   32.80    7.96
  -2   0 -14   50.37    6.99
   2   0 -14   52.64    6.57
  -2   0  15    3.33    1.38
   2   0  15    2.59    0.91
  -2   0 -15    3.75    1.25
   2   0 -15    3.81    2.46
   2   0  16   59.30    8.84
  -2   0 -16   67.07    9.19
   2   0 -16   65.68   15.99
  -2   0 -17   15.79    4.54
   2   0 -17   16.76    4.76
  -2   0 -18    4.99    1.83
   2   0 -18    1.33    2.44
  -2   0 -19   13.33    3.44
   2   0 -19    3.90    2.71
  -2   0 -20    3.84    2.04
   2   0 -20   10.35    3.68
  -2   0 -21    3.40    1.24
   2   0 -21    2.93    1.84
  -2  -1   0   40.25    4.81
   2   1   0   47.29    5.05
  -2   1   0   38.59    5.10
   2  -1   0   40.25    4.02
   2   1   0   39.08    3.81
   2  -1   0   32.67    3.28
  -2  -1  -1   19.74    2.83
   2   1   1   27.39    3.83
  -2  -1   1   28.85    3.69
   2   1  -1   20.32    2.71
  -2   1  -1   24.83    2.61
   2  -1   1   22.65    3.36
  -2   1   1   23.26    3.63
   2  -1  -1   24.38    3.01
   2   1  -1   29.84    3.87
  -2  -1   1   26.03    2.66
   2  -1  -1   29.58    3.10
   2  -1   1   22.37    2.40
  -2   1  -1   26.31    2.70
  -2  -1  -2  194.66    7.84
   2   1   2  210.04    7.63
  -2  -1   2  207.44    7.30
  -2   1  -2  224.30    7.99
   2  -1   2  173.91    6.27
   2   1  -2  179.23    6.34
  -2   1   2  175.37    6.40
   2  -1  -2  209.55    7.48
   2   1  -2  184.99    6.78
   2  -1  -2  209.70    7.56
  -2   1   2  173.10    6.27
   2  -1   2  190.75    6.79
  -2  -1  -3  119.46    4.99
   2   1   3   97.80    4.04
  -2   1  -3  100.44    3.89
  -2  -1   3   94.71    3.55
   2   1  -3  110.66    4.15
  -2   1   3  111.81    4.84
   2  -1  -3   94.02    3.69
  -2  -1  -3  110.09    3.95
   2   1   3  103.27    3.96
   2   1  -3  120.26    4.66
  -2  -1   3   98.74    3.87
   2  -1  -3  104.97    5.57
  -2   1   3  103.79    4.09
   2  -1   3  116.13    4.52
  -2   1  -4  788.36   11.05
   2  -1   4  800.39   11.26
  -2  -1   4  772.79   10.66
   2   1  -4  799.48   10.98
   2  -1  -4  808.13   11.43
   2   1  -4  864.99   12.62
   2   1   4  811.57   11.30
  -2   1   4  793.68   11.61
   2   1   5 1130.08   15.83
  -2   1  -5 1173.26   16.14
   2  -1   5 1272.67   17.49
  -2  -1   5 1140.55   15.49
  -2   1   5 1282.15   18.14
   2  -1  -5 1186.93   16.42
   2   1  -5 1107.60   16.37
   2   1   5 1213.37   16.79
  -2   1   5 1221.02   17.32
  -2   1  -6  330.22   11.78
   2   1   6  312.45   11.07
   2  -1   6  248.24    8.83
  -2  -1   6  334.77   11.84
  -2   1   6  247.09    9.02
   2  -1  -6  318.65   11.23
   2   1  -6  241.34    8.49
   2   1   6  351.58   12.54
  -2   1  -6  337.32   12.05
  -2  -1  -6  264.36    9.75
   2  -1   6  255.40    9.19
   2   1   6  342.03   12.07
  -2  -1   6  321.21   11.53
  -2   1   6  237.24    8.75
  -2   1  -7  258.06   14.15
   2   1   7  243.84   13.48
   2  -1   7  238.59   13.10
  -2  -1   7  255.04   14.01
  -2   1   7  235.89   13.09
   2  -1  -7  253.70   13.98
   2   1  -7  245.55   13.42
   2   1   7  253.88   14.10
  -2   1  -7  262.87   14.92
  -2  -1  -7  243.59   13.50
   2  -1   7  240.45   13.42
   2   1  -7  247.87   14.35
   2   1   7  251.26   13.89
   2  -1  -7  260.69   14.77
  -2   1  -8  517.73   14.46
   2  -1   8  489.71   13.74
  -2  -1   8  517.55   14.56
  -2   1   8  531.42   15.08
   2  -1  -8  512.70   14.41
   2   1  -8  529.37   14.61
   2   1   8  526.47   15.92
  -2   1  -8  543.29   15.49
  -2  -1  -8  577.72   16.43
   2   1   8  507.11   14.41
   2   1   9  128.09    9.99
   2  -1   9   96.44    7.70
  -2  -1   9  133.97    9.75
  -2   1   9  114.73    9.62
   2  -1  -9  134.43    9.64
   2   1   9  139.05   10.14
   2   1  -9   99.01    7.21
   2  -1   9  107.88    8.38
  -2   1  -9  142.56   11.25
  -2  -1  -9  127.74   11.43
   2  -1  -9  141.62   10.55
   2   1  10    2.25    0.72
   2  -1  10    4.81    1.01
  -2  -1  10    3.13    1.29
  -2   1  10    8.79    2.11
   2   1  10    2.70    1.75
   2  -1 -10    2.14    0.94
   2  -1  10    2.32    1.03
  -2   1 -10    1.91    0.91
  -2  -1 -10   10.70    2.43
   2   1 -10    7.55    1.82
   2  -1 -10    6.37    1.68
  -2  -1  11   44.87    6.25
   2  -1  11   36.76    5.68
  -2  -1  11   51.09    7.56
  -2   1  11   51.88    7.91
   2   1  11   50.30    8.39
   2  -1  11   45.53    7.91
   2  -1 -11   35.31    6.73
  -2   1 -11   58.04    9.72
  -2  -1 -11   51.43    9.21
   2   1 -11   47.42    8.71
   2  -1 -11   53.15    8.65
  -2  -1  12   37.14    4.80
   2  -1  12   27.44    5.72
  -2  -1  12   40.56    4.80
  -2   1  12   37.04    4.42
   2   1  12   42.51    5.08
   2  -1  12   36.05    5.90
   2  -1 -12   30.50    6.25
  -2   1 -12   43.21    6.23
  -2  -1 -12   37.75    6.63
   2   1 -12   41.24    7.79
   2  -1 -12   38.89    6.27
  -2  -1  13   30.77    7.51
   2  -1  13   17.08    4.40
  -2  -1  13   31.55    8.10
  -2   1  13   29.65    7.78
   2   1  13   39.83    7.88
   2  -1  13   24.47    6.26
  -2   1 -13   49.10    8.74
  -2  -1 -13   35.07    7.05
   2   1 -13   34.28    6.69
   2  -1 -13   47.67    8.95
  -2  -1  14   81.83    8.15
  -2   1  14   83.00    9.19
   2  -1  14   93.29    8.08
   2   1  14   96.38    8.51
  -2   1 -14   97.96   14.17
  -2  -1 -14   82.02   13.03
   2   1 -14  102.00   15.36
   2  -1 -14   95.46   12.31
  -2  -1  15   46.59    6.69
  -2   1  15   55.30    7.71
   2   1  15   55.33    5.64
   2  -1  15   48.64    8.34
  -2   1 -15   64.01    9.05
  -2  -1 -15   49.82    7.57
   2   1 -15   58.88    9.84
   2  -1 -15   67.12    8.65
  -2   1  16    3.40    1.36
   2  -1  16    4.35    1.23
   2   1  16    5.24    2.51
  -2   1 -16    4.02    1.63
  -2  -1 -16    4.33    1.79
   2   1 -16    6.40    1.83
   2  -1 -16    2.33    2.50
   2   1  17   40.52    8.00
  -2   1 -17   46.26    7.99
  -2  -1 -17   43.51   10.84
   2   1 -17   43.55    9.45
   2  -1 -17   52.09    7.74
  -2   1 -18   11.26    3.76
  -2  -1 -18    7.72    2.64
   2   1 -18   10.08    3.14
   2  -1 -18    3.68    1.38
  -2   1 -19   18.01    4.96
  -2  -1 -19   25.72    7.46
   2   1 -19   23.04    5.66
   2  -1 -19   21.35    7.28
  -2  -1 -20   14.37    4.05
   2   1 -20   16.29    5.09
   2  -1 -20    7.35    3.00
  -2  -1 -21    8.91    3.15
   2   1 -21   18.15    5.87
   2  -1 -21   15.26    5.41
   2  -1  21   27.74    7.48
  -2  -2   0 1265.39   17.34
   2  -2   0 1201.28   16.52
  -2  -2   0 1146.98   15.40
   2  -2   0 1280.23   17.50
  -2  -2   1  106.27    5.39
   2  -2   1  161.65    5.92
   2  -2  -1   89.12    8.70
  -2  -2  -1  139.98    4.83
  -2   2   1  160.77    5.84
   2  -2   2  343.36   12.20
  -2   2   2  332.47   11.70
   2   2   3 1122.32   15.71
  -2  -2   3 1116.83   15.07
   2   2  -3 1080.97   14.61
  -2   2  -3 1080.48   14.92
   2  -2   3  999.06   13.92
  -2   2   3 1060.33   15.08
   2   2  -3 1159.62   16.25
  -2  -2  -3 1014.80   13.72
   2   2   3 1024.74   13.87
  -2   2   3 1019.81   14.37
   2  -2   3 1105.58   15.54
  -2   2  -3 1119.03   15.48
   2   2   4  287.58   10.70
  -2  -2   4  275.70    9.52
  -2   2  -4  294.41   10.36
   2  -2   4  314.01   11.05
   2   2  -4  315.39   10.87
  -2   2   4  329.94   11.81
   2  -2  -4  282.37   10.16
   2   2   4  297.79   10.87
   2  -2   4  332.52   11.71
   2   2  -4  346.30   12.36
  -2  -2  -4  332.68   11.57
   2   2   4  272.48    9.57
  -2   2   4  277.63    9.97
   2  -2   4  323.99   11.57
  -2   2  -5  850.49   11.94
  -2  -2   5  835.60   11.29
   2  -2   5  779.96   11.06
   2   2  -5  815.73   11.00
  -2   2   5  829.08   12.73
   2  -2  -5  844.54   12.17
   2   2   5  853.97   12.52
   2   2  -5  861.49   12.79
  -2  -2  -5  845.77   11.89
   2   2   5  782.09   11.29
   2  -2   5  829.71   12.13
   2   2   6  640.41    9.77
  -2   2  -6  650.41    9.25
  -2  -2   6  620.63    8.47
  -2   2   6  628.25    9.67
   2   2  -6  622.95    8.48
   2  -2  -6  657.18    9.85
   2   2   6  656.16   10.09
   2  -2   6  633.34    9.51
   2   2  -6  625.25    9.98
  -2  -2  -6  632.88    9.32
   2  -2  -6  645.27   10.24
   2   2   6  573.99    8.48
   2   2   7  252.38   14.30
  -2   2  -7  262.94   14.38
   2  -2   7  279.27   15.30
  -2  -2   7  261.57   14.21
  -2   2   7  275.80   15.34
   2  -2  -7  246.29   13.61
   2   2  -7  281.50   15.34
   2   2   7  254.65   14.20
   2  -2   7  274.53   15.14
  -2  -2  -7  289.40   15.95
   2   2   7  229.94   12.73
   2  -2   7  280.80   15.70
  -2   2  -8   94.17   10.34
   2   2   8   91.40   11.33
   2  -2   8   99.55   12.64
  -2  -2   8   93.52   10.11
  -2   2   8   94.57   10.93
   2  -2  -8   81.80    9.01
   2   2   8   93.71   10.47
  -2   2  -8   99.50   13.72
   2   2  -8  110.93   10.49
  -2  -2  -8  117.31    8.80
   2  -2  -8  101.26    6.28
   2   2   8   84.44    9.94
  -2   2  -9   37.31    5.63
  -2  -2   9   39.97    5.22
   2  -2   9   37.02    5.41
  -2  -2   9   38.64    5.49
  -2   2   9   39.97    6.61
   2  -2  -9   32.95    5.19
   2   2   9   32.65    4.57
  -2   2  -9   40.87    7.15
   2   2  -9   47.58    7.21
  -2  -2  -9   48.90    7.52
   2  -2  -9   43.46    5.95
   2   2   9   35.05    4.55
   2  -2  10   16.70    2.46
  -2  -2  10   16.48    2.28
  -2   2  10   18.78    3.49
   2   2  10   12.59    2.56
   2  -2 -10   12.64    1.98
   2  -2  10   18.21    3.49
  -2   2 -10   23.68    4.42
  -2  -2 -10   21.07    3.77
   2  -2 -10   18.27    3.22
  -2  -2  11   15.44    4.16
   2  -2  11   10.57    2.94
  -2  -2  11   14.72    4.02
  -2   2  11   16.40    5.33
   2   2  11   10.22    3.33
   2  -2  11   13.94    3.80
  -2   2 -11   22.27    6.15
   2   2 -11   22.26    6.35
  -2  -2 -11   15.67    4.96
   2  -2 -11   14.98    5.72
  -2  -2  12   63.13    6.77
   2  -2  12   44.12    6.14
  -2  -2  12   67.88    7.65
  -2   2  12   67.41    9.46
   2   2  12   78.62    8.80
   2  -2  12   56.63    6.21
  -2   2 -12   84.67   12.09
   2   2 -12   66.49    8.64
  -2  -2 -12   67.12   10.20
   2  -2 -12   75.79   10.61
  -2  -2  13   62.56    9.08
   2  -2  13   36.17    6.64
  -2  -2  13   70.54    9.98
  -2   2  13   62.53    9.82
   2   2  13   79.57   12.45
   2  -2  13   79.19   12.67
  -2   2 -13   96.54   16.47
   2   2 -13   63.39   12.72
  -2  -2 -13   56.95   11.40
   2  -2 -13   84.88   13.51
  -2  -2  14   12.44    3.51
  -2   2  14    7.99    3.31
   2   2  14   21.16    5.26
  -2   2 -14   13.81    4.58
   2   2 -14   13.17    4.15
  -2  -2 -14   11.53    3.78
   2  -2 -14   23.18    5.57
  -2   2  15   48.51    7.86
   2  -2  15   48.49    6.22
   2   2  15   55.95    7.37
  -2   2 -15   65.27    9.23
   2   2 -15   69.66   11.22
  -2  -2 -15   63.08   11.68
   2  -2 -15   57.14    9.32
  -2   2  16   10.16    3.58
   2   2  16    4.48    2.07
  -2   2 -16    9.50    3.26
   2   2 -16    2.57    1.61
  -2  -2 -16    3.91    1.35
   2  -2 -16    5.32    1.50
  -2   2  17   34.98    5.81
   2   2  17   32.17    6.62
  -2   2 -17   45.49    6.57
  -2  -2 -17   29.16    7.41
   2   2 -17   34.22    6.91
   2  -2 -17   40.26    9.95
  -2  -2 -18    2.21    1.43
   2   2 -18    6.26    2.55
   2  -2 -18    5.14    1.33
  -2  -2 -19    4.23    2.48
   2   2 -19   12.10    4.64
   2  -2 -19   11.92    4.68
   2  -2  19   16.50    5.44
  -2  -2 -20    8.90    2.98
   2   2 -20   23.59    5.54
   2  -2 -20   16.03    4.18
   2  -2  20   13.56    5.22
   2  -3   0  320.27   11.35
   2   3   0  301.53   10.76
  -2  -3   0  314.34   10.88
   2  -3   0  296.89   10.76
  -2   3   0  267.01    9.82
  -2  -3   0  344.53   12.32
  -2  -3   1  176.39    6.92
   2   3  -1  159.75    6.22
  -2   3  -1  180.76    7.29
   2  -3   1  155.97    5.91
   2  -3  -1  182.87    6.86
   2   3   1  188.33    7.10
  -2  -3   1  194.03    6.92
  -2   3   1  162.65    6.10
   2  -3   1  166.68    6.39
  -2  -3  -1  163.15    5.80
   2   3   1  186.14    6.59
  -2  -3   2  206.27    7.30
   2   3   2  232.38    8.71
   2   3  -2  217.33    8.47
  -2   3  -2  203.35    7.41
  -2   3   2  215.81    8.12
   2   3  -2  221.05    8.06
   2  -3  -2  220.30    8.64
  -2  -3  -2  214.13    7.50
  -2   3   2  213.60    7.82
   2   3   2  227.42    7.98
   2  -3   2  221.65    8.25
  -2   3  -2  225.57    8.22
  -2  -3   3  265.63    9.25
   2   3   3  283.50   10.29
   2   3  -3  254.64    9.19
  -2   3  -3  266.46    9.47
   2  -3   3  250.72    8.98
  -2   3   3  253.72    9.44
   2   3   3  286.70   10.52
   2   3  -3  268.61    9.73
  -2  -3  -3  252.27    8.80
  -2   3   3  249.00    9.00
   2   3   3  290.87   10.09
   2  -3   3  260.59    9.67
  -2   3   4  552.24    8.84
   2   3   4  618.31    9.63
   2   3  -4  582.33    9.05
   2  -3   4  560.51    9.02
   2   3   5   74.53    8.62
  -2   3  -5   73.43    7.17
   2  -3   5   59.92    5.92
   2   3  -5   55.68    5.48
   2  -3  -5   71.48    7.15
   2   3   5   74.55    7.62
   2   3  -5   58.66    5.87
   2  -3   5   57.30    6.45
   2   3  -5   68.43    9.02
  -2  -3  -5   62.58    6.19
   2  -3  -5   74.05    8.04
   2   3   5   72.77    7.26
  -2   3   5   57.06    6.03
   2  -3   5   52.10    5.45
   2   3   6  426.65   13.74
  -2   3  -6  426.23   11.90
   2  -3   6  344.47    9.77
  -2   3   6  364.50   10.79
   2  -3  -6  424.94   12.23
   2   3  -6  391.25   11.54
  -2  -3  -6  380.09   10.91
   2   3   6  392.20   11.14
   2  -3   6  350.98   10.46
  -2   3  -7 1218.17   33.35
   2  -3   7 1113.91   30.58
  -2   3   7 1311.38  159.74
   2  -3  -7 1181.84   32.63
   2   3   7 1239.69  150.95
   2   3  -7 1347.24  164.04
  -2  -3  -7 1325.27  161.29
   2  -3  -7 1134.62   31.59
   2   3   7 1034.95   28.54
  -2   3  -8  773.68   22.83
   2  -3   8  810.36   23.88
  -2   3   8  862.38   25.85
   2   3   8  793.49   24.61
   2   3  -8  902.59   27.17
  -2  -3  -8  900.79   27.39
   2  -3  -8  705.75   21.51
  -2   3  -9  450.61   13.45
   2  -3   9  385.50   11.66
  -2   3   9  433.00   13.59
   2   3   9  462.61   14.53
   2   3  -9  456.85   21.69
  -2  -3  -9  439.99   13.61
   2  -3  -9  463.29   14.61
   2   3   9  384.03   11.90
   2  -3   9  405.06   13.05
   2  -3  10  215.46    8.84
  -2   3  10  251.32   11.05
   2   3  10  271.50   11.84
   2   3 -10  268.15   15.00
  -2  -3 -10  264.56   11.84
   2  -3 -10  271.27   11.76
   2  -3  10  244.58   11.03
   2  -3  11  167.35   12.72
  -2   3  11  196.97   33.13
   2   3  11  155.22   12.40
   2  -3  11  189.09   14.86
  -2  -3 -11  206.46   11.30
   2  -3 -11  173.12   13.78
   2  -3  11  192.59   32.48
   2  -3  12  115.42   12.19
  -2   3  12  155.80    8.16
   2   3  12  158.44    8.33
   2  -3  12  129.53    7.79
   2   3 -12  134.99    9.33
  -2  -3 -12  152.80    8.77
   2  -3 -12  157.76   15.43
   2  -3  12  135.02    7.65
   2  -3  13   74.53   11.52
  -2   3  13  112.00   17.82
   2   3  13   86.98   13.14
   2  -3  13  107.38   15.56
   2   3 -13  120.82   18.21
  -2  -3 -13  115.08   18.39
   2  -3 -13   84.47   15.80
   2  -3  13  128.14   32.48
  -2   3  14    8.00    2.92
   2   3  14    2.48    1.92
   2  -3  14    6.34    1.99
   2   3 -14    9.83    4.20
  -2  -3 -14    2.67    1.40
   2  -3 -14    9.76    3.20
   2  -3  14   10.74    5.11
  -2   3  15   27.66    6.59
   2   3  15   27.33    6.80
   2   3 -15   36.95    8.94
  -2  -3 -15   38.15    9.06
   2  -3 -15   30.53    6.60
   2  -3  15   31.54    6.23
  -2   3  16    2.78    2.31
   2   3  16    3.50    2.13
   2   3 -16    6.79    3.29
  -2  -3 -16    9.45    3.00
   2  -3 -16    8.15    2.91
   2  -3  16    3.91    4.49
  -2   3  17   -0.72    1.32
   2   3  17    4.80    1.22
   2   3 -17    3.52    2.68
  -2  -3 -17    4.25    2.28
   2  -3 -17    2.32    1.94
   2  -3  17    2.60    2.07
   2   3  18   -0.30    1.31
   2   3 -18   -1.06    2.42
  -2  -3 -18    1.52    1.74
   2  -3 -18    5.76    2.54
   2  -3  18    4.23    3.46
   2   3 -19    5.57    2.27
  -2  -3 -19    5.05    2.14
   2  -3 -19   10.63    3.53
   2  -3  19    8.34    5.11
   2   3 -20    5.01    2.36
  -2  -3 -20    3.98    1.48
   2  -3 -20    5.99    2.64
   2  -3  20    9.92    5.46
   2   4   0 1004.09   14.08
  -2   4   0 1013.97   14.66
   2  -4   0  994.06   14.29
  -2   4   0  981.32   13.96
  -2  -4   0 1003.78   13.91
   2   4   0 1003.52   13.89
   2   4  -1  335.16   11.78
  -2   4   1  359.55   12.99
   2  -4  -1  375.64   13.34
   2   4  -1  339.04   12.08
   2   4   1  408.20   43.95
  -2  -4   1  412.67   44.31
   2  -4  -1  405.84   43.66
  -2   4   1  332.26   11.87
   2  -4   1  329.12   11.85
  -2  -4  -1  324.03   11.30
  -2   4  -1  404.13   14.22
   2   4   1  394.93   13.72
  -2  -4   1  417.19   44.85
   2   4   2 1242.25   17.39
   2   4  -2 1202.16   16.46
  -2   4  -2 1303.18   18.24
   2  -4   2 1210.13   17.17
   2   4  -2 1250.49   17.26
  -2  -4  -2 1233.29   16.74
  -2   4   2 1203.23   16.90
   2  -4   2 1272.66   18.13
   2   4   2 1294.48   17.57
  -2  -4   2 1285.29   17.89
   2   4   3  485.76    8.30
   2   4  -3  447.85    7.52
  -2   4  -3  514.12    7.86
  -2   4   3  467.20    7.90
   2  -4  -3  510.77    8.12
   2   4  -3  476.40    7.02
   2   4   3  446.75    7.61
   2   4  -3  461.91    7.70
  -2  -4  -3  457.32    6.68
   2  -4  -3  508.31    8.04
   2  -4   3  451.87    7.48
  -2   4  -4  858.61   12.25
   2  -4  -4  855.69   12.72
   2   4   4  905.06   13.59
   2   4   4  868.07   12.05
   2   4  -5  483.56   13.23
  -2   4  -5  507.31   14.17
   2  -4   5  469.18   13.15
  -2   4   5  481.54   14.09
   2  -4  -5  498.00   14.21
   2   4  -5  506.85   13.89
   2   4   5  508.66   14.83
   2  -4   5  485.61   14.48
   2   4  -5  518.39   14.83
  -2  -4  -5  492.20   13.80
   2  -4  -5  496.17   14.33
   2   4   5  480.04   13.39
   2  -4   5  501.53   14.48
  -2   4  -6  457.18   12.79
   2  -4   6  443.02   12.45
   2   4   6  478.00   14.10
   2   4  -6  498.18   14.41
  -2  -4  -6  464.42   13.14
   2  -4  -6  464.95   13.81
   2   4   6  449.13   12.66
   2  -4   6  479.35   14.03
  -2   4  -7  325.49    9.19
   2  -4   7  315.53    9.04
  -2   4   7  347.20   10.69
   2   4   7  327.77   10.20
   2   4  -7  382.33   18.66
  -2  -4  -7  338.67   10.19
   2  -4  -7  345.06   11.15
   2   4   7  292.63   16.21
   2  -4   7  308.79    9.73
  -2   4  -8  163.03   11.54
   2  -4   8  171.05   12.12
  -2   4   8  187.57   13.73
   2   4   8  157.21   11.73
   2   4  -8  203.98   16.73
  -2  -4  -8  196.44   14.07
   2  -4  -8  161.79   11.92
   2   4   8  139.30   10.02
   2  -4   8  171.25   12.68
  -2   4  -9   82.38    7.40
   2  -4   9   93.75    9.43
  -2   4   9   90.33   10.74
   2   4   9   88.71   13.04
   2   4  -9   97.14   10.93
  -2  -4  -9   88.19    8.95
   2  -4  -9   79.78    8.07
   2   4   9   57.76    5.54
   2  -4   9  102.42   10.05
  -2   4 -10  145.37   12.89
   2  -4  10  128.48   12.06
  -2   4  10  153.19   12.22
   2   4  10  141.78   13.14
   2   4 -10  140.79   13.05
  -2  -4 -10  143.31   14.76
   2  -4 -10  145.09   13.31
   2  -4  10  132.65   12.24
   2  -4  11   45.12    6.17
  -2   4  11   62.44    9.88
   2   4  11   51.97   10.71
   2   4 -11   66.68   10.49
  -2  -4 -11   64.68   10.79
   2  -4 -11   56.03    7.38
   2  -4  11   57.84    8.02
   2  -4  12  166.38    8.84
  -2   4  12  189.55   10.96
   2   4  12  190.47    9.86
   2  -4  12  177.09    8.43
   2   4 -12  211.28   17.12
  -2  -4 -12  186.79    9.47
   2  -4 -12  205.82   10.67
   2  -4  12  221.01   18.77
  -2   4  13  304.24   17.31
   2   4  13  229.10   13.44
   2  -4  13  260.54   14.54
  -2  -4 -13  295.96   16.74
   2  -4 -13  246.24   14.46
   2  -4  13  292.77   17.30
  -2   4  14  119.48   11.10
   2   4  14  121.62    7.65
   2  -4  14  111.92    7.14
   2   4 -14  118.67   10.84
  -2  -4 -14  124.73    9.73
   2  -4 -14  104.99   16.76
   2  -4  14  130.63   11.07
  -2   4  15   35.93    7.97
   2   4  15   26.80    5.69
   2   4 -15   49.61    7.65
  -2  -4 -15   43.83    7.51
   2  -4 -15   36.93    7.75
   2  -4  15   47.94    5.69
  -2   4  16   21.44    4.99
   2   4  16    8.39    2.44
   2   4 -16   27.40    5.62
  -2  -4 -16   22.85    6.68
   2  -4 -16   17.38    4.59
   2  -4  16   23.90    6.51
  -2   4  17   11.26    3.96
   2   4  17    4.65    1.27
   2   4 -17    8.28    3.48
  -2  -4 -17    7.35    2.14
   2  -4 -17    1.02    1.55
   2  -4  17    4.61    3.06
  -2   4  18   13.82    4.04
   2   4  18    8.32    2.63
   2   4 -18   17.82    4.92
  -2  -4 -18    6.18    2.01
   2  -4 -18   10.07    3.84
   2  -4  18   15.92    5.71
   2   4 -19    4.51    2.22
  -2  -4 -19    3.71    1.50
   2  -4 -19    3.09    1.67
   2  -4  19    1.51    2.99
   2   4 -20    9.63    3.36
  -2  -4 -20    5.22    1.96
   2  -4 -20    1.62    2.75
   2  -4  20   17.21    5.39
   2  -5   0  725.47   10.82
   2   5   0  758.73   11.36
  -2   5   0  727.45   10.82
  -2  -5   0  749.96   10.84
   2   5   0  735.53   10.53
   2   5  -1  841.26   11.97
  -2   5  -1  818.45   12.21
   2  -5   1  831.36   12.17
   2  -5  -1  791.21   11.79
   2   5  -1  867.96   12.56
  -2   5   1  842.28   12.32
  -2   5  -1  787.36   11.61
  -2  -5   1  787.33   11.49
   2   5   1  807.05   11.43
   2   5  -2 1346.42   18.52
  -2   5  -2 1267.64   17.94
   2  -5   2 1371.61   19.15
   2  -5  -2 1205.70   17.32
   2   5  -2 1381.38   19.14
  -2  -5  -2 1261.64   17.87
  -2  -5   2 1324.96   18.39
   2  -5  -2 1300.39   18.47
  -2  -5  -2 1356.57   18.52
  -2   5   2 1315.53   18.47
   2   5   2 1272.87   17.45
  -2  -5   2 1272.31   18.00
   2   5  -3  684.16    9.71
  -2   5  -3  635.60    9.55
  -2  -5   3  649.16    9.71
   2   5   3  621.72    8.92
   2  -5   3  687.53   12.02
  -2  -5   3  632.56    9.76
   2   5  -4  121.32    7.32
  -2   5  -4  147.31    8.36
   2  -5   4  118.82    7.50
  -2   5   4  126.04    7.72
   2   5  -4  124.40    7.00
   2   5   4  167.48    9.87
  -2  -5   4  169.63   11.71
  -2  -5  -4  122.12    6.89
   2  -5  -4  149.08    8.84
  -2   5   4  113.35    6.69
   2   5   4  155.75    8.65
   2  -5   4  129.56   11.30
  -2  -5   4  160.66    9.33
   2   5  -5   18.74    2.51
  -2   5  -5   49.98    6.91
   2  -5   5   19.38    3.44
  -2   5   5   24.27    3.82
   2   5  -5   19.94    3.21
   2   5   5   56.03    7.54
   2   5  -5   27.04    4.59
  -2  -5  -5   16.85    2.48
   2  -5  -5   48.84    6.77
   2   5   5   45.73    5.19
   2  -5   5   17.16    3.08
   2   5  -6  274.61   14.93
  -2   5  -6  245.17   13.48
   2  -5   6  277.15   15.21
   2   5  -6  274.59   14.91
  -2   5   6  301.59   37.03
   2   5   6  236.15   13.60
   2   5  -6  273.96   15.35
  -2  -5  -6  273.78   15.47
   2  -5  -6  254.39   14.54
   2   5   6  248.02   13.69
   2  -5   6  260.81   14.81
  -2   5  -7  113.86    8.12
   2  -5   7  130.75    9.35
  -2   5   7  129.19    9.88
   2   5   7  107.28    8.44
   2   5  -7  132.43   10.53
  -2  -5  -7  122.25    8.93
   2  -5  -7  115.31   11.25
   2   5   7  105.35    7.66
   2  -5   7  126.43    9.90
  -2   5  -8  114.84    8.20
   2  -5   8  110.09    7.89
  -2   5   8  115.62   11.75
   2   5   8  109.15    8.69
   2   5  -8  134.62   13.61
  -2  -5  -8  109.19    8.07
   2  -5  -8  111.89    8.68
   2   5   8   94.77    6.99
   2  -5   8  113.34    9.08
  -2   5  -9   34.52    5.16
   2  -5   9   19.90    3.06
  -2   5   9   34.98    5.96
   2   5   9   32.06    4.75
   2   5  -9   34.42    6.90
  -2  -5  -9   28.11    5.46
   2  -5  -9   39.35    5.70
   2   5   9   29.01    4.87
   2  -5   9   23.00    3.70
  -2   5 -10    7.36    2.15
   2  -5  10    5.46    1.69
  -2   5  10    8.50    4.03
   2   5  10    7.12    2.25
   2   5 -10    9.46    2.93
  -2  -5 -10    2.15    1.87
   2  -5 -10    4.44    2.54
   2  -5  10    3.88    3.94
  -2   5 -11   48.34    5.44
   2  -5  11   35.22    4.14
  -2   5  11   44.52    6.51
   2   5  11   44.13    7.91
   2   5 -11   48.88    6.89
  -2  -5 -11   43.35    6.83
   2  -5 -11   45.66    5.87
   2  -5  11   36.21    5.76
   2  -5  12   22.04    5.45
  -2   5  12   35.14    7.34
   2   5  12   41.07    8.72
   2  -5  12   33.44    9.11
   2   5 -12   51.94    8.81
  -2  -5 -12   37.33    7.81
   2  -5 -12   27.90    7.16
   2  -5  12   35.93    6.16
  -2   5  13   68.58    7.96
   2   5  13   76.35   11.58
   2  -5  13   63.42    5.87
   2   5 -13   84.49    9.88
  -2  -5 -13   73.65    8.68
   2  -5 -13   66.57    9.59
   2  -5  13   65.01    6.99
  -2   5  14   73.17   11.67
   2   5  14   66.43   12.61
  -2  -5 -14   61.53   11.56
   2  -5 -14   84.21   11.87
   2  -5  14   54.92    6.12
  -2   5  15   24.16    7.30
   2   5  15   38.26    8.07
   2   5 -15   33.65    5.42
  -2  -5 -15   29.99    6.46
   2  -5 -15   76.01    7.49
   2  -5  15   40.42    6.36
  -2   5  16    7.80    2.62
   2   5  16    3.11    1.94
   2   5 -16   11.43    3.25
  -2  -5 -16    8.05    2.10
   2  -5 -16    7.66    3.52
   2  -5  16   15.91    5.29
  -2   5  17    3.75    2.80
   2   5  17    4.67    1.99
   2   5 -17   -0.77    2.59
  -2  -5 -17    5.52    2.24
   2  -5 -17    0.68    1.36
   2  -5  17    5.28    3.14
  -2   5  18    4.46    1.88
   2   5  18    5.25    3.29
   2   5 -18    6.65    2.45
  -2  -5 -18    3.36    1.16
   2  -5 -18   10.39    3.22
   2  -5  18    7.87    3.30
   2   5  19    2.04    2.36
   2   5 -19    2.64    2.06
  -2  -5 -19    3.70    2.00
   2  -5 -19    1.54    1.66
   2  -5  19    2.41    2.85
   2   5 -20    6.01    2.21
  -2  -5 -20    2.57    1.46
   2  -5 -20   -0.02    2.20
   2  -5  20    6.28    4.41
  -2   6   0   25.34    4.80
   2   6   0   16.95    2.60
  -2  -6   0   12.91    1.93
   2  -6   0   16.02    2.38
  -2   6   0   24.76    3.33
  -2  -6   0   16.77    2.34
   2   6   0   15.10    3.26
  -2   6  -1   64.74    8.14
  -2   6   1   58.21    9.10
   2  -6   1   56.21    6.65
   2  -6  -1   52.03    6.96
   2   6  -1   64.09    8.44
   2   6   1   60.85    8.58
  -2  -6   1   51.12    6.39
   2  -6  -1   60.83    7.04
  -2  -6  -1   66.46    7.46
  -2   6   1   49.21    5.68
  -2  -6   1   58.94    6.99
   2   6   1   57.11    7.66
   2   6  -1   54.45    7.09
  -2   6  -2    6.74    1.46
  -2   6   2   11.44    2.49
   2  -6   2    7.49    1.51
   2   6  -2    4.70    1.15
   2   6   2    6.92    2.21
  -2  -6   2   11.60    2.09
  -2  -6  -2    9.67    1.57
   2  -6   2    7.44    1.94
   2   6   2    7.81    1.47
  -2  -6   2    4.60    1.77
   2   6  -3  237.89   14.14
  -2   6  -3  192.04   10.87
  -2   6   3  234.73   13.46
   2  -6   3  204.90   11.43
   2   6  -3  231.09   12.85
   2   6   3  209.40   12.04
  -2  -6   3  192.46   10.77
   2  -6  -3  198.84   11.41
  -2  -6  -3  210.98   11.71
   2   6   3  190.43   10.57
  -2  -6   3  199.29   11.44
   2   6  -4   16.57    2.64
  -2   6  -4   21.90    4.29
  -2   6   4   23.60    4.31
   2  -6   4   18.83    3.05
   2   6  -4   23.13    4.22
   2   6   4   35.67    6.65
  -2  -6  -4   22.50    2.85
   2  -6  -4   20.75    3.02
   2   6   4   17.76    2.68
   2  -6   4   23.81    4.20
  -2  -6   4   24.72    3.49
   2   6  -5   20.69    2.88
  -2   6  -5   23.42    4.43
   2  -6   5   22.55    4.05
  -2   6   5   17.24    3.38
   2   6  -5   18.68    2.97
   2   6   5   24.37    3.69
  -2  -6  -5   23.10    2.90
   2  -6  -5   18.26    3.11
   2   6   5   16.85    2.27
   2  -6   5   21.95    3.59
  -2  -6   5   14.32    2.50
   2   6  -6  107.88    7.95
  -2   6  -6  100.87    7.33
   2  -6   6  105.68    8.78
   2   6  -6  108.75    7.73
  -2   6   6  109.99   13.25
   2   6   6  118.72    9.53
  -2  -6  -6  103.38    7.61
   2  -6  -6  100.47    8.77
   2   6   6   97.00    7.23
   2  -6   6  112.39    8.95
  -2  -6   6  106.99   10.14
   2   6  -7  172.68   12.20
  -2   6  -7  226.54   16.00
   2   6  -7  180.28   12.62
   2  -6   7  175.72   13.18
  -2   6   7  187.05   14.09
   2   6   7  220.16   16.18
  -2  -6  -7  176.91   12.73
   2  -6  -7  237.60   17.30
   2   6   7  191.12   13.62
   2  -6   7  181.02   13.48
  -2  -6   7  214.89   15.73
  -2   6  -8  169.64    7.23
   2  -6   8  172.87    7.19
  -2   6   8  181.24   15.27
   2   6   8  187.47   12.16
   2   6  -8  180.83    9.00
  -2  -6  -8  173.08    7.55
   2  -6  -8  173.95    8.06
   2   6   8  164.85    7.13
   2  -6   8  203.64   13.65
  -2   6  -9   57.70    7.42
   2  -6   9   23.82    6.28
  -2   6   9   44.38    7.67
   2   6   9   53.82    8.75
   2   6  -9   39.55    6.78
  -2  -6  -9   29.67    5.69
   2  -6  -9   50.26    6.98
   2  -6   9   45.08    7.00
  -2   6 -10   77.87    8.92
   2  -6  10   53.40    6.45
  -2   6  10   68.97    8.18
   2   6  10   80.35    9.28
   2   6 -10   70.89   10.08
  -2  -6 -10   53.91   10.70
   2  -6 -10   74.86    8.61
   2  -6  10   70.47    8.86
  -2   6 -11  204.64   10.32
   2  -6  11  211.29   11.30
  -2   6  11  235.79   12.89
   2   6  11  198.08   11.34
   2   6 -11  241.76   14.98
  -2  -6 -11  235.68   14.36
   2  -6 -11  206.67   11.34
   2  -6  11  230.80   13.31
  -2   6  12    4.25    1.75
   2  -6  12    2.71    0.90
   2   6  12    4.88    3.09
   2  -6  12    2.32    1.00
   2   6 -12   -1.28    1.68
  -2  -6 -12    4.04    1.70
   2  -6 -12    5.45    2.62
   2  -6  12    2.34    3.02
  -2   6  13   37.84    5.94
   2   6  13   37.71    6.84
   2   6 -13   49.03    9.47
  -2  -6 -13   37.05    7.62
   2  -6 -13   29.40    5.98
   2  -6  13   40.34    7.91
  -2   6  14   12.26    4.38
   2   6  14   10.03    4.17
   2   6 -14   24.90    6.08
  -2  -6 -14   17.07    3.80
   2  -6 -14   14.30    4.26
   2  -6  14   16.24    5.02
  -2   6  15   37.85    8.79
   2   6  15   64.24    8.34
  -2  -6 -15   37.75    9.48
   2  -6 -15   61.65   16.42
   2  -6  15   66.14    7.92
  -2   6  16   27.22    6.87
   2   6  16   25.98    5.45
   2   6 -16   33.45    7.31
  -2  -6 -16   23.25    5.22
   2  -6 -16   14.79    4.13
   2  -6  16   25.88    5.42
  -2   6  17    7.84    3.13
   2   6  17   19.96    5.85
   2   6 -17   12.64    4.55
  -2  -6 -17   13.49    3.71
   2  -6 -17   16.84    5.27
   2  -6  17   22.30    5.85
  -2   6  18   36.11    6.68
   2   6  18   28.88    5.31
  -2  -6 -18   18.83    5.50
   2  -6 -18   10.58    3.52
   2  -6  18   44.53    6.19
  -2  -6  18   39.99    6.05
   2   6  19   12.82    3.69
  -2  -6 -19   12.29    3.71
   2  -6 -19   20.23    4.29
   2  -6  19   13.64    4.52
  -2  -6  19   28.81    5.83
   2  -6 -20    4.09    1.99
   2  -6  20   18.74    5.51
  -2  -6  20   14.78    5.60
  -2   7   0    2.69    1.54
   2   7   0    2.70    1.52
  -2  -7   0    3.10    1.01
  -2  -7   0   -0.37    1.61
   2   7   0    3.62    1.16
  -2   7  -1  268.13   15.12
   2   7  -1  275.36   15.45
   2   7   1  275.63   15.68
  -2  -7   1  239.34   13.33
  -2  -7  -1  259.14   14.36
   2  -7   1  260.36   14.69
  -2  -7   1  253.56   14.16
   2   7   1  256.67   14.24
   2   7  -1  252.32   14.00
  -2   7  -2  161.28    9.31
   2  -7   2  122.16    9.59
   2   7  -2  134.18    9.18
  -2  -7   2  156.91    8.91
  -2  -7   2  165.41    9.37
   2  -7  -2  167.99    9.80
  -2  -7  -2  137.38    7.86
   2   7   2  166.48    9.38
  -2  -7   2  171.21   10.57
  -2   7  -3   68.43    8.70
  -2   7   3   50.36    7.19
   2  -7   3   34.85    5.07
   2   7  -3   51.24    7.13
   2  -7  -3   82.34   13.60
  -2  -7  -3   47.07    5.45
   2  -7   3   36.98    4.85
   2   7   3   58.32    6.55
  -2  -7   3   71.72    9.32
   2   7  -4  158.02   11.78
  -2   7  -4  152.99   11.13
  -2   7   4  179.31   13.38
   2  -7   4  173.52   12.42
   2   7  -4  173.51   12.45
   2   7   4  165.42   12.41
   2  -7  -4  146.21   10.89
  -2  -7  -4  181.75   13.05
   2   7   4  143.01   10.51
   2  -7   4  168.73   12.60
  -2  -7   4  142.78   10.60
   2   7  -5   19.24    3.27
  -2   7  -5   14.61    2.64
  -2   7   5   14.39    3.10
   2  -7   5   14.61    3.00
   2   7  -5   21.68    3.69
   2   7   5    6.30    1.97
  -2  -7  -5   20.18    2.88
   2  -7  -5    7.24    2.35
   2   7   5    6.72    1.54
   2  -7   5   28.90    5.10
  -2  -7   5   11.62    2.68
   2   7  -6    4.51    0.79
  -2   7  -6   14.72    2.66
   2   7  -6    8.91    1.88
  -2   7   6    5.40    2.39
   2  -7   6    7.14    1.52
   2   7   6    6.37    1.51
  -2  -7  -6    2.65    1.02
   2  -7  -6   13.62    2.96
   2   7   6   10.46    2.57
   2  -7   6    7.61    3.77
  -2  -7   6   12.90    2.94
   2   7  -7   73.05    6.85
  -2   7  -7   72.28    6.61
   2   7  -7   81.48    7.76
  -2   7   7   84.82   13.97
   2  -7   7   75.14    8.17
   2   7   7   93.16   11.89
  -2  -7  -7   79.78    7.41
   2  -7  -7   75.67   11.53
   2   7   7   66.88    6.16
   2  -7   7   88.73    9.59
  -2  -7   7   82.93    8.46
  -2   7  -8   99.28    7.64
  -2   7   8  100.57   15.24
   2  -7   8   72.08    9.44
   2   7   8   98.78    8.53
  -2  -7  -8   78.85    9.72
   2  -7  -8  107.76   14.13
   2   7   8   84.69   14.33
   2  -7   8   92.90    8.05
  -2  -7   8  110.98    9.40
  -2   7  -9   99.47    7.66
  -2   7   9  126.97   17.74
   2  -7   9   98.82    8.52
   2   7   9  107.55   13.18
  -2  -7  -9  109.79    8.73
   2  -7  -9   90.87   15.70
   2  -7   9  110.61    9.44
  -2   7 -10   70.10    7.84
  -2   7  10   58.36    9.40
   2  -7  10   39.68    5.15
   2   7  10   64.74    7.98
  -2  -7 -10   50.08    6.04
   2  -7 -10   68.06   10.66
   2  -7  10   57.25    7.39
  -2  -7  10   78.94   12.13
  -2   7 -11   51.44    7.45
  -2   7  11   46.03    8.81
   2  -7  11   31.45    7.57
   2   7  11   58.44   11.85
  -2  -7 -11   37.11    7.62
   2  -7 -11   45.61    7.39
   2  -7  11   44.79    7.65
  -2  -7  11   64.34   10.29
  -2   7  12    8.08    2.95
   2   7  12    5.79    2.87
  -2  -7 -12    4.51    2.15
   2  -7 -12    7.90    3.50
   2  -7  12    6.68    3.64
  -2  -7  12    5.69    3.64
  -2   7  13    7.40    2.90
   2   7  13    3.06    2.48
  -2  -7 -13    5.62    2.00
   2  -7 -13    5.17    2.61
   2  -7  13   20.10    5.24
  -2  -7  13   22.53    6.49
  -2   7  14    7.07    2.86
   2   7  14   10.98    4.64
  -2  -7 -14    2.91    1.11
   2  -7 -14    0.93    2.30
   2  -7  14    5.72    3.32
  -2  -7  14   12.74    5.71
  -2   7  15    2.62    2.08
   2   7  15    8.26    3.51
  -2  -7 -15    3.41    1.19
   2  -7 -15    7.89    3.21
   2  -7  15   11.11    5.05
  -2  -7  15    2.59    1.94
  -2   7  16    1.76    1.40
   2   7  16   10.47    3.85
  -2  -7 -16    6.15    1.92
   2  -7 -16    8.91    3.22
   2  -7  16   17.16    5.43
  -2  -7  16   19.84    6.25
  -2   7  17    5.40    1.87
   2   7  17    3.37    2.00
  -2  -7 -17    5.25    1.13
   2  -7 -17    9.10    2.44
   2  -7  17   16.32    6.56
  -2  -7  17    5.76    2.66
  -2   7  18    8.35    3.22
   2   7  18    8.63    3.17
  -2  -7 -18   11.70    3.24
   2  -7 -18   11.34    3.27
   2  -7  18   16.91    5.11
  -2  -7  18   27.74    5.36
  -2   7  19    5.49    2.74
   2   7  19    3.13    1.14
   2  -7 -19    4.44    1.56
   2  -7  19    3.25    2.95
  -2  -7  19    2.11    4.59
  -2   8   0   30.35    6.12
   2   8   0   22.18    3.69
   2  -8   0   29.16    4.26
  -2  -8   0   32.50    4.73
   2   8   0   24.53    3.45
  -2   8  -1    4.44    1.38
  -2   8   1    9.77    2.23
   2   8  -1    3.61    1.92
   2   8   1    2.75    1.42
   2  -8  -1    0.62    2.12
  -2  -8  -1    7.13    2.27
   2  -8   1    9.48    3.42
  -2  -8   1    3.52    2.52
   2   8   1    3.40    1.68
  -2   8  -2   48.05    7.67
  -2   8   2   53.37    8.80
   2   8  -2   57.44    7.60
   2   8   2   44.19    7.59
  -2  -8   2   36.86    4.83
   2  -8  -2   47.71    8.43
  -2  -8  -2   54.25    7.04
   2  -8   2   61.82    9.17
  -2  -8   2   54.90    8.07
   2   8   2   34.21    4.52
  -2   8  -3   79.72   10.51
  -2   8   3   79.67   13.15
   2   8  -3   72.33    9.73
   2   8   3   77.60    9.67
  -2  -8   3   66.34    8.35
   2  -8  -3   66.55    8.61
  -2  -8  -3   73.23    8.61
   2   8   3   53.15    7.97
  -2  -8   3   58.67    7.77
   2   8  -4   95.47    8.15
  -2   8  -4   86.19    6.66
  -2   8   4  119.33   15.81
   2   8  -4  113.61   10.69
   2  -8   4   92.56    8.81
   2   8   4   89.42    7.79
   2  -8  -4   89.01    7.12
  -2  -8  -4  115.99    8.71
   2   8   4   73.91    8.61
   2  -8   4  108.98    9.10
  -2  -8   4   85.69    7.01
   2   8  -5  218.66    9.74
  -2   8  -5  281.97   11.86
  -2   8   5  238.35   10.89
   2   8  -5  225.34    9.44
   2  -8   5  219.45    9.86
   2   8   5  272.39   12.42
  -2  -8  -5  213.37    9.18
   2  -8  -5  260.72   11.27
   2   8   5  249.27   10.30
   2  -8   5  229.33   10.68
  -2  -8   5  274.56   11.92
   2   8  -6  129.59   12.19
  -2   8  -6  106.03    9.61
   2   8  -6  144.47   13.54
  -2   8   6  155.14   39.44
   2  -8   6  125.82   13.53
   2   8   6  136.84   13.33
  -2  -8  -6  150.48   13.48
   2  -8  -6  123.87   11.61
   2   8   6   96.88    9.13
   2  -8   6  161.54   41.38
  -2  -8   6  114.68   10.80
   2   8  -7  307.91   15.50
  -2   8  -7  339.91   17.30
   2   8  -7  306.36   15.46
  -2   8   7  308.69   19.61
   2  -8   7  285.89   15.72
   2   8   7  363.86   19.41
  -2  -8  -7  298.92   15.35
   2  -8  -7  340.48   18.00
   2  -8   7  288.59   15.34
  -2  -8   7  345.60   18.27
   2   8  -8  292.45   14.64
  -2   8  -8  227.59   11.66
   2   8  -8  289.70   14.53
  -2   8   8  290.45   15.72
   2  -8   8  292.13   15.72
   2   8   8  226.50   12.68
  -2  -8  -8  294.48   15.22
   2  -8  -8  237.17   12.81
   2  -8   8  285.80   15.32
  -2  -8   8  232.52   12.85
  -2   8  -9  421.13   19.45
  -2   8   9  339.57   18.74
   2  -8   9  298.59   14.33
   2   8   9  433.84   21.30
  -2  -8  -9  330.81   15.78
   2  -8  -9  417.74   20.13
   2  -8   9  322.27   16.09
  -2  -8   9  403.45   19.67
  -2   8 -10  155.25    7.99
  -2   8  10  221.18   12.69
   2  -8  10  198.24   10.45
   2   8  10  172.03   13.43
  -2  -8 -10  226.40   11.90
   2  -8 -10  172.91   10.08
   2  -8  10  207.85   12.30
  -2   8 -11  200.87   11.00
  -2   8  11  189.47   15.84
   2   8  11  211.53   18.44
  -2  -8 -11  180.35   10.55
   2  -8 -11  196.71   11.77
   2  -8  11  170.16   10.95
  -2  -8  11  199.10   12.57
  -2   8  12   72.46   12.44
   2   8  12   55.11   10.00
  -2  -8 -12   44.97   11.08
   2  -8 -12   57.55    7.84
   2  -8  12   64.00    8.91
  -2  -8  12   66.29    9.53
  -2   8  13   27.54    6.65
   2   8  13   47.96    6.26
  -2  -8 -13   17.01    3.58
   2  -8 -13   43.90    5.07
   2  -8  13   23.70    5.57
  -2  -8  13   35.60    7.37
  -2   8  14   32.07    6.39
   2   8  14   32.25    7.08
  -2  -8 -14   21.41    7.00
   2  -8 -14   28.18    5.89
   2  -8  14   60.18    7.28
  -2  -8  14   31.07    6.38
  -2   8  15   10.19    3.80
   2   8  15   12.05    3.67
  -2  -8 -15    7.23    1.84
   2  -8 -15    8.60    3.11
   2  -8  15   19.79    5.54
  -2  -8  15   14.36    5.41
  -2   8  16   16.08    5.88
   2   8  16   14.28    4.55
  -2  -8 -16    8.28    2.69
   2  -8 -16   13.46    3.88
   2  -8  16   16.02    5.63
  -2  -8  16   13.26    5.03
  -2   8  17    7.35    2.63
   2   8  17    4.79    2.41
  -2  -8 -17   10.26    2.77
   2  -8 -17    2.86    2.25
   2  -8  17    9.33    3.96
  -2  -8  17   18.98    6.79
  -2   8  18   11.46    3.19
   2   8  18   11.68    4.26
   2  -8 -18    0.89    1.57
   2  -8  18    8.80    4.00
  -2  -8  18   16.40    6.11
  -2   8  19    8.45    3.24
   2   8  19    6.63    2.59
   2  -8 -19    8.78    2.78
   2  -8  19   11.93    5.64
  -2  -8  19   10.70    5.46
  -2   9   0  621.38   19.25
   2   9   0  678.53   21.04
   2  -9   0  641.70   19.84
  -2  -9   0  652.18   20.11
  -2   9  -1  570.89   23.48
  -2   9   1  577.48   23.72
   2   9  -1  565.90   23.19
   2   9   1  563.89   23.18
   2  -9  -1  544.99   22.27
   2  -9   1  555.58   22.82
  -2  -9  -1  564.74   22.91
  -2  -9   1  550.59   22.40
  -2   9  -2  289.18   12.34
  -2   9   2  320.20   13.98
   2   9  -2  298.09   12.71
   2   9   2  305.61   13.33
   2  -9  -2  282.01   12.20
  -2  -9  -2  287.64   12.02
   2  -9   2  313.26   13.57
  -2  -9   2  306.24   14.41
  -2   9  -3  848.29   34.10
   2   9  -3  830.31   33.33
   2   9   3  870.08   35.35
   2  -9  -3  803.53   32.46
  -2  -9  -3  782.23   31.35
   2  -9   3  764.54   31.04
  -2  -9   3  885.55   35.68
  -2   9  -4   42.69    6.82
  -2   9   4   50.23    8.33
   2   9  -4   47.51    8.38
   2  -9  -4   60.04    8.85
  -2  -9  -4   48.61    6.37
  -2  -9   4   40.62    5.82
   2   9  -5  273.08   14.65
  -2   9  -5  281.25   14.56
  -2   9   5  269.38   18.75
   2   9  -5  307.25   15.99
   2   9   5  314.29   21.20
   2  -9  -5  265.50   13.99
  -2  -9  -5  294.67   15.19
   2  -9   5  315.21   20.78
  -2  -9   5  296.64   18.73
   2   9  -6   13.05    3.69
  -2   9  -6   15.84    4.81
   2   9  -6   17.44    4.80
  -2   9   6   29.67    5.17
   2  -9   6   12.18    3.66
   2   9   6   18.21    5.60
  -2  -9  -6   20.02    5.90
   2  -9  -6   17.53    5.03
   2  -9   6   12.23    4.31
  -2  -9   6   16.27    5.62
   2   9  -7   23.77    5.03
  -2   9  -7   37.97    5.83
   2   9  -7   37.41    5.92
  -2   9   7   29.38    6.79
   2  -9   7   25.48    4.99
   2   9   7   25.01    5.84
  -2  -9  -7   31.17    8.03
   2  -9  -7   36.65    4.79
   2  -9   7   44.13    6.78
  -2  -9   7   37.22    5.15
   2   9  -8   12.96    2.59
  -2   9  -8   21.87    4.68
   2   9  -8   13.20    2.87
  -2   9   8   13.80    4.71
   2  -9   8   12.80    2.75
   2   9   8   23.06    5.50
  -2  -9  -8   12.92    3.68
   2  -9  -8   24.53    5.95
   2  -9   8    9.73    3.32
  -2  -9   8   21.46    5.00
   2   9  -9   14.50    3.66
  -2   9  -9   28.85    7.09
   2   9  -9   21.10    4.99
  -2   9   9   33.79    9.69
   2   9   9   24.55    7.15
   2  -9   9   17.18    4.55
  -2  -9  -9   29.53    6.93
   2  -9  -9   32.46    9.27
   2  -9   9   28.06    7.89
  -2  -9   9   33.31    9.27
  -2   9 -10   19.50    4.58
  -2   9  10   27.78    6.60
   2   9  10   32.59    7.23
  -2  -9 -10   26.79    5.32
   2  -9 -10   25.97    5.60
   2  -9  10   32.21    8.15
  -2  -9  10   19.79    4.72
  -2   9 -11    7.79    2.16
  -2   9  11   31.26    7.20
   2   9  11    2.57    2.27
  -2  -9 -11   24.81    4.98
   2  -9 -11    6.95    3.50
   2  -9  11   20.57    6.29
  -2  -9  11    3.59    2.79
  -2   9  12   53.71    6.45
   2   9  12   63.91    8.88
  -2  -9 -12   57.63    9.69
   2  -9 -12   60.63    6.42
   2  -9  12   75.04   10.20
  -2   9  13   71.24   10.13
   2   9  13   78.21   12.54
  -2  -9 -13   76.24    8.94
   2  -9 -13   79.29    6.21
   2  -9  13   83.63    7.63
  -2  -9  13   80.47    7.15
  -2   9  14   70.43   11.26
   2   9  14   61.35    8.95
  -2  -9 -14   49.66   10.61
   2  -9 -14   61.73    6.43
   2  -9  14   75.59    7.63
  -2  -9  14   77.30    8.43
  -2   9  15   43.74    6.16
   2   9  15   48.73    6.23
  -2  -9 -15   15.41    5.02
   2  -9 -15   24.62    9.99
   2  -9  15   34.88    6.04
  -2  -9  15   47.64    5.21
  -2   9  16   54.06   10.65
   2   9  16   37.05    8.06
  -2  -9 -16   33.22   10.82
   2  -9 -16   28.95   10.86
   2  -9  16   52.56   10.05
  -2  -9  16   47.40    8.81
  -2   9  17    8.12    3.14
   2   9  17   24.69    7.84
   2  -9 -17   11.66    3.93
   2  -9  17   25.30    7.65
  -2  -9  17   21.10    7.16
  -2   9  18   15.84    4.95
   2   9  18   13.60    6.13
   2  -9 -18   10.83    3.60
   2  -9  18   26.42    6.38
  -2  -9  18   33.55    7.73
  -2  10   0    4.77    2.06
   2  10   0   10.71    3.81
   2 -10   0    8.61    4.43
  -2 -10   0    1.01    2.08
  -2  10  -1   44.78    8.38
  -2  10   1   37.76    7.94
   2  10  -1   51.12    8.73
   2  10   1   51.92    9.61
   2 -10  -1   48.13    6.54
   2 -10   1   44.36    8.71
  -2 -10  -1   41.12    5.67
  -2 -10   1   44.16    6.10
  -2  10  -2   81.37   14.16
  -2  10   2   93.96   14.57
   2  10  -2   89.08   15.24
   2  10   2  100.73    8.68
   2 -10  -2   96.73   10.28
  -2 -10  -2   95.64    8.25
   2 -10   2   81.45   10.89
  -2 -10   2   91.28    8.30
  -2  10  -3  241.46   12.88
  -2  10   3  284.98   15.54
   2  10  -3  270.40   14.34
   2  10   3  240.68   13.51
   2 -10  -3  248.43   13.53
  -2 -10  -3  277.19   14.42
   2 -10   3  270.36   15.18
  -2 -10   3  241.09   13.09
  -2  10  -4  189.05   14.74
  -2  10   4  194.19   35.30
   2  10  -4  183.80   14.76
   2  10   4  221.59   19.40
   2 -10  -4  217.05   11.97
   2 -10   4  200.40   13.05
  -2 -10   4  196.16   33.09
  -2  10  -5  333.91   15.99
  -2  10   5  332.49   16.54
   2  10  -5  346.35   16.41
   2  10   5  348.22   17.67
  -2 -10  -5  324.89   15.41
   2 -10  -5  337.62   16.48
  -2 -10   5  359.80   17.45
   2  10  -6  145.48    8.85
  -2  10  -6  164.21    8.52
   2  10  -6  162.53    8.05
  -2  10   6  182.37   20.50
   2  10   6  168.43    9.60
  -2 -10  -6  167.18    8.75
   2 -10  -6  154.91   10.81
   2 -10   6  189.07   10.26
  -2 -10   6  161.78    8.97
   2  10  -7  305.46   15.33
  -2  10  -7  310.76   15.93
   2  10  -7  331.59   16.72
  -2  10   7  342.50   18.50
   2  10   7  317.64   17.84
  -2 -10  -7  336.38   17.18
   2 -10  -7  313.82   17.06
   2 -10   7  330.78   17.57
  -2 -10   7  321.71   17.23
   2  10  -8  187.79   10.14
  -2  10  -8  221.63   11.41
   2  10  -8  225.21   11.42
  -2  10   8  228.31   18.20
   2  10   8  214.46   12.42
  -2 -10  -8  225.85   11.88
   2 -10  -8  235.26   13.27
   2 -10   8  227.70   13.13
  -2 -10   8  258.85   22.36
  -2  10  -9   70.84    7.34
   2  10  -9   77.31    6.61
  -2  10   9   99.68   14.56
   2  10   9   72.45   10.69
  -2 -10  -9   71.18    6.30
   2 -10  -9   86.88    8.97
   2 -10   9   82.74    9.03
  -2 -10   9   76.58    7.33
  -2  10 -10  125.49    6.93
  -2  10  10  128.92   17.36
   2  10  10  112.77    7.83
  -2 -10 -10  116.50    6.82
   2 -10 -10  134.90    8.40
   2 -10  10  130.37    8.59
  -2 -10  10  129.50    8.65
  -2  10  11    3.11    2.55
   2  10  11   22.51    5.50
  -2 -10 -11    6.87    2.60
   2 -10 -11    9.17    3.26
   2 -10  11    7.62    3.95
  -2 -10  11   19.14    4.47
  -2  10  12   39.29    7.22
   2  10  12   59.18   10.54
  -2 -10 -12   40.03    5.35
   2 -10 -12   49.60    7.23
   2 -10  12   39.58    6.32
  -2 -10  12   46.80    7.16
  -2  10  13   30.51    6.48
   2  10  13   26.55    5.36
  -2 -10 -13   12.08    3.36
   2 -10 -13   24.61    5.34
   2 -10  13   28.81    6.77
  -2  10  14   11.92    4.59
   2  10  14   17.76    5.19
  -2 -10 -14   15.13    5.05
   2 -10 -14   17.22    5.19
   2 -10  14   27.88    7.55
  -2 -10  14   14.51    4.91
  -2  10  15    6.43    2.19
   2  10  15    8.09    2.48
  -2 -10 -15    2.03    0.81
   2 -10 -15    3.99    2.20
   2 -10  15   11.82    5.64
  -2 -10  15    9.70    3.90
  -2  10  16    5.36    2.37
   2  10  16   10.19    3.73
   2 -10 -16    2.59    2.13
   2 -10  16    9.88    4.09
  -2 -10  16    5.67    3.42
  -2  10  17    6.49    2.78
   2  10  17    3.90    2.24
   2 -10 -17    2.80    3.20
   2 -10  17   12.33    5.66
  -2 -10  17    4.84    3.91
  -2  10  18    3.73    1.70
   2  10  18    1.90    2.34
   2 -10 -18    1.71    1.32
   2 -10  18    0.86    3.22
  -2  11   0   50.20    7.92
   2  11   0   43.66    8.60
   2 -11   0   60.64   10.22
  -2 -11   0   46.90    5.76
  -2  11  -1  226.39   11.61
  -2  11   1  246.01   13.41
   2  11  -1  257.04   13.00
   2  11   1  227.89   11.95
   2 -11  -1  240.16   12.26
  -2 -11  -1  254.50   12.56
   2 -11   1  262.06   16.77
  -2 -11   1  227.34   11.50
  -2  11  -2   98.99   12.34
  -2  11   2   90.66   17.63
   2  11  -2   99.29   14.22
   2  11   2   97.24   15.61
   2 -11  -2  102.31   16.26
  -2 -11  -2   92.95   10.53
   2 -11   2   86.67   10.09
  -2 -11   2   90.25   10.15
  -2  11  -3  119.53   13.43
  -2  11   3  154.80   10.18
   2  11  -3  151.48   13.09
   2  11   3  137.19    8.68
   2 -11  -3  122.51   13.45
  -2 -11  -3  143.83    8.08
   2 -11   3  155.55    9.04
  -2 -11   3  121.94   13.62
  -2  11  -4   56.66    9.27
  -2  11   4   41.14    7.94
   2  11  -4   43.85    7.18
   2  11   4   50.71    6.80
   2 -11  -4   61.44    7.91
  -2 -11  -4   44.04    7.47
   2 -11   4   46.22    6.51
  -2 -11   4   54.92    6.78
  -2  11  -5   56.81    8.62
  -2  11   5   88.89   15.32
   2  11  -5   77.86   11.51
   2  11   5   60.72    9.56
   2 -11  -5   51.23    8.28
  -2 -11  -5   73.10   10.51
   2 -11   5   95.91   14.69
  -2 -11   5   48.67    7.62
  -2  11  -6  139.80   10.47
   2  11  -6  117.22   19.38
  -2  11   6  125.92   33.53
   2  11   6  137.65    9.65
  -2 -11  -6  127.96   32.28
   2 -11  -6  136.71    8.32
  -2 -11   6  142.39    8.57
  -2  11  -7  178.04   10.24
   2  11  -7  187.17   11.10
  -2  11   7  198.21   12.76
   2  11   7  209.09   13.19
  -2 -11  -7  177.29   10.34
   2 -11  -7  192.63   14.27
  -2 -11   7  213.34   21.99
  -2  11  -8   53.96    7.86
   2  11  -8   43.48    6.87
  -2  11   8   49.40    7.35
   2  11   8   65.88   10.37
  -2 -11  -8   32.52    8.40
   2 -11  -8   46.09    6.61
   2 -11   8   49.78    7.78
  -2 -11   8   51.67    8.29
  -2  11  -9  127.91    7.05
   2  11  -9  125.28    7.06
  -2  11   9  135.75   12.85
   2  11   9  134.21   15.57
  -2 -11  -9  133.72    7.81
   2 -11  -9  138.55    8.65
   2 -11   9  123.61    8.46
  -2 -11   9  140.92    9.05
  -2  11 -10   72.46    7.84
  -2  11  10   66.44    8.55
   2  11  10   84.10   10.86
  -2 -11 -10   73.35    7.21
   2 -11 -10   74.18    7.77
   2 -11  10   70.80    9.02
  -2 -11  10   76.00    8.20
  -2  11  11   16.87    5.43
   2  11  11   17.02    5.63
  -2 -11 -11    8.93    2.39
   2 -11 -11    8.64    3.17
   2 -11  11   27.23    7.00
  -2 -11  11   16.34    4.21
  -2  11  12   66.74   12.68
   2  11  12  100.93    9.92
  -2 -11 -12   76.69    6.92
   2 -11 -12   94.42    9.21
   2 -11  12   84.67    8.30
  -2 -11  12   83.34    8.09
  -2  11  13   23.21    6.26
   2  11  13   28.35    7.43
  -2 -11 -13   17.95    4.76
   2 -11 -13   27.04    7.53
   2 -11  13   21.67    6.18
  -2 -11  13   32.95    4.90
  -2  11  14   45.75    8.73
   2  11  14   39.74    7.27
   2 -11 -14   43.69    6.69
   2 -11  14   44.22    7.01
  -2  11  15    7.83    3.04
   2  11  15    9.64    3.91
   2 -11 -15    2.94    1.98
   2 -11  15   15.53    5.80
  -2 -11  15    8.32    3.31
  -2  11  16   17.90    6.67
   2  11  16    6.82    2.99
   2 -11 -16   11.34    3.22
   2 -11  16   30.34    6.78
  -2 -11  16   21.70    5.89
  -2  11  17   13.53    5.18
   2  11  17    3.00    3.51
   2 -11 -17    0.30    1.25
   2 -11  17    7.21    3.97
  -2 -11  17   11.34    4.95
  -2  12   0    4.89    2.75
   2  12   0    6.56    2.32
   2 -12   0    4.23    3.08
  -2 -12   0    7.04    3.93
  -2  12  -1   36.75    6.75
  -2  12   1   42.60    8.00
   2  12  -1   38.55    7.92
   2  12   1   45.96    8.17
   2 -12  -1   38.97    6.24
  -2 -12  -1   39.52    6.13
   2 -12   1   30.96    8.31
  -2 -12   1   39.99    8.43
  -2  12  -2   98.24   17.81
  -2  12   2  147.15   17.06
   2  12  -2  125.59   32.91
   2  12   2  103.55   15.25
   2 -12  -2  106.66   15.85
  -2 -12  -2  120.65   17.17
   2 -12   2  137.07   19.01
  -2 -12   2   98.80   15.13
  -2  12  -3  141.68   10.58
  -2  12   3  174.08   21.70
   2  12  -3  166.03   16.28
   2  12   3  132.34   36.21
   2 -12  -3  124.64   18.02
  -2 -12  -3  162.28    9.22
   2 -12   3  159.78   10.25
  -2 -12   3  120.59   18.79
  -2  12  -4    7.52    2.53
  -2  12   4   14.00    4.81
   2  12  -4    4.10    2.21
   2  12   4   11.40    4.48
   2 -12  -4    9.32    4.35
  -2 -12  -4    8.18    3.41
   2 -12   4    9.25    4.16
  -2 -12   4   20.22    5.33
  -2  12  -5   52.08    7.17
   2  12  -5   52.26    6.79
   2  12   5   43.32    9.56
   2 -12  -5   49.21    5.45
  -2 -12  -5   42.56   11.01
   2 -12   5   52.46    6.88
  -2 -12   5   58.10    6.26
  -2  12  -6  122.30    9.05
   2  12  -6  124.93   10.53
  -2  12   6  139.44   18.55
   2 -12  -6  120.14   11.25
  -2 -12  -6  132.51    8.31
   2 -12   6  117.53    7.86
  -2 -12   6  146.56   13.85
  -2  12  -7   34.64    7.24
   2  12  -7   31.50    7.26
  -2  12   7   37.40    7.23
   2  12   7   38.18    7.04
  -2 -12  -7   33.34    7.97
   2 -12  -7   47.41    7.21
   2 -12   7   26.38    6.45
  -2 -12   7   45.15    7.27
  -2  12  -8    7.04    2.29
   2  12  -8    7.05    2.22
  -2  12   8    3.16    1.81
   2  12   8    8.06    3.13
  -2 -12  -8   23.15    4.45
   2 -12  -8   11.64    5.56
  -2 -12   8   10.32    4.46
  -2  12  -9    3.70    1.51
  -2  12   9   12.49    3.96
   2  12   9    6.31    2.23
  -2 -12  -9    4.33    1.87
   2 -12  -9    6.90    2.05
   2 -12   9    7.38    3.56
  -2 -12   9    6.00    1.82
  -2  12  10   10.18    4.00
   2  12  10    4.17    2.90
  -2 -12 -10    6.78    1.93
   2 -12 -10    1.84    2.33
   2 -12  10   10.56    5.30
  -2 -12  10    8.71    3.97
  -2  12  11    3.98    1.70
   2  12  11    0.94    2.44
  -2 -12 -11    3.85    1.52
   2 -12 -11    7.40    2.62
   2 -12  11   17.16    6.06
  -2 -12  11    6.42    3.68
  -2  12  12    6.91    2.83
   2  12  12    2.12    2.82
  -2 -12 -12    4.17    1.96
   2 -12 -12    5.50    2.61
   2 -12  12    9.24    4.13
  -2 -12  12    6.05    3.69
  -2  12  13   -0.92    2.75
   2  12  13    5.10    2.80
  -2 -12 -13    0.20    1.04
   2 -12 -13    2.73    2.07
   2 -12  13    1.87    3.57
  -2 -12  13    3.31    3.02
  -2  12  14    8.68    2.77
   2  12  14    2.63    1.46
   2 -12 -14   10.67    4.31
   2 -12  14    8.64    5.39
  -2 -12  14    1.73    3.12
  -2  12  15    1.45    1.37
   2  12  15    4.82    2.09
   2 -12 -15    4.52    2.84
   2 -12  15    2.62    3.32
  -2 -12  15    2.34    3.27
  -2  12  16   -0.53    2.47
   2  12  16   -1.41    2.85
   2 -12 -16    4.24    2.08
   2 -12  16   11.75    4.50
  -2  13   0  119.28   33.08
   2  13   0  130.01   18.18
   2 -13   0  113.06   10.06
  -2 -13   0  116.04   11.87
  -2  13  -1   38.48    7.82
  -2  13   1   38.13    9.87
   2  13  -1   38.06    8.45
   2  13   1   47.69    6.87
   2 -13  -1   52.40    5.73
  -2 -13  -1   33.94    6.75
   2 -13   1   32.00    7.45
  -2 -13   1   46.65   12.67
  -2  13  -2   33.45    8.12
  -2  13   2   36.35    8.14
   2  13  -2   42.63    8.65
   2  13   2   32.73    7.90
   2 -13  -2   33.33    7.39
  -2 -13  -2   40.53    7.86
   2 -13   2   44.81    9.64
  -2 -13   2   29.91    6.85
  -2  13  -3   34.15    8.38
  -2  13   3   31.03    7.59
   2  13  -3   41.12    7.41
   2  13   3   40.48    8.63
   2 -13  -3   50.22    7.65
  -2 -13  -3   33.30    8.59
   2 -13   3   35.52    7.72
  -2 -13   3   43.19    6.64
  -2  13  -4   37.25    6.37
  -2  13   4   25.06    6.10
   2  13  -4   22.68    6.51
   2  13   4   47.45    7.32
   2 -13  -4   42.58    6.87
  -2 -13  -4   33.53    8.47
   2 -13   4   26.54    5.81
  -2 -13   4   45.19    6.96
  -2  13  -5    1.70    1.14
  -2  13   5    3.46    1.74
   2  13  -5    9.10    2.99
   2  13   5    1.92    2.67
  -2 -13  -5    2.89    2.48
   2 -13  -5    2.88    2.63
   2 -13   5    7.56    4.30
  -2 -13   5   11.36    4.91
  -2  13  -6   14.74    3.72
   2  13  -6   12.36    3.81
  -2  13   6    7.76    3.53
   2  13   6   14.84    4.85
   2 -13  -6   11.69    3.90
  -2 -13  -6   11.67    3.74
   2 -13   6    8.73    4.23
  -2 -13   6    5.93    3.13
  -2  13  -7    3.29    1.13
   2  13  -7    2.19    1.29
  -2  13   7    4.44    2.76
   2  13   7    4.40    2.94
  -2 -13  -7    6.65    2.14
   2 -13  -7    5.77    3.97
   2 -13   7   12.59    6.69
  -2 -13   7    5.01    3.00
  -2  13  -8   40.98    7.99
   2  13  -8   34.15    6.05
  -2  13   8   42.07    6.92
   2  13   8   83.04    9.00
  -2 -13  -8   36.65    9.56
   2 -13  -8   64.08    9.61
   2 -13   8   51.74    7.87
  -2 -13   8   57.97    8.80
  -2  13   9   34.14    7.32
   2  13   9   39.87    7.88
  -2 -13  -9   20.05    7.31
   2 -13  -9   48.27    9.66
  -2 -13   9   14.71    4.29
  -2  13  10   94.86   11.45
   2  13  10   82.82   12.68
  -2 -13 -10   46.73   10.28
   2 -13  10   70.12    7.99
  -2 -13  10   86.97    9.79
  -2  13  11   47.56    7.32
   2  13  11   59.67    8.44
  -2 -13 -11   31.05    8.10
   2 -13 -11   38.43   10.11
   2 -13  11   67.04    7.51
  -2 -13  11   43.52    4.97
  -2  13  12  117.12   21.23
   2  13  12  116.02   20.80
   2 -13 -12  112.77   16.90
   2 -13  12  102.48   14.17
  -2 -13  12  111.54   16.01
   2  13  13   28.35    4.76
   2 -13 -13   29.20    4.77
   2 -13  13   19.18    6.43
  -2 -13  13   45.72    7.87
   2  13  14   16.68    5.77
   2 -13  14   20.82    5.43
  -2 -13  14   29.20    6.38
  -2  13  15    5.01    3.66
   2  13  15   10.77    3.92
   2 -13 -15   -0.63    1.74
   2 -13  15    6.71    3.16
  -2 -13  15    7.26    5.00
  -2  14   0  170.92   17.06
   2  14   0  173.65   14.47
   2 -14   0  165.94   11.71
  -2 -14   0  155.20   13.93
  -2  14  -1   70.74    9.05
  -2  14   1   83.37    9.83
   2  14  -1   78.13   14.91
   2  14   1   75.33   11.50
   2 -14  -1   67.88    8.81
  -2 -14  -1   75.67    7.81
   2 -14   1   85.50   13.61
  -2 -14   1   63.93    6.68
  -2  14  -2  104.64    8.16
  -2  14   2  101.75   13.93
   2  14  -2   99.15   10.65
   2  14   2  114.95   15.25
   2 -14  -2  101.24   12.40
  -2 -14  -2  100.36    9.33
   2 -14   2  106.65    8.96
  -2 -14   2   86.52    6.73
  -2  14  -3   17.82    4.03
  -2  14   3   16.59    4.67
   2  14  -3   19.78    4.47
   2  14   3   15.71    3.86
   2 -14  -3   17.63    4.06
  -2 -14  -3   20.64    4.23
   2 -14   3   43.50    8.23
  -2 -14   3   22.73    4.86
  -2  14  -4   20.10    5.16
  -2  14   4   21.07    5.90
   2  14  -4   21.76    6.05
   2  14   4   18.57    5.47
   2 -14  -4   23.69    6.26
  -2 -14  -4   26.67    6.45
   2 -14   4   27.82    7.81
  -2 -14   4   34.68    6.57
  -2  14  -5   57.16    9.73
   2  14  -5   44.75    8.00
  -2  14   5   46.67    7.34
   2  14   5   54.85    9.55
   2 -14  -5   63.09    9.17
  -2 -14  -5   47.27    6.69
   2 -14   5   67.16    7.59
  -2 -14   5   54.23    8.07
  -2  14  -6   26.93    5.85
   2  14  -6   36.98    7.48
  -2  14   6   34.24    6.87
   2  14   6   25.46    5.68
   2 -14  -6   34.84    7.05
  -2 -14  -6   42.16    7.59
   2 -14   6   48.71   10.14
  -2 -14   6   40.40    7.78
  -2  14  -7   53.74   11.68
   2  14  -7   35.53    7.16
  -2 -14  -7   35.91    8.58
   2 -14  -7   48.02   10.74
   2 -14   7   42.19    8.19
  -2 -14   7   72.78    7.66
  -2  14  -8   21.85    4.51
  -2  14   8   20.61    5.13
   2  14   8   30.63    6.48
  -2 -14  -8   17.40    3.72
   2 -14  -8   17.73    4.35
   2 -14   8   27.76    6.24
  -2 -14   8   14.11    4.05
  -2  14   9    9.57    3.48
   2  14   9   17.84    4.92
  -2 -14  -9    6.83    1.88
   2 -14  -9   24.85    7.06
   2 -14   9   12.97    4.78
  -2 -14   9   14.49    5.71
  -2  14  10   46.52    8.89
   2  14  10   20.80    5.09
  -2 -14 -10   43.97    5.95
  -2 -14  10   27.67    6.94
  -2  14  11   10.60    4.53
   2  14  11   20.18    6.61
   2 -14 -11   17.68    4.80
   2 -14  11    9.83    3.70
  -2 -14  11   21.78    5.97
  -2  14  12   16.52    5.41
   2  14  12   15.58    4.95
   2 -14 -12    8.67    3.59
   2 -14  12   43.12    6.31
  -2 -14  12    5.56    3.29
  -2  14  13   21.91    5.54
   2  14  13    7.89    3.49
   2 -14 -13    5.67    2.39
   2 -14  13    1.04    3.55
  -2 -14  13   11.95    3.87
  -2  14  14   13.74    5.39
   2  14  14   15.73    5.41
   2 -14 -14    3.27    2.68
   2 -14  14   21.76    7.41
  -2 -14  14   21.79    6.48
  -2  15   0    5.67    3.35
   2  15   0   -0.59    2.28
   2 -15   0    6.19    3.55
  -2 -15   0   16.36    5.72
  -2  15  -1  113.77   14.77
  -2  15   1  116.75   17.73
   2  15  -1  119.73   13.90
   2  15   1  112.60   14.91
   2 -15  -1  120.93   10.94
  -2 -15  -1  114.35    9.70
   2 -15   1  118.53   10.28
  -2 -15   1  109.22    9.84
  -2  15  -2   57.10   13.09
  -2  15   2   62.34    7.63
   2  15  -2   80.29    9.54
   2  15   2   57.93    7.25
   2 -15  -2   88.86    8.98
  -2 -15  -2   74.99    7.09
   2 -15   2   64.19    6.93
  -2 -15   2   77.05    8.41
  -2  15  -3   22.61    5.55
  -2  15   3   29.65    6.42
   2  15  -3   32.25    6.79
   2  15   3   22.98    5.73
   2 -15  -3   24.68    6.11
  -2 -15  -3   24.65    6.62
   2 -15   3   22.82    5.51
  -2 -15   3   40.01    7.63
  -2  15  -4    7.78    2.85
  -2  15   4   10.44    4.84
   2  15  -4    6.72    2.05
   2  15   4   19.03    4.90
   2 -15  -4   10.84    3.95
  -2 -15  -4   13.68    3.55
   2 -15   4   19.63    5.16
  -2 -15   4   19.93    4.68
  -2  15  -5   21.14    4.31
  -2  15   5   15.03    5.64
   2  15  -5   22.60    4.51
   2  15   5   29.46    6.90
   2 -15  -5   13.30    4.95
  -2 -15  -5   12.80    3.66
   2 -15   5   21.76    4.76
  -2 -15   5   24.97    5.27
  -2  15  -6   61.48    7.77
   2  15  -6   36.80    6.67
  -2  15   6   34.86    8.67
   2  15   6   68.06    8.85
  -2 -15  -6   47.35    5.01
   2 -15  -6   62.68    7.45
   2 -15   6   41.31    7.77
  -2 -15   6   69.11    7.59
  -2  15  -7   28.49    8.22
   2  15   7   26.94    7.75
  -2 -15  -7   24.44    6.30
   2 -15  -7   30.63    8.92
   2 -15   7   35.75    4.68
  -2 -15   7   37.55    4.64
  -2  15   8   24.99    5.61
  -2 -15  -8   18.30    4.67
   2 -15  -8   36.83    9.31
   2 -15   8   15.30    4.99
  -2 -15   8   22.65    5.62
  -2  15   9   31.99    7.75
   2  15   9   36.39    6.82
  -2 -15  -9   25.02    5.72
   2 -15  -9   54.05    9.10
   2 -15   9   55.67   10.05
  -2 -15   9   47.73    8.59
  -2  15  10   11.85    4.83
   2  15  10   13.31    4.63
   2 -15 -10    5.39    3.16
   2 -15  10   15.18    4.81
  -2 -15  10   12.81    4.76
  -2  15  11   30.80    6.66
   2  15  11   31.55    6.11
   2 -15  11   20.26    5.21
  -2 -15  11   43.93    7.59
  -2  15  12   32.80    7.67
   2  15  12   27.84    6.60
   2 -15 -12   15.07    4.93
  -2 -15  12   31.39    7.63
  -2  15  13   18.37    6.57
   2  15  13   17.24    5.60
   2 -15 -13    7.57    2.86
   2 -15  13   17.09    6.13
  -2 -15  13   26.02    7.78
  -2  16   0  174.83   33.32
   2  16   0  177.21   34.10
   2 -16   0  186.01   35.13
  -2 -16   0  153.66   12.87
  -2  16  -1   20.76    4.56
  -2  16   1   28.47    5.85
   2  16  -1   33.43    6.32
   2  16   1   35.01    6.68
   2 -16  -1   31.12    6.26
  -2 -16  -1   27.09    4.88
   2 -16   1   34.19    6.60
  -2 -16   1   24.01    4.95
  -2  16  -2   73.77    8.26
  -2  16   2   59.88   10.26
   2  16  -2   51.94    6.55
   2  16   2   60.54    7.16
   2 -16  -2   63.75   10.28
  -2 -16  -2   40.58    7.87
   2 -16   2   46.41    5.07
  -2 -16   2   57.64    9.78
  -2  16  -3    9.77    3.47
  -2  16   3    5.84    2.51
   2  16  -3   10.86    3.80
   2  16   3    5.74    2.92
   2 -16  -3   14.06    5.86
  -2 -16  -3   13.76    4.20
   2 -16   3    4.34    4.30
  -2 -16   3    5.58    2.85
  -2  16  -4    6.82    1.69
  -2  16   4   14.38    4.89
   2  16  -4   15.43    4.57
   2  16   4   11.03    4.35
  -2 -16  -4   15.47    4.53
   2 -16  -4    6.02    3.53
   2 -16   4   14.79    4.50
  -2 -16   4   14.43    5.64
  -2  16  -5    2.27    1.29
   2  16  -5    1.09    0.92
  -2  16   5    4.69    3.06
   2  16   5   -1.70    2.59
  -2 -16  -5    6.02    2.31
   2 -16  -5    0.92    2.41
   2 -16   5    3.14    2.31
  -2 -16   5    6.75    4.65
  -2  16  -6    2.29    1.45
   2  16  -6   -0.68    1.21
  -2  16   6   17.54    5.81
   2  16   6    2.28    2.59
   2 -16  -6    8.20    3.20
  -2 -16  -6    1.90    1.64
   2 -16   6    3.81    3.45
  -2 -16   6    4.42    3.10
  -2  16   7   10.10    4.44
   2  16   7   12.75    4.59
  -2 -16  -7    6.46    2.53
   2 -16  -7   -1.20    2.28
   2 -16   7   12.77    5.07
  -2 -16   7    6.74    2.62
  -2  16   8    7.11    2.92
   2  16   8    8.96    3.34
   2 -16   8    1.78    3.65
  -2 -16   8   11.52    4.56
  -2  16   9   22.77    6.41
   2  16   9   17.57    4.82
   2 -16  -9   12.59    3.73
   2 -16   9   22.94    5.97
  -2 -16   9   12.76    4.91
  -2  16  10   33.87    7.53
   2  16  10   17.01    4.94
   2 -16 -10   23.68    4.78
   2 -16  10   22.44    5.74
  -2 -16  10   33.54    6.98
  -2  16  11    3.82    3.08
   2  16  11   16.34    6.64
   2 -16 -11    9.85    3.63
   2 -16  11   13.63    5.94
  -2 -16  11   16.89    4.86
  -2  17   0    4.05    2.12
   2  17   0    6.43    2.34
   2 -17   0   10.45    3.94
  -2 -17   0    5.12    3.19
  -2  17  -1    7.42    3.67
  -2  17   1    2.32    2.43
   2  17  -1   13.91    4.39
   2  17   1    3.85    2.54
   2 -17  -1   16.50    5.41
  -2 -17  -1    6.69    3.02
   2 -17   1   12.61    4.28
  -2 -17   1    4.16    2.48
  -2  17  -2    4.78    2.17
  -2  17   2    4.81    2.46
   2  17  -2    7.16    2.62
   2  17   2   -0.66    2.51
   2 -17  -2    5.67    3.20
  -2 -17  -2    9.44    3.04
   2 -17   2    6.14    3.06
  -2 -17   2    5.76    3.86
  -2  17  -3   11.57    3.64
  -2  17   3    4.91    2.82
   2  17  -3   16.43    5.22
   2  17   3    9.63    3.97
   2 -17  -3    2.39    2.59
  -2 -17  -3    8.08    3.00
   2 -17   3   11.01    4.93
  -2 -17   3   21.84    6.52
  -2  17  -4   19.95    5.50
  -2  17   4   19.66    5.22
   2  17  -4    8.53    2.64
   2  17   4   18.04    5.67
   2 -17  -4    8.93    3.12
  -2 -17  -4    9.99    3.36
   2 -17   4   25.86    7.32
  -2 -17   4   17.46    4.88
   2  17  -5   21.96    5.99
  -2  17   5   38.98    6.55
   2  17   5   38.71    6.52
   2 -17  -5   27.37    4.89
  -2 -17  -5   18.40    5.15
   2 -17   5   38.24    6.93
  -2 -17   5   31.27    4.82
  -2  17  -6   19.64    6.19
  -2  17   6   38.57    6.61
   2  17   6   16.62    5.49
   2 -17  -6   12.99    4.66
   2 -17   6   37.13    6.48
  -2 -17   6   19.48    5.64
  -2  17   7   54.55   11.94
   2  17   7   58.22   11.95
   2 -17  -7   47.94    8.04
   2 -17   7   44.40    7.66
  -2 -17   7   78.83   13.26
  -2  17   8   30.56    7.61
   2  17   8   24.39    5.87
   2 -17  -8   17.01    7.22
   2 -17   8   41.84   10.23
  -2 -17   8   26.61    6.53
  -2  17   9   13.79    5.69
   2 -17   9   11.66    4.46
  -2 -17   9   20.28    5.38
  -2  18   0    9.14    3.82
   2 -18   0   -0.57    2.93
  -2 -18   0    3.60    2.45
  -2  18  -1    2.02    1.32
  -2  18   1   11.86    3.47
   2  18  -1    1.58    3.02
   2  18   1    6.09    3.38
   2 -18  -1   10.03    4.52
  -2 -18  -1    1.04    2.09
   2 -18   1    6.13    4.43
  -2 -18   1    7.90    2.85
  -2  18  -2    4.50    2.36
  -2  18   2   13.24    4.83
   2  18  -2   13.23    4.38
   2  18   2    1.91    1.28
   2 -18  -2    6.18    3.98
  -2 -18  -2    5.30    2.32
   2 -18   2   11.71    4.74
  -2 -18   2   17.57    5.35
  -2  18  -3   12.11    3.53
  -2  18   3    3.53    2.67
   2  18  -3    9.70    3.08
   2  18   3    0.93    2.71
   2 -18  -3    1.27    2.65
  -2 -18  -3    6.91    2.23
   2 -18   3   -1.69    2.77
  -2 -18   3   10.57    4.34
  -2  18  -4    8.13    3.32
  -2  18   4    5.83    3.00
   2  18  -4    3.08    2.02
   2  18   4    9.69    3.27
   2 -18  -4   -0.14    2.30
  -2 -18  -4    2.79    1.90
   2 -18   4    3.69    3.10
  -2 -18   4    8.46    3.26
  -2  18  -5    9.88    3.45
  -2  18   5   11.77    4.23
   2  18   5    3.05    2.30
   2 -18  -5   -0.29    2.25
   2 -18   5    7.40    3.72
  -2 -18   5   12.93    5.22
  -2  18   6    2.15    2.59
   2  18   6    6.69    2.68
   2 -18  -6    7.06    2.76
   2 -18   6   15.20    5.15
  -2 -18   6    0.23    2.14
  -2  18   7    8.56    3.42
   2  18   7    3.75    2.90
   2 -18  -7    4.21    3.62
   2 -18   7    3.91    3.38
  -2 -18   7   -0.25    2.71
  -2  19   0    4.78    2.55
   2  19   0    7.61    3.06
   2 -19   0   11.97    5.13
  -2 -19   0    9.78    3.80
  -2  19  -1    4.27    2.36
  -2  19   1    7.25    3.31
   2  19  -1    3.96    3.28
   2  19   1    3.81    2.74
   2 -19  -1   -0.58    2.88
  -2 -19  -1    0.40    2.02
   2 -19   1   11.32    4.05
  -2 -19   1    2.79    2.38
  -2  19  -2    6.82    3.64
  -2  19   2    5.57    2.93
   2  19  -2    4.89    1.65
   2  19   2   -1.93    2.67
  -2 -19  -2   12.86    4.31
   2 -19  -2    6.65    3.13
   2 -19   2   11.50    5.46
  -2 -19   2    6.05    3.57
  -2  19  -3    2.34    1.09
  -2  19   3    8.24    3.73
   2  19  -3    3.02    1.55
   2  19   3    3.33    1.57
   2 -19  -3    2.62    2.52
   2 -19   3   10.42    5.13
  -2 -19   3    5.66    2.81
  -3   0   0    0.55    1.01
   3   0   0    5.76    1.55
  -3   0   0    1.21    0.71
   3   0   1   43.92    4.48
  -3   0   1   48.14    5.82
   3   0  -1   47.00    4.79
  -3   0  -1   40.90    4.09
   3   0   2 2779.93   37.39
  -3   0   2 2809.52   37.81
   3   0  -2 2812.76   37.93
  -3   0   2 2688.44   36.21
  -3   0  -2 2817.04   37.49
  -3   0  -3  301.62   13.03
   3   0   3  274.61    9.78
   3   0  -3  286.11   10.14
   3   0  -3  260.95    9.44
   3   0   3  300.54   10.54
  -3   0  -3  297.34   10.43
  -3   0  -4  232.93    8.45
  -3   0   4  225.97    8.37
   3   0  -4  221.77    7.92
   3   0   4  251.84    8.88
   3   0  -4  238.16    8.89
  -3   0   4  222.20    8.14
   3   0   4  233.72    8.34
  -3   0  -5  333.91   12.01
   3   0   5  314.06   11.15
  -3   0   5  337.52   11.95
   3   0  -5  315.08   11.07
   3   0   5  348.40   12.19
   3   0  -5  340.46   12.38
   3   0   5  327.64   11.59
  -3   0  -6 1233.76  150.17
   3   0   6 1121.48   30.96
  -3   0   6 1208.13   33.24
   3   0  -6 1198.85   32.82
   3   0   6 1259.68  153.29
   3   0  -6 1264.23  153.95
  -3   0  -7  704.00   19.69
   3   0   7  672.92   18.75
  -3   0   7  717.13   19.94
   3   0  -7  696.78   19.26
  -3   0  -7  716.05   19.92
   3   0   7  718.35   20.05
  -3   0  -8   99.05    8.24
   3   0   8   87.18    7.89
  -3   0   8  102.13    7.50
   3   0  -8   92.08    6.69
  -3   0  -8   93.76    6.93
   3   0   8   94.47    7.58
   3   0  -8  106.01    9.39
   3   0   9  180.91   13.27
  -3   0   9  200.54   14.61
   3   0  -9  196.09   13.90
  -3   0  -9  209.07   15.22
  -3   0  10   31.04    4.70
   3   0 -10   25.70    4.58
   3   0  10   29.59    6.12
  -3   0 -10   32.01    5.49
   3   0 -10   35.22    5.47
  -3   0  11   26.37    4.27
   3   0 -11   15.10    4.62
   3   0  11   23.54    6.35
  -3   0 -11   30.61    4.70
   3   0 -11   26.88    5.43
  -3   0  12   -0.10    0.96
   3   0  12   -0.46    1.39
   3   0 -12   -0.04    0.78
  -3   0 -12   -1.37    1.46
   3   0 -12    6.91    2.08
  -3   0  13   12.62    3.36
   3   0  13   16.57    4.26
   3   0 -13   10.09    2.52
  -3   0 -13   17.29    5.03
   3   0 -13   20.05    5.62
   3   0  14  104.41    8.86
  -3   0 -14  127.52   11.75
   3   0 -14   93.76   11.92
  -3   0  15    3.28    1.28
   3   0  15    1.68    1.90
  -3   0 -15    6.08    2.39
   3   0 -15    6.04    2.39
   3   0  16    7.20    2.34
  -3   0 -16    2.76    1.56
   3   0 -16    8.20    2.97
   3   0 -17   40.76    9.31
  -3   0 -18    0.72    1.41
   3   0 -18    5.48    2.53
   3   0 -19   22.41    7.49
   3   0 -20   11.07    3.74
   3   0  20    6.84    2.96
  -3  -1   0   49.77    6.55
  -3   1   0   34.52    5.10
   3  -1   0   35.95    5.59
  -3  -1   0   41.49    4.09
   3  -1   0   36.35    3.72
  -3   1   0   38.65    3.87
  -3  -1  -1   45.80    5.18
  -3  -1   1   66.84    6.67
   3   1  -1   47.82    5.02
  -3   1  -1   73.14    7.30
   3  -1   1   44.73    6.42
  -3   1   1   45.75    6.49
   3  -1  -1   66.92    7.18
   3   1  -1   38.38    3.93
  -3  -1   1   63.31    6.21
   3   1   1   64.66    6.24
   3  -1  -1   73.21    7.40
  -3   1   1   39.60    4.05
  -3  -1  -1   41.85    4.08
   3  -1   1   44.06    4.47
   3   1   2  366.78   12.88
  -3  -1   2  374.87   13.14
  -3   1  -2  396.13   13.98
   3  -1   2  351.68   12.42
   3   1  -2  329.80   11.57
  -3   1   2  338.52   12.06
   3  -1  -2  373.59   13.19
   3   1  -2  342.87   12.38
   3  -1  -2  385.73   13.62
   3   1   2  380.44   13.06
   3  -1   2  362.79   12.70
  -3   1  -2  387.27   13.49
  -3  -1  -2  356.32   12.24
   3   1   3  891.83   12.67
  -3  -1   3  905.47   12.93
   3   1  -3  903.44   12.58
  -3   1   3  953.45   13.61
   3  -1  -3  916.28   13.01
   3   1   3  869.22   11.77
   3   1  -3  987.66   14.19
  -3  -1   3  875.22   12.51
   3  -1  -3  952.30   13.81
   3   1   3  972.01   13.18
  -3   1  -3  951.85   13.25
   3   1   4  432.85    6.74
  -3   1  -4  457.17    7.32
   3  -1   4  422.88   45.44
  -3  -1   4  424.54   45.59
   3   1  -4  415.09   44.56
  -3   1   4  442.29    7.11
   3  -1  -4  422.47   45.42
   3   1   4  454.48    6.75
   3   1  -4  455.97    8.01
   3  -1  -4  439.66    7.55
  -3   1   4  405.26   43.59
   3  -1   4  439.59    6.85
   3   1   4  455.55    6.60
  -3  -1  -5    2.26    0.67
   3   1   5    5.93    0.95
  -3   1  -5   10.49    2.09
   3  -1   5    6.43    1.11
  -3  -1   5    5.11    0.88
  -3   1   5    2.38    0.70
   3   1  -5    4.81    1.10
   3  -1  -5    7.44    1.34
  -3  -1  -5    5.75    0.86
   3  -1   5    6.76    1.45
   3   1   5    5.43    1.18
   3   1  -5    7.58    1.53
  -3  -1   5    5.78    1.12
  -3   1   5    3.80    0.89
   3  -1   5    5.31    2.60
  -3  -1  -6  184.80   10.61
  -3   1  -6  184.99   10.31
   3   1   6  187.14   10.56
   3  -1   6  175.37    9.81
  -3  -1   6  186.05   10.59
  -3   1   6  185.39   10.41
   3   1  -6  178.83    9.88
   3  -1  -6  189.57   10.55
  -3  -1  -6  189.67   10.51
   3  -1   6  182.79   10.14
   3   1  -6  174.64   10.02
   3   1   6  190.28   10.55
   3  -1   6  184.84   10.37
  -3  -1  -7  131.98    9.18
  -3   1  -7  134.57    7.63
   3   1   7  122.76    8.91
   3  -1   7  118.84    8.34
  -3  -1   7  132.42    7.72
  -3   1   7  131.93    7.60
   3   1  -7  123.19    6.96
   3  -1  -7  124.11    7.09
  -3  -1  -7  131.62    7.61
   3  -1   7  125.57    7.66
   3   1  -7  112.54    9.24
   3   1   7  137.31    7.86
   3  -1   7  129.42    7.56
  -3   1  -8  125.78   10.07
   3   1   8  111.50    9.53
   3  -1   8  121.02    8.73
  -3  -1   8  122.01    8.76
  -3   1   8  138.84   10.08
   3  -1  -8  124.34    9.01
   3   1  -8  136.30    9.73
   3   1   8  130.06   10.15
  -3  -1  -8  151.16   11.11
   3   1  -8  141.12   15.59
   3   1   8  123.07    9.49
   3  -1   8  130.55    9.57
  -3   1  -9  396.04   12.08
   3  -1   9  373.98   11.40
  -3  -1   9  399.51   12.02
  -3   1   9  437.88   13.50
   3  -1  -9  363.92   11.12
   3   1  -9  427.77   12.76
   3   1   9  394.83   12.32
  -3   1  -9  399.64   12.38
  -3  -1  -9  451.81   13.87
   3   1  -9  427.75   13.70
   3  -1  -9  392.77   12.73
   3   1   9  350.15   10.88
   3  -1  10  140.65   13.87
  -3  -1  10  143.01   13.57
  -3   1  10  180.31    7.86
   3  -1 -10  126.75   11.54
   3   1 -10  167.82    6.97
   3   1  10  135.55   12.30
  -3   1 -10  132.25   12.01
  -3  -1 -10  186.00    8.45
   3   1 -10  173.14    9.63
   3  -1 -10  139.97   18.28
   3  -1  11  145.96   11.20
  -3  -1  11  136.21   10.55
  -3   1  11  197.77   33.15
   3  -1 -11  126.38    9.75
   3   1  11  135.21   10.80
   3   1 -11  181.71   13.78
   3  -1  11  184.42   14.17
  -3   1 -11  135.11   10.93
  -3  -1 -11  212.25   11.22
   3  -1 -11  140.82   18.78
  -3  -1  12  492.05   22.68
  -3   1  12  564.12   26.22
   3   1  12  506.97   23.72
   3  -1  12  566.11   26.38
   3   1 -12  537.16   24.76
  -3   1 -12  520.63   24.63
  -3  -1 -12  600.64   28.17
   3   1 -12  574.47   27.32
   3  -1 -12  486.12   25.51
  -3  -1  13   25.07    6.51
  -3  -1  13   37.08    6.45
  -3   1  13   36.99    6.27
   3   1  13   32.20    8.46
   3  -1  13   40.68    6.19
  -3   1 -13   43.94    8.58
  -3  -1 -13   39.52    7.71
   3   1 -13   35.82    6.84
   3  -1 -13   44.68    9.25
  -3  -1  14  220.12   12.30
  -3   1  14  269.14   15.30
   3   1  14  237.67   13.53
   3  -1  14  246.98   13.89
  -3   1 -14  236.78   14.11
  -3  -1 -14  271.97   18.30
   3   1 -14  261.69   15.45
   3  -1 -14  242.09   25.24
  -3   1  15   99.13   11.77
   3   1  15   76.15   12.45
   3  -1  15  110.43    8.81
  -3   1 -15   80.71   14.97
  -3  -1 -15  122.44    9.21
   3   1 -15  106.19   12.02
   3  -1 -15   74.36   12.12
  -3   1  16  155.81   13.34
   3  -1  16  177.49   10.06
   3   1  16  160.16   11.25
  -3   1 -16  153.14    9.39
  -3  -1 -16  177.41   15.62
   3   1 -16  174.53   18.13
   3  -1 -16  139.22   22.55
  -3  -1 -17   11.18    3.33
   3   1 -17   13.19    4.51
   3  -1 -17    8.13    2.50
  -3  -1 -18   29.68    6.40
   3   1 -18   32.08    8.56
   3  -1 -18   16.60    4.59
   3  -1  18   37.54    7.55
  -3  -1 -19    4.23    1.44
   3   1 -19    4.06    2.15
   3  -1 -19    6.12    2.94
   3  -1  19   -2.67    2.42
  -3  -1 -20    7.73    2.62
   3   1 -20    6.36    3.46
   3  -1 -20    4.63    2.16
   3  -1  20   -0.15    2.40
  -3  -2   0  150.36    7.39
   3   2   0  150.92    7.36
   3  -2   0  143.39    7.69
   3   2   0  118.68    4.29
  -3  -2   0  115.59    4.18
   3  -2   0  147.10    7.47
   3   2   1  738.60   10.65
  -3  -2   1  746.14   10.67
   3   2  -1  761.66   10.77
   3  -2   1  757.70   11.02
  -3   2   1  768.35   11.41
  -3  -2   1  679.40    9.58
   3  -2  -1  724.63   10.57
  -3   2   1  739.27   10.64
  -3   2  -1  710.03   10.13
  -3  -2  -2  609.91    9.18
   3   2   2  631.86   10.27
   3   2  -2  621.12    8.91
  -3   2   2  646.64    9.84
   3   2  -2  658.05    9.61
   3  -2  -2  660.79    9.92
   3  -2   2  606.10    8.97
   3   2   3 1119.85   15.75
  -3  -2   3 1150.25   15.80
  -3   2  -3 1176.43   16.54
  -3   2   3 1078.34   15.28
  -3   2  -3 1173.43   16.28
   3   2   4  193.00   10.80
  -3  -2   4  180.56    6.48
  -3   2  -4  190.92    7.04
   3   2  -4  253.24    8.89
   3  -2  -4  185.78    6.96
  -3  -2  -4  225.96    7.88
   3   2  -4  256.81    9.40
  -3  -2   4  182.00    6.77
   3   2   4  173.24    6.13
  -3   2   4  230.02    8.55
  -3   2  -4  186.65    6.83
  -3   2  -5  151.88    7.11
  -3  -2   5  138.03    5.08
   3  -2   5  161.68    6.05
   3   2  -5  174.50    6.20
  -3   2   5  178.69    6.91
   3  -2  -5  142.23    6.41
   3  -2   5  183.12    6.80
  -3  -2  -5  189.95    6.77
   3   2  -5  182.01    8.47
   3   2   5  139.44    5.11
   3  -2  -5  153.02    6.40
  -3   2   5  163.68    6.24
   3  -2   5  197.91    7.48
  -3  -2  -6  215.17   12.01
   3   2   6  168.17   10.10
  -3   2  -6  177.29   10.08
  -3  -2   6  173.80    9.59
   3  -2   6  207.86   13.05
  -3   2   6  227.83   13.15
   3   2  -6  228.71   12.51
   3  -2  -6  178.54   10.08
   3  -2   6  237.88   13.15
  -3  -2  -6  240.05   13.17
   3   2  -6  239.37   17.31
   3   2   6  159.84    8.89
   3  -2   6  219.81   12.33
   3   2   7  203.10   12.33
  -3   2  -7  215.69   11.93
   3  -2   7  271.02   14.93
  -3  -2   7  206.96   11.43
  -3   2   7  276.00   15.98
   3   2  -7  270.61   14.75
   3  -2  -7  197.77   11.08
   3   2   7  214.05   12.17
   3  -2   7  276.12   15.22
  -3  -2  -7  292.75   16.21
   3   2  -7  292.97   16.44
   3   2   7  194.66   10.82
   3  -2   7  271.02   15.15
  -3   2  -8   89.96    7.85
   3  -2   8   85.53    6.30
  -3  -2   8   77.19    8.84
  -3   2   8   96.06    7.97
   3  -2  -8   63.92    8.01
   3   2  -8   90.36    6.59
   3   2   8   81.67    6.77
  -3  -2  -8  101.88    8.32
   3   2  -8   90.82    8.56
   3  -2  -8   79.39    9.57
   3   2   8   70.25    8.77
   3  -2   8   94.88    7.27
  -3   2  -9  143.18   10.26
   3  -2   9  156.82   11.22
  -3  -2   9  146.67   10.40
  -3   2   9  174.60   12.73
   3  -2  -9  136.96    9.92
   3   2  -9  161.85   11.43
   3   2   9  146.25   10.75
  -3  -2  -9  183.07   13.12
   3   2  -9  189.08   16.80
   3  -2  -9  160.83   12.19
   3   2   9  130.80    9.43
   3  -2   9  154.71   11.59
  -3   2 -10  169.42    7.26
   3  -2  10  156.88   39.63
  -3  -2  10  157.82   39.85
  -3   2  10  182.29    8.09
   3   2  10  170.79    7.78
   3   2 -10  166.56    6.86
  -3  -2 -10  206.40   11.52
   3   2 -10  174.90   12.78
   3  -2 -10  175.89    8.31
   3  -2  10  168.26    7.87
  -3  -2  11   59.68    7.63
   3  -2  11   69.52    8.50
  -3  -2  11   60.16    7.87
  -3   2  11   88.77   16.90
   3   2  11   71.15    9.18
   3  -2  11   85.70   14.51
  -3  -2 -11   88.70   15.62
   3   2 -11   87.43   16.60
   3  -2 -11   64.17   12.02
   3  -2  11   87.85   17.51
  -3  -2  12  127.63    6.07
   3  -2  12  122.10   12.90
  -3  -2  12  128.31    6.26
  -3   2  12  162.47    8.39
   3   2  12  146.42    9.03
   3  -2  12  160.39    8.66
  -3  -2 -12  173.67   14.15
   3  -2 -12  150.32   15.86
   3  -2  12  160.31    9.39
  -3  -2  13   17.34    4.31
   3  -2  13   21.03    4.96
  -3  -2  13   18.71    4.58
  -3   2  13   24.85    6.11
   3   2  13   12.28    3.63
   3  -2  13   22.80    6.22
  -3  -2 -13   34.22    6.97
   3   2 -13   33.08    9.27
   3  -2 -13   33.02    9.47
   3  -2  13   25.57    6.51
  -3  -2  14   19.27    4.19
  -3   2  14   26.91    5.95
   3   2  14   34.58    6.79
   3  -2  14   24.26    5.19
  -3  -2 -14   28.67    6.93
   3   2 -14   31.19    6.83
   3  -2 -14   34.07    7.51
   3  -2  14   29.99    6.55
  -3   2  15   44.69    6.60
   3   2  15   27.83    5.49
   3  -2  15   33.49    7.35
  -3  -2 -15   37.40    9.69
   3   2 -15   43.23    9.15
   3  -2 -15   38.55    8.10
   3  -2  15   33.76    7.65
  -3   2  16   10.56    3.22
   3   2  16    5.87    2.35
  -3  -2 -16    7.63    2.58
   3   2 -16    3.58    1.83
   3  -2 -16   11.35    3.24
   3  -2  16   10.48    3.17
   3   2  17   35.58    7.53
  -3  -2 -17   36.65    8.42
   3   2 -17   34.18    7.30
   3  -2 -17   42.56    9.11
   3  -2  17   43.93    7.81
   3   2  18   39.76    5.63
  -3  -2 -18   24.74    7.42
   3   2 -18   29.16    6.50
   3  -2 -18   25.19    6.73
   3  -2  18   33.96    7.37
  -3  -2 -19    6.97    2.41
   3   2 -19    4.10    2.40
   3  -2 -19    9.30    3.24
   3  -2  19   12.97    4.96
  -3  -2 -20    4.62    1.65
   3   2 -20   13.06    4.61
   3  -2 -20   11.39    3.50
   3  -2  20    5.30    3.04
  -3  -3   0  413.66   44.63
  -3   3   0  415.02   44.67
   3  -3   0  403.81   14.45
   3   3   0  372.17   12.86
  -3  -3   0  377.43   13.05
   3  -3   0  437.19    7.38
  -3   3   0  400.46   14.08
  -3  -3  -1 1111.55   15.70
   3   3  -1 1098.09   15.24
  -3   3  -1  995.31   14.32
  -3   3   1 1122.16   16.19
   3  -3   1 1066.61   15.18
   3  -3  -1  979.56   13.99
   3   3  -1 1092.47   15.05
  -3  -3   1 1042.23   14.36
   3  -3  -1 1040.05   14.89
   3  -3   1 1141.51   16.21
  -3  -3  -1 1081.68   14.55
  -3  -3  -2   32.86    5.51
   3   3  -2   31.90    3.75
  -3   3   2   29.54    4.72
   3  -3  -2   48.24    8.80
  -3  -3  -2   24.56    2.54
  -3  -3   2   53.17    7.34
  -3   3   2   30.63    4.07
   3  -3   2   32.46    5.13
   3   3   3  886.86   12.89
  -3  -3   3  863.06   12.03
   3   3  -3  960.34   13.25
  -3   3  -3  873.95   12.67
   3  -3   3  941.40   13.90
   3  -3  -3  847.68   12.46
  -3  -3   3  862.24   12.36
  -3   3   3  964.77   13.89
   3   3   3  895.88   12.00
   3   3   4   87.51    9.89
  -3  -3   4  102.10    5.36
   3   3  -4   86.25    8.51
  -3   3  -4   83.30    8.22
   3  -3   4   82.33    8.09
  -3   3   4   87.00   11.34
   3  -3  -4   98.08    6.15
   3   3  -4   99.48    8.26
  -3  -3  -4   78.20    7.62
  -3  -3   4   98.68    5.37
   3  -3  -4   96.05    4.33
   3   3   4   93.75    3.43
  -3   3   4   81.68    8.10
   3  -3   4   91.17   10.28
  -3   3  -4   92.26    3.91
   3   3   5  214.74   12.31
  -3  -3   5  213.00   11.62
  -3   3  -5  216.01   11.95
   3   3  -5  224.32   12.22
   3  -3   5  211.27   11.86
   3  -3  -5  214.49   12.02
   3   3   5  227.17   12.92
   3   3  -5  243.16   13.67
  -3  -3  -5  225.66   12.37
   3   3   5  201.94   11.08
  -3   3   5  213.92   12.58
  -3   3  -5  216.48   12.05
  -3  -3   6  165.62    9.08
  -3   3  -6  172.34    9.87
   3  -3   6  165.40    9.27
   3   3  -6  169.56    9.29
  -3   3   6  169.46    9.83
   3  -3  -6  166.47    9.44
   3   3   6  183.62   10.64
   3  -3   6  173.08    9.75
   3   3  -6  178.85   10.26
  -3  -3  -6  175.24    9.69
   3  -3  -6  192.16   11.20
   3   3   6  157.96    8.78
  -3  -3   7  267.15   14.47
  -3   3  -7  291.04   15.99
   3  -3   7  263.73   15.05
  -3   3   7  275.65   15.55
   3   3  -7  271.52   14.72
   3  -3  -7  270.23   15.00
   3   3   7  299.96   36.82
   3   3  -7  292.30   17.09
  -3  -3  -7  279.67   15.36
   3   3   7  251.03   13.87
   3  -3   7  284.71   15.96
  -3  -3   8  136.47    9.54
  -3   3  -8  158.25   11.37
   3  -3   8  113.64    9.92
  -3   3   8  129.49    9.64
   3   3  -8  123.82    8.75
   3   3   8  141.85   10.51
   3   3  -8  124.73   11.58
  -3  -3  -8  137.68   10.46
   3  -3  -8  155.89   11.70
   3   3   8  135.78    9.77
   3  -3   8  105.19    8.05
  -3   3  -9  127.91   11.54
   3  -3   9   83.26    8.60
  -3   3   9  100.73    9.41
   3   3   9  121.89   11.24
   3   3  -9  108.07   13.10
  -3  -3  -9  101.96   10.23
   3  -3  -9  121.02   11.37
   3   3   9  110.23   10.03
   3  -3   9   99.92    9.64
  -3   3 -10  131.74   11.75
   3  -3  10  100.17   10.83
  -3   3  10  136.13   14.06
   3   3  10  132.18   14.28
   3   3 -10  156.09   40.64
  -3  -3 -10  167.25    9.49
   3  -3 -10  132.28   12.54
   3  -3  10  145.09   13.40
  -3   3 -11  262.01   13.74
   3  -3  11  226.81   11.66
  -3   3  11  274.94   14.45
   3   3  11  276.28   14.66
   3   3 -11  295.95   15.65
  -3  -3 -11  309.04   15.95
   3  -3 -11  262.30   16.16
   3  -3  11  283.80   15.12
   3  -3  12   97.58   10.67
  -3   3  12  131.75    7.22
   3   3  12  143.41   14.30
   3  -3  12  143.27    7.17
   3   3 -12  142.27   13.78
  -3  -3 -12  128.42   10.36
   3  -3 -12  156.77   17.35
   3  -3  12  131.42    7.62
   3  -3  13   25.36    4.97
  -3   3  13   23.12    5.77
   3   3  13   42.13    8.92
   3  -3  13   31.20    6.29
  -3  -3 -13   29.59    7.39
   3  -3 -13   40.86    9.41
   3  -3  13   37.10    7.50
  -3   3  14   10.29    3.63
   3   3  14    3.58    2.25
   3  -3  14    5.28    1.95
  -3  -3 -14    5.19    1.74
   3   3 -14    9.51    3.16
   3  -3 -14   10.54    3.63
   3  -3  14    5.91    3.25
  -3   3  15   56.73    6.72
   3   3  15   43.16    9.93
   3  -3  15   40.38    9.15
   3   3 -15   54.93    8.58
  -3  -3 -15   53.07    8.98
   3  -3 -15   40.76    9.85
   3  -3  15   51.88    6.54
  -3   3  16   87.28   13.13
   3   3  16   95.10   12.77
  -3  -3 -16  114.36   10.70
   3   3 -16  109.44   11.64
   3  -3 -16  102.44   17.56
   3  -3  16  122.78   10.37
  -3   3  17   38.55    3.59
   3   3  17   29.86    8.92
  -3  -3 -17   32.67    7.15
   3   3 -17   47.95    9.58
   3  -3 -17   25.89    7.91
   3  -3  17   51.94    5.72
   3   3  18   10.70    3.05
  -3  -3 -18   16.66    4.40
   3   3 -18   16.12    4.38
   3  -3 -18   13.23    3.92
   3  -3  18   17.73    5.66
  -3  -3 -19    6.13    1.67
   3   3 -19    2.68    2.39
   3  -3 -19    4.46    2.37
   3  -3  19    9.10    3.58
  -3  -3 -20   14.31    5.39
   3   3 -20   24.21    7.24
   3  -3 -20   23.66    6.47
   3  -3  20   32.82    7.40
  -3  -4   0    3.98    1.17
   3   4   0    3.95    1.09
   3  -4   0    3.03    1.04
  -3  -4   0    3.33    0.82
   3  -4   0    1.82    2.07
  -3   4   0    3.03    1.33
  -3  -4   0    0.16    0.83
  -3  -4   1   81.67    8.88
   3   4   1   75.79    8.03
   3   4  -1   80.33    8.69
   3  -4   1   83.35    9.00
   3  -4  -1   61.96    6.32
   3   4   1   73.24    8.49
  -3  -4  -1   75.62    7.55
  -3  -4   1   70.91    7.83
   3  -4  -1   73.89    8.11
  -3   4   1   73.01    7.27
   3  -4   1   75.68    8.13
  -3   4  -1   71.27    7.19
  -3  -4  -1   77.44    7.53
  -3  -4   1   73.51    7.52
  -3  -4   2  319.21   11.31
   3   4   2  334.14   11.96
   3   4  -2  337.26   12.01
  -3   4  -2  320.97   11.54
   3  -4   2  330.58   11.82
  -3   4   2  337.83   12.31
   3   4   2  328.34   11.96
   3   4  -2  344.11   12.50
  -3  -4   2  331.70   11.71
  -3   4   2  327.04   11.80
  -3  -4  -2  335.26   11.57
   3  -4   2  335.44   12.10
   3   4   2  308.83   10.70
  -3  -4   3  175.29    6.53
   3   4   3  156.66    6.17
   3   4  -3  174.58    8.40
  -3   4  -3  185.15    6.98
   3  -4   3  158.34    7.16
  -3   4   3  159.50    6.52
   3   4   3  183.03    7.48
  -3  -4   3  185.48    7.61
  -3  -4  -3  170.21    5.99
   3  -4  -3  172.55    6.76
  -3   4   3  155.62    5.99
   3   4   3  173.97    6.12
   3  -4   3  163.10    6.47
  -3   4  -3  177.09    6.62
  -3  -4   4   38.31    4.91
   3   4   4   28.36    4.41
   3   4  -4   29.84    3.76
  -3   4  -4   32.44    3.52
   3  -4   4   29.97    4.99
  -3   4   4   31.74    5.51
   3   4   4   38.32    6.42
   3   4  -4   32.61    4.78
  -3  -4   4   35.38    4.88
  -3  -4  -4   27.61    3.38
  -3   4   4   33.26    5.72
   3   4   4   35.98    3.59
   3  -4   4   25.39    3.40
   3   4  -5  631.27   17.34
  -3   4  -5  674.10   18.82
   3  -4   5  617.99   17.37
  -3   4   5  625.34   17.98
   3   4   5  715.48   20.38
   3   4  -5  661.58   18.91
  -3  -4  -5  636.32   17.57
   3  -4  -5  661.68   18.86
   3   4   5  679.02   18.66
   3  -4   5  615.66   17.58
  -3   4  -6  389.00   11.16
   3   4  -6  333.16    9.23
   3  -4   6  336.04    9.70
  -3   4   6  334.31   10.26
   3   4   6  367.68   12.11
   3   4  -6  329.55    9.17
   3   4  -6  343.72   10.38
  -3  -4  -6  341.22    9.80
   3   4   6  371.06   10.49
   3  -4   6  347.89   10.61
  -3   4  -7  290.01    8.92
   3  -4   7  251.56   28.56
   3   4  -7  268.83    7.99
  -3   4   7  274.09    9.23
   3   4  -7  272.76    8.08
   3   4  -7  293.19    9.72
  -3  -4  -7  287.92    8.91
   3  -4  -7  304.50   10.23
   3   4   7  281.56    8.69
  -3   4  -8  546.53   16.38
  -3   4   8  494.34   15.54
   3   4   8  552.07   17.34
   3   4  -8  552.81   17.23
  -3  -4  -8  531.48   16.05
   3  -4  -8  526.77   16.71
   3   4   8  469.91   14.19
   3  -4   8  539.37   16.99
  -3   4  -9  281.02   11.42
   3  -4   9  211.72    9.70
  -3   4   9  243.89   11.02
   3   4   9  288.82   12.44
   3   4  -9  263.85   16.43
  -3  -4  -9  249.05   12.61
   3  -4  -9  284.80   12.35
   3   4   9  228.05    9.88
   3  -4   9  238.29   10.97
  -3   4 -10  417.78   21.00
   3  -4  10  381.36   19.30
  -3   4  10  402.17   20.79
   3   4  10  424.65   22.03
   3   4 -10  442.34   22.81
  -3  -4 -10  450.34   22.81
   3  -4 -10  414.31   21.55
   3  -4  10  399.78   20.71
  -3   4 -11   50.51    6.60
   3  -4  11   23.69    4.66
  -3   4  11   31.27    6.43
   3   4  11   43.86    8.80
   3   4 -11   34.55    5.26
  -3  -4 -11   25.66    6.25
   3  -4 -11   54.51    7.15
   3  -4  11   36.07    5.36
  -3   4 -12   52.44    8.62
   3  -4  12   34.12    6.21
  -3   4  12   61.76   10.60
   3   4  12   55.74    8.41
   3   4 -12   53.83   11.02
  -3  -4 -12   64.67   12.24
   3  -4 -12   48.62    9.73
   3  -4  12   62.10    9.37
  -3   4  13  120.76   13.48
   3   4  13  130.85   11.26
   3   4 -13  106.38   11.58
  -3  -4 -13  115.52   12.04
   3  -4 -13  119.02   33.43
   3  -4  13  106.44   12.60
  -3   4  14   32.72    6.89
   3   4  14   51.12    9.14
   3  -4  14   23.16    5.21
   3   4 -14   39.24    6.97
  -3  -4 -14   23.82    5.79
   3  -4 -14   36.28   10.03
   3  -4  14   35.06    7.58
  -3   4  15   42.42    6.79
   3   4  15   42.24    8.79
   3   4 -15   43.97    8.78
  -3  -4 -15   53.63   10.59
   3  -4 -15   42.88    9.94
   3  -4  15   68.93    6.14
  -3   4  16   24.44    5.63
   3   4  16   21.64    6.32
   3   4 -16   29.91    6.43
  -3  -4 -16   27.60    6.83
   3  -4 -16   32.93    7.01
   3  -4  16   21.38    5.61
  -3   4  17    4.96    2.09
   3   4  17    7.91    2.49
   3   4 -17   10.67    3.69
  -3  -4 -17   12.28    4.28
   3  -4 -17   12.42    4.40
   3  -4  17   15.13    5.37
   3   4  18   12.79    4.04
   3   4 -18   13.25    4.09
  -3  -4 -18    8.15    2.34
   3  -4 -18   21.49    6.53
   3  -4  18   15.98    4.67
   3   4  19    5.23    2.86
   3   4 -19   17.08    5.34
  -3  -4 -19    4.25    1.86
   3  -4 -19    9.15    3.04
   3  -4  19    5.80    3.08
   3   4 -20   27.51    6.88
  -3  -4 -20    8.03    2.98
   3  -4 -20   10.40    3.39
   3  -4  20   23.23    5.80
   3   5   0  296.86   10.84
  -3   5   0  323.45   11.78
   3  -5   0  296.33   10.75
   3   5   0  287.64   10.56
  -3  -5   0  289.03   10.14
  -3   5   0  296.51   10.73
  -3  -5   0  308.69   10.93
   3   5   1  877.48   12.73
   3   5  -1  914.71   14.56
  -3   5  -1  948.52   14.13
   3  -5   1  861.03   12.70
   3  -5  -1  867.98   12.81
   3   5  -1  942.62   13.70
  -3  -5   1  957.49   13.47
  -3   5   1  868.27   12.68
   3  -5   1  839.18   13.03
  -3  -5  -1  919.08   13.28
  -3   5  -1  845.79   12.37
  -3  -5   1  939.25   13.42
   3   5   1  877.36   12.23
   3   5   2  149.03    8.19
   3   5  -2  157.05    6.36
  -3   5  -2  146.82    5.95
   3  -5   2  144.62    8.80
   3  -5  -2  145.31    5.79
   3   5  -2  141.91    5.55
  -3  -5   2  154.11    5.80
  -3  -5  -2  148.16    5.38
  -3   5   2  141.57    5.57
   3  -5   2  151.03    7.76
   3   5   2  148.64    5.43
  -3  -5   2  146.52    5.74
   3   5  -3  249.52   14.24
  -3   5  -3  254.63   14.17
   3  -5   3  222.65   12.39
  -3   5   3  239.58   13.59
   3   5  -3  237.82   13.19
  -3  -5   3  284.97   15.68
  -3  -5  -3  237.11   12.95
   3  -5   3  247.75   15.52
   3   5   3  259.52   14.27
   3   5  -4  163.33    9.48
  -3   5  -4  177.31   10.48
   3  -5   4  145.96    8.34
  -3   5   4  167.94    9.91
   3   5   4  172.18   10.08
   3   5  -4  158.69    8.87
   3   5  -4  159.21    9.20
  -3  -5   4  191.66   12.97
  -3  -5  -4  162.99    9.11
   3  -5  -4  170.38    9.90
   3   5   4  172.82    9.52
   3  -5   4  189.47   16.01
   3   5  -5  131.55    7.69
  -3   5  -5   94.74   10.41
   3  -5   5  117.10    6.76
  -3   5   5  129.94    8.08
   3   5  -5  135.82    7.96
   3   5   5  102.34    6.59
  -3  -5  -5  128.30    7.23
   3   5   5  101.64    5.77
   3  -5   5  141.76    8.60
   3   5  -6  453.86   13.36
  -3   5  -6  538.99   16.23
   3  -5   6  424.56   12.91
   3   5  -6  454.26   13.41
   3   5   6  565.42   17.68
   3   5  -6  472.24   15.29
  -3  -5  -6  425.27   12.77
   3  -5  -6  512.86   16.14
   3   5   6  507.42   15.09
  -3   5  -7  536.29   16.10
   3   5  -7  485.65   14.20
   3  -5   7  479.86   14.49
  -3   5   7  505.65   16.02
   3   5  -7  483.45   14.16
   3   5   7  548.36   18.12
   3   5  -7  515.00   16.02
  -3  -5  -7  524.68   15.71
   3  -5  -7  550.07   17.07
   3   5   7  507.18   15.13
   3  -5   7  515.02   16.17
  -3   5  -8   81.96    7.71
   3  -5   8   69.15    7.20
  -3   5   8   83.38   11.06
   3   5   8   84.38   10.19
   3   5  -8   76.93   11.18
  -3  -5  -8   72.20    7.44
   3  -5  -8   85.31    8.33
   3   5   8   77.37    7.27
   3  -5   8   73.57    7.36
  -3   5  -9   86.51    7.80
   3  -5   9   69.30    7.47
  -3   5   9   95.58   11.53
   3   5   9   80.10    8.63
   3   5  -9   86.56   10.00
  -3  -5  -9   87.30    8.19
   3  -5  -9   90.32    8.70
   3   5   9   71.51    6.60
   3  -5   9   86.46    8.83
  -3   5 -10   47.87    6.00
   3  -5  10   26.08    5.32
  -3   5  10   33.63    5.96
   3   5  10   46.56    6.40
   3   5 -10   45.82    7.69
  -3  -5 -10   38.92    7.51
   3  -5 -10   56.83    7.72
   3  -5  10   33.50    5.11
  -3   5 -11  135.84    6.53
   3  -5  11  102.28   12.41
  -3   5  11  151.98    8.44
   3   5  11  135.87    7.73
   3   5 -11  143.66   12.67
  -3  -5 -11  140.88   11.87
   3  -5 -11  143.02    8.21
   3  -5  11  139.46    7.99
  -3   5 -12   76.76   11.16
   3  -5  12   43.03    6.73
  -3   5  12   53.36    8.15
   3   5  12   80.27   12.31
   3   5 -12   57.29    9.56
  -3  -5 -12   60.85   10.32
   3  -5 -12   84.38   12.59
   3  -5  12   64.58   10.31
  -3   5  13   45.71   13.37
   3   5  13   35.50    7.27
   3  -5  13   36.18    7.11
   3   5 -13   49.77    8.55
  -3  -5 -13   40.95   10.23
   3  -5 -13   41.36   10.73
   3  -5  13   42.19    8.54
  -3   5  14   36.88    8.77
   3   5  14    7.79    3.11
   3   5 -14   34.63    7.30
  -3  -5 -14   30.18    7.02
   3  -5 -14   19.57    4.91
   3  -5  14   20.35    4.96
  -3   5  15   21.01    5.05
   3   5  15    7.13    2.29
   3   5 -15   24.19    6.78
  -3  -5 -15   11.55    3.34
   3  -5 -15   20.04    5.81
   3  -5  15   24.65    6.99
  -3   5  16    4.81    2.28
   3   5  16    8.03    2.57
  -3  -5 -16    5.30    1.84
   3  -5 -16    8.42    3.02
   3  -5  16    4.00    2.90
  -3   5  17   11.61    4.18
   3   5  17    9.56    3.44
   3   5 -17    7.98    3.64
  -3  -5 -17    7.98    1.79
   3  -5 -17    7.17    1.92
   3  -5  17   12.58    4.43
  -3   5  18   29.67    8.93
   3   5  18   49.01    7.93
   3   5 -18   31.65    8.63
  -3  -5 -18   21.21    7.96
   3  -5 -18   32.60    7.90
   3  -5  18   52.22    9.09
   3   5  19    6.03    2.73
   3   5 -19    5.50    2.53
  -3  -5 -19    0.44    1.56
   3  -5 -19    6.28    2.34
   3  -5  19   -0.72    3.00
   3   5 -20    6.00    1.99
   3  -5 -20    9.86    3.32
   3  -5  20   13.57    5.64
   3   6   0   89.04   11.21
   3   6   0  110.09    6.75
  -3  -6   0  102.36    5.82
   3  -6   0  112.37    6.96
  -3  -6   0  106.70    6.24
   3   6   1   30.03    4.73
   3   6  -1   28.07    4.79
  -3   6  -1   40.04    7.93
  -3   6   1   38.73    6.58
   3  -6   1   24.10    4.00
   3   6  -1   29.59    3.79
   3   6   1   43.11    7.30
  -3  -6   1   42.30    5.36
  -3  -6  -1   30.63    3.78
  -3  -6   1   45.09    6.08
   3   6   1   37.59    4.31
   3   6  -2   90.44   11.06
  -3   6  -2  113.12    6.99
  -3   6   2  119.34   12.44
   3  -6   2   85.35   10.96
   3   6  -2   94.07   10.47
   3   6   2   96.99   12.31
  -3  -6   2  113.13    7.91
   3  -6  -2  115.48    7.16
  -3  -6  -2   94.40   10.29
   3  -6   2   88.62   10.05
   3   6   2   97.42   12.20
  -3  -6   2  104.92    6.35
   3   6  -3   11.43    1.91
  -3   6  -3   13.35    2.20
  -3   6   3    9.94    2.63
   3  -6   3   13.90    2.01
   3   6  -3   11.34    1.98
   3   6   3    7.82    1.96
  -3  -6   3   13.80    2.85
   3  -6  -3   14.98    2.55
  -3  -6  -3   15.98    2.17
   3  -6   3   11.56    2.99
   3   6   3   10.26    1.99
  -3  -6   3   17.64    2.61
   3   6  -4  464.77   14.37
  -3   6  -4  426.83   12.44
  -3   6   4  478.08   14.30
   3   6  -4  457.06   12.97
  -3  -6  -4  487.25   13.60
   3   6   4  424.75   12.02
   3  -6   4  468.36   13.92
  -3  -6   4  412.75   12.22
   3   6  -5   58.61    8.09
  -3   6  -5   82.54    6.20
   3  -6   5   56.75    7.72
  -3   6   5   62.40    8.48
   3   6  -5   64.40    9.10
   3   6   5   80.62    6.85
  -3  -6  -5   55.35    6.92
   3  -6  -5   85.30    7.70
   3   6   5   82.96    6.38
   3  -6   5   69.88   10.07
  -3  -6   5   65.00    8.51
   3   6  -6  114.57    8.35
  -3   6  -6  107.18    8.58
   3  -6   6  110.64    8.09
  -3   6   6  131.66   13.41
   3   6  -6  119.59    9.17
   3   6   6  130.05   10.12
   3   6  -6  126.82   10.35
  -3  -6  -6  112.89    8.16
   3  -6  -6  126.57   12.20
   3   6   6  106.30    7.74
   3  -6   6  138.43   13.05
   3   6  -7   90.54    8.11
  -3   6  -7  100.67    9.12
   3  -6   7   90.46    8.21
  -3   6   7   94.15   10.88
   3   6  -7   89.49    8.36
   3   6   7   94.66    9.11
   3   6  -7  120.74   16.06
  -3  -6  -7   93.85    8.50
   3  -6  -7   92.08    8.73
   3   6   7   81.09    7.35
   3  -6   7   84.28    8.85
  -3   6  -8  118.33   10.59
   3  -6   8   83.63    8.27
  -3   6   8  102.68   14.67
   3   6   8  125.60   13.05
   3   6  -8  116.87   15.76
  -3  -6  -8   93.75    8.59
   3  -6  -8  149.75   20.77
   3   6   8  113.65   10.70
   3  -6   8   87.05    8.85
  -3   6  -9   61.66    8.59
   3  -6   9   41.48    6.21
  -3   6   9   45.91    8.38
   3   6   9   64.42   10.51
   3   6  -9   59.79    9.68
  -3  -6  -9   48.46    7.98
   3  -6  -9   53.82    7.10
   3   6   9   47.03    5.88
   3  -6   9   44.87    6.73
  -3   6 -10   30.74    6.23
   3  -6  10   21.53    4.39
  -3   6  10   35.39    6.42
   3   6  10   29.29    7.02
   3   6 -10   43.86    6.89
  -3  -6 -10   35.65    7.01
   3  -6 -10   25.25    5.20
   3  -6  10   33.21    4.97
  -3   6 -11  252.97   12.78
   3  -6  11  224.08   11.53
  -3   6  11  280.60   15.21
   3   6  11  257.91   14.32
   3   6 -11  290.67   22.20
  -3  -6 -11  258.98   14.56
   3  -6 -11  237.18   12.95
   3  -6  11  271.27   14.93
  -3   6 -12   78.29    7.40
  -3   6  12   68.35    8.41
   3   6  12   83.38    9.57
   3   6 -12   81.70   11.68
  -3  -6 -12   60.46    7.28
   3  -6 -12   79.89    7.47
   3  -6  12   73.84    8.32
  -3   6  13  144.58    9.18
   3   6  13  131.40   10.22
   3   6 -13  152.38   14.23
  -3  -6 -13  138.64    9.82
   3  -6 -13  145.93    8.88
   3  -6  13  150.38    9.29
  -3   6  14   58.90    8.73
   3   6  14   55.64    6.43
   3   6 -14   71.67    8.73
  -3  -6 -14   58.30   11.23
   3  -6 -14   48.83   10.01
   3  -6  14   60.56    6.81
  -3   6  15   87.96   13.68
   3   6  15  103.06   10.46
   3   6 -15  107.31   11.97
  -3  -6 -15  100.03    9.78
   3  -6 -15   70.41   17.92
   3  -6  15  100.53    9.47
  -3   6  16   26.68    5.84
   3   6  16   25.06    5.25
   3   6 -16   28.77    6.35
  -3  -6 -16   18.86    4.94
   3  -6 -16   17.98    4.05
   3  -6  16   25.55    5.67
  -3   6  17   42.21    7.38
   3   6  17   44.06    8.29
  -3  -6 -17   30.56   10.24
   3  -6 -17   33.66   10.42
   3  -6  17   60.15    8.84
  -3   6  18   18.64    5.32
   3   6  18   14.54    4.92
   3   6 -18   27.41    5.03
  -3  -6 -18   14.30    4.43
   3  -6 -18   11.96    4.00
   3  -6  18   17.61    6.11
   3   6  19    8.23    2.80
   3   6 -19   13.90    4.63
   3  -6 -19    8.74    3.52
   3  -6  19   16.03    5.84
  -3   7   0  102.24   10.13
   3   7   0   90.77   10.28
  -3  -7   0  107.12    9.04
   3   7   0   95.03   11.06
   3   7  -1   82.40   10.24
  -3   7  -1   81.57   12.32
  -3   7   1   92.47   10.59
   3   7  -1   98.54   13.18
   3   7   1   73.35    8.45
  -3  -7   1   62.94    7.76
   3  -7   1  116.44   11.49
  -3  -7  -1  102.84    6.06
  -3  -7   1   71.39    8.21
   3   7   1   65.17    7.61
   3   7  -2   64.54    8.96
  -3   7  -2  107.48    6.68
  -3   7   2   81.19   11.30
   3   7  -2   79.38    9.49
  -3  -7   2  100.84   13.15
  -3  -7  -2   80.01    8.82
   3  -7   2   79.56    9.35
  -3  -7   2  101.72    6.20
   3   7   2   99.07   12.26
   3   7  -3   76.07    9.85
  -3   7  -3  121.93    9.13
  -3   7   3   99.69    9.94
   3  -7   3   76.21    9.89
   3   7  -3   90.99    6.86
   3  -7  -3  110.79    8.79
  -3  -7  -3   84.63    6.23
   3  -7   3   80.03    6.57
   3   7   3  101.78    7.95
  -3  -7   3  110.17    8.96
   3   7  -4   21.08    3.64
  -3   7  -4   44.43    8.32
  -3   7   4   38.39    6.78
   3  -7   4   23.57    4.97
   3   7  -4   33.08    6.06
   3   7   4   43.30    8.32
  -3  -7  -4   35.54    5.84
   3  -7  -4   48.94    6.70
   3  -7   4   35.54    6.24
   3   7   4   28.83    5.61
  -3  -7   4   37.18    5.22
   3   7  -5  290.91    9.98
  -3   7  -5  288.11    9.22
  -3   7   5  293.20   10.33
   3  -7   5  286.67    9.08
   3   7  -5  307.95    9.55
   3   7   5  218.69   16.09
  -3  -7  -5  296.73    9.49
   3  -7  -5  286.00    9.95
   3   7   5  280.68    8.66
   3  -7   5  301.06   10.24
  -3  -7   5  293.31   10.04
   3   7  -6  432.05   17.67
  -3   7  -6  397.61   16.20
   3  -7   6  408.02   16.54
  -3   7   6  460.99   19.45
   3   7  -6  422.06   16.93
   3   7   6  418.22   17.60
  -3  -7  -6  424.44   17.09
   3  -7  -6  380.24   17.52
   3   7   6  380.83   15.46
   3  -7   6  424.86   17.78
  -3  -7   6  422.16   17.64
   3   7  -7  121.26   10.96
  -3   7  -7  142.48   12.78
   3  -7   7  121.30   12.70
  -3   7   7  140.77   16.34
   3   7  -7  129.72   11.81
   3   7   7  141.58   13.25
  -3  -7  -7  123.21   11.10
   3  -7  -7  144.44   13.38
   3   7   7  133.88   11.94
   3  -7   7  141.69   17.94
  -3  -7   7  181.54   16.71
  -3   7  -8   63.78    8.81
   3   7  -8   41.51    5.36
   3   7  -8   43.15    5.59
   3  -7   8   43.01    5.89
  -3   7   8   55.12   10.15
   3   7   8   60.28   10.51
  -3  -7  -8   50.74    6.42
   3  -7  -8   54.05    7.48
   3   7   8   29.83    7.18
   3  -7   8   59.28    8.37
  -3  -7   8   60.90    8.09
  -3   7  -9   11.32    2.50
   3  -7   9   14.19    3.12
  -3   7   9   25.23    5.60
   3   7   9    5.76    2.78
  -3  -7  -9   13.96    2.90
   3  -7  -9   14.68    4.04
   3   7   9    6.05    1.39
   3  -7   9   17.36    4.38
  -3   7 -10   14.87    4.18
   3  -7  10   14.28    3.74
  -3   7  10   16.23    4.70
   3   7  10   17.69    5.23
   3   7 -10   28.91    8.28
  -3  -7 -10   16.33    4.56
   3  -7 -10   13.43    3.98
   3  -7  10   21.43    6.17
  -3   7 -11   31.44    6.45
   3  -7  11   18.18    4.29
  -3   7  11   36.98    7.90
   3   7  11   32.14    8.27
   3   7 -11   43.56   10.12
  -3  -7 -11   27.79    7.39
   3  -7 -11   33.10    7.50
   3  -7  11   18.68    4.73
  -3   7 -12    3.94    1.19
  -3   7  12    0.30    2.39
   3   7  12    6.13    4.17
   3   7 -12    7.65    3.08
  -3  -7 -12    4.36    1.45
   3  -7 -12    5.09    2.97
   3  -7  12    6.39    3.54
  -3   7  13    5.03    2.56
   3   7  13    0.70    2.46
   3   7 -13   18.08    4.45
  -3  -7 -13    4.40    1.88
   3  -7 -13    7.16    3.20
   3  -7  13    6.62    2.63
  -3   7  14   10.24    3.90
   3   7  14    6.80    3.49
   3   7 -14   13.27    3.49
  -3  -7 -14    4.32    0.97
   3  -7 -14    7.19    4.02
   3  -7  14   14.47    5.73
  -3   7  15    6.84    2.81
   3   7  15   11.55    4.03
   3   7 -15    7.70    3.80
  -3  -7 -15    2.54    0.77
   3  -7 -15    7.04    2.70
   3  -7  15    5.20    3.11
  -3   7  16    5.56    2.32
   3   7  16    1.88    2.30
  -3  -7 -16    3.46    0.99
   3  -7 -16    1.91    1.94
   3  -7  16    6.63    3.47
  -3   7  17    4.56    1.35
   3   7  17    3.33    3.64
  -3  -7 -17    1.83    1.03
   3  -7 -17    5.47    2.09
   3  -7  17    9.61    4.83
  -3  -7  17    4.31    3.57
  -3   7  18    8.99    2.94
   3   7  18    5.00    2.40
   3  -7 -18    9.49    3.12
   3  -7  18   20.29    5.32
  -3  -7  18    9.01    3.99
  -3   7  19   -0.44    1.68
   3   7  19    3.45    1.84
   3  -7 -19   10.63    3.09
   3  -7  19    7.47    3.70
  -3  -7  19    4.41    3.51
  -3   8   0  283.77    9.66
   3   8   0  282.74    9.69
  -3  -8   0  283.09    9.03
   3   8   0  248.54   28.39
  -3   8  -1   63.10   12.39
  -3   8   1   41.58    5.90
   3   8   1   60.24    7.98
   3   8  -1   35.80    5.09
  -3  -8   1   54.84    8.63
   3  -8  -1   59.63    7.81
  -3  -8  -1   42.61    5.71
  -3  -8   1   69.84   10.92
   3   8   1   54.34    7.84
  -3   8  -2  357.29   11.57
   3   8  -2  316.67   10.31
   3   8   2  389.42   12.77
   3  -8  -2  372.96   12.36
  -3  -8  -2  323.21   10.19
   3  -8   2  319.97   10.83
  -3  -8   2  352.78   11.26
   3   8   2  351.86   10.89
   3   8  -3  243.90   28.20
  -3   8  -3  264.65    8.96
  -3   8   3  277.62   10.04
   3   8  -3  260.41    8.57
   3   8   3  269.82    9.58
   3  -8  -3  266.84    9.72
  -3  -8  -3  266.81    8.47
   3  -8   3  280.58    9.96
   3   8   3  240.15   16.99
  -3  -8   3  247.32   28.29
   3   8  -4   67.49    7.31
  -3   8  -4  105.53   11.56
  -3   8   4   88.33    9.93
   3   8  -4   87.67    9.81
   3   8   4   99.45    9.81
   3  -8  -4  118.69   16.36
  -3  -8  -4   93.72    8.61
   3  -8   4   83.72    8.49
   3   8   4   80.20    8.18
  -3  -8   4   90.45    8.66
   3   8  -5  178.63    8.90
  -3   8  -5  166.65    7.51
  -3   8   5  200.36   15.04
   3   8  -5  190.54    8.46
   3   8   5  157.10   39.96
  -3  -8  -5  194.10    8.42
   3  -8  -5  168.92    8.11
   3   8   5  158.71   40.10
   3  -8   5  192.12    9.48
  -3  -8   5  151.81   13.88
   3   8  -6   39.04    5.92
  -3   8  -6   60.78    7.85
  -3   8   6   60.33    8.94
   3  -8   6   43.54    6.42
   3   8  -6   55.11   14.71
   3   8   6   64.05    6.89
  -3  -8  -6   55.52    6.95
   3  -8  -6   77.63   10.27
   3   8   6   50.73    6.17
   3  -8   6   65.02    7.89
  -3  -8   6   51.77    6.64
   3   8  -7   13.40    3.69
  -3   8  -7   17.93    5.03
  -3   8   7   12.74    4.16
   3   8  -7   16.52    4.67
   3  -8   7   11.16    3.47
   3   8   7    6.49    2.94
  -3  -8  -7   11.12    4.13
   3  -8  -7   18.71    5.87
   3   8   7    3.47    1.23
   3  -8   7   17.08    6.19
  -3  -8   7   13.30    4.53
   3   8  -8   19.75    3.93
  -3   8  -8   25.77    5.63
   3   8  -8   22.22    4.46
  -3   8   8   29.84    6.47
   3  -8   8   19.15    4.00
   3   8   8   23.24    5.06
  -3  -8  -8   23.76    5.92
   3  -8  -8   29.14    5.91
   3   8   8   15.40    3.62
   3  -8   8   24.06    5.87
  -3  -8   8   30.80    6.60
  -3   8  -9   36.01    4.11
  -3   8   9   48.33    8.81
   3  -8   9   25.79    5.17
   3   8   9   19.42    4.72
  -3  -8  -9   34.92    4.13
   3  -8  -9   36.10    5.36
   3  -8   9   33.93    5.13
  -3  -8   9   41.58    5.62
  -3   8 -10   25.26    6.77
  -3   8  10   15.23    4.43
   3  -8  10   14.15    3.52
   3   8  10   34.34    7.36
  -3  -8 -10   12.77    3.31
   3  -8 -10   32.83    8.80
   3  -8  10    2.94    3.60
  -3  -8  10   30.51    7.96
  -3   8 -11  241.10   13.26
  -3   8  11  244.26   28.00
   3   8  11  238.94   18.57
  -3  -8 -11  242.19   14.84
   3  -8 -11  233.84   14.21
   3  -8  11  230.23   13.87
  -3  -8  11  218.07   13.34
  -3   8 -12   43.40    7.19
  -3   8  12   53.99    7.09
   3   8  12   50.60    6.98
  -3  -8 -12   38.54   10.47
   3  -8 -12   51.63    6.44
   3  -8  12   55.75    7.26
  -3   8  13   86.70   14.12
   3   8  13   92.11   13.98
  -3  -8 -13   80.91    7.09
   3  -8 -13   77.14    6.54
   3  -8  13   76.79    6.39
  -3  -8  13  100.25   10.69
  -3   8  14    9.58    3.68
   3   8  14    8.51    3.65
  -3  -8 -14   12.82    3.29
   3  -8 -14   11.11    4.09
   3  -8  14   18.25    6.05
  -3  -8  14    7.53    2.68
  -3   8  15   60.86    9.24
   3   8  15   44.60    9.60
  -3  -8 -15   41.96   10.11
   3  -8 -15   30.40    9.07
   3  -8  15   62.85    6.15
  -3  -8  15   50.25    7.39
  -3   8  16    7.02    2.77
   3   8  16   22.37    5.89
  -3  -8 -16   18.62    4.10
   3  -8 -16   22.65    6.78
   3  -8  16   32.59    7.92
  -3  -8  16   20.00    6.13
  -3   8  17   43.51    9.44
   3   8  17   41.32    7.91
   3  -8 -17   32.50    9.67
   3  -8  17   77.41    9.93
  -3  -8  17   55.87    7.34
  -3   8  18    2.22    1.87
   3   8  18    9.49    3.93
   3  -8 -18    4.42    2.81
   3  -8  18   11.51    5.40
  -3  -8  18   12.82    5.37
  -3   8  19    9.45    3.81
   3   8  19    6.60    3.51
   3  -8 -19    4.15    1.70
   3  -8  19   18.35    5.46
  -3  -8  19   10.71    4.44
  -3   9   0  146.16   13.44
   3   9   0  160.39   41.42
   3  -9   0  157.76   40.09
  -3  -9   0  148.53   13.55
  -3   9  -1   14.78    3.08
  -3   9   1   28.71    4.83
   3   9  -1   14.92    2.99
   3   9   1   10.50    2.43
   3  -9  -1   13.74    3.86
   3  -9   1   24.44    4.71
  -3  -9  -1   18.43    2.89
  -3  -9   1    8.25    2.79
  -3   9  -2   94.31    9.09
  -3   9   2  113.17   16.95
   3   9  -2   99.42    9.35
   3   9   2   96.73   13.98
   3  -9  -2  110.12   14.60
  -3  -9  -2  100.46    9.34
  -3  -9   2   93.10    8.83
   3   9   2   70.78    7.34
  -3   9  -3   43.27    5.56
   3   9  -3   60.76    9.20
   3   9   3   62.59   10.21
   3  -9  -3   48.87    6.62
  -3  -9  -3   59.81    7.57
   3  -9   3   54.56   14.25
  -3  -9   3   56.65    6.56
   3   9   3   45.73    5.94
  -3   9  -4  433.92   18.00
  -3   9   4  469.34   20.02
   3   9  -4  467.51   19.04
   3   9   4  461.21   19.59
   3  -9  -4  436.39   18.17
  -3  -9  -4  466.59   18.91
   3  -9   4  444.00   18.80
   3   9   4  417.44   16.95
  -3  -9   4  439.55   18.28
   3   9  -5   62.77    8.42
  -3   9  -5  104.45    8.49
  -3   9   5   83.44   14.62
   3   9  -5   89.13   15.98
   3   9   5  132.75   17.99
  -3  -9  -5   90.01   15.21
   3  -9  -5  107.54    9.05
   3  -9   5  105.37    9.08
   3   9   5   93.42    7.39
  -3  -9   5  121.55   13.51
   3   9  -6  510.79   26.10
  -3   9  -6  542.90   27.48
  -3   9   6  624.76   32.18
   3   9  -6  561.13   28.23
   3   9   6  563.96   29.15
  -3  -9  -6  529.99   26.73
   3  -9  -6  513.66   27.14
   3   9   6  456.98   23.03
   3  -9   6  497.98   25.72
  -3  -9   6  539.79   27.69
   3   9  -7   13.76    2.76
  -3   9  -7   18.98    3.84
  -3   9   7   13.14    3.56
   3   9  -7   15.52    3.33
   3   9   7   21.75    5.15
  -3  -9  -7   16.92    3.84
   3  -9  -7   20.39    4.65
   3   9   7    7.33    1.83
   3  -9   7   12.33    3.93
  -3  -9   7   23.91    5.40
   3   9  -8  144.57    8.71
  -3   9  -8  209.62   11.16
   3   9  -8  172.21    8.77
  -3   9   8  215.48   19.32
   3   9   8  255.84   21.21
  -3  -9  -8  186.88    9.86
   3  -9  -8  222.40   12.49
   3  -9   8  186.32   11.15
  -3  -9   8  252.02   19.25
   3   9  -9   24.24    5.82
  -3   9  -9   64.80   10.58
   3   9  -9   32.31    8.43
  -3   9   9   32.56    9.39
   3  -9   9   24.75    6.57
   3   9   9   66.77   12.38
  -3  -9  -9   40.54    6.05
   3  -9  -9   65.31   10.01
   3  -9   9   51.29    9.49
  -3  -9   9   61.43    9.40
  -3   9 -10   95.70    7.86
  -3   9  10   82.71   13.28
   3   9  10   84.84    8.28
  -3  -9 -10   84.54    7.32
   3  -9 -10   90.05    8.53
   3  -9  10   93.60    8.94
  -3  -9  10   89.86    8.61
  -3   9 -11   45.09    7.39
  -3   9  11   69.06   10.01
   3   9  11   50.10    9.47
  -3  -9 -11   56.97   10.16
   3  -9 -11   63.25    9.83
   3  -9  11   81.08   22.50
  -3  -9  11   46.50    6.67
  -3   9  12   62.31   10.11
   3   9  12   60.87   10.45
  -3  -9 -12   52.36   10.08
   3  -9 -12   55.32    9.45
   3  -9  12   67.07    5.90
  -3  -9  12   62.06    8.49
  -3   9  13    4.02    3.47
   3   9  13    1.23    4.20
  -3  -9 -13    3.30    1.04
   3  -9 -13   -1.88    2.31
   3  -9  13   10.12    3.36
  -3  -9  13    0.47    3.19
  -3   9  14    0.33    2.20
   3   9  14   -0.95    2.39
  -3  -9 -14    2.18    0.78
   3  -9 -14    5.40    3.67
   3  -9  14   10.22    5.05
  -3   9  15    5.78    2.22
   3   9  15   -2.44    2.26
  -3  -9 -15    2.26    0.78
   3  -9 -15    4.42    2.51
   3  -9  15   11.01    5.31
  -3  -9  15    5.09    4.79
  -3   9  16    6.66    2.47
   3   9  16    7.79    3.88
   3  -9 -16    4.01    1.82
   3  -9  16    6.16    4.58
  -3  -9  16    9.71    6.20
  -3   9  17   10.31    3.36
   3   9  17   12.69    4.50
   3  -9 -17   10.92    3.54
   3  -9  17    6.45    3.64
  -3  -9  17   17.87    7.54
  -3   9  18    4.51    2.85
   3   9  18    4.59    2.11
   3  -9 -18    4.88    2.76
   3  -9  18    8.19    4.98
  -3  -9  18    3.97    5.26
  -3  10   0  409.12   21.33
   3  10   0  441.70   23.00
   3 -10   0  416.74   21.74
  -3 -10   0  364.01   19.06
  -3  10  -1  310.72   16.49
  -3  10   1  286.22   15.43
   3  10  -1  301.83   16.04
   3  10   1  304.51   16.28
   3 -10  -1  323.26   17.15
   3 -10   1  306.15   16.47
  -3 -10  -1  297.34   16.45
  -3 -10   1  318.50   16.64
  -3  10  -2  380.64   19.96
  -3  10   2  393.34   20.76
   3  10  -2  404.28   21.03
   3  10   2  395.74   22.32
   3 -10  -2  377.08   19.72
   3 -10   2  389.99   25.06
  -3 -10   2  380.90   19.76
  -3  10  -3  199.55   10.94
  -3  10   3  225.64   12.58
   3  10  -3  207.07   11.24
   3  10   3  207.35   12.12
   3 -10  -3  193.72   32.73
  -3 -10  -3  203.20   10.88
  -3 -10   3  231.63   17.73
  -3  10  -4  105.70    9.44
  -3  10   4   91.48   12.84
   3  10  -4   98.53    8.77
   3  10   4  105.71   13.86
   3 -10  -4  112.79   15.49
  -3 -10  -4   98.44    8.02
   3 -10   4   99.18    8.83
  -3 -10   4   88.30   15.29
  -3  10  -5  144.74    7.69
  -3  10   5  121.58   13.44
   3  10  -5  141.40    9.29
  -3 -10  -5  136.87    7.10
   3 -10  -5  129.87    7.38
   3 -10   5  131.40    8.29
  -3 -10   5  135.28    7.73
   3  10  -6    2.05    0.81
  -3  10  -6    6.07    1.98
  -3  10   6    3.73    1.61
   3  10  -6    4.53    1.73
   3  10   6    3.18    2.98
  -3 -10  -6    4.81    1.87
   3 -10  -6   -0.19    2.42
   3 -10   6    3.43    3.07
  -3 -10   6   -0.48    2.71
   3  10  -7   16.20    4.40
  -3  10  -7   27.86    7.63
  -3  10   7   24.95    7.00
   3  10  -7   22.61    5.65
   3  10   7   19.68    5.44
  -3 -10  -7   26.52    7.46
   3 -10  -7   30.81    7.69
   3 -10   7   27.53    7.41
  -3 -10   7   37.83    6.77
  -3  10  -8  171.30    9.89
   3  10  -8  151.61    9.18
  -3  10   8  162.28   13.57
   3  10   8  178.17   11.68
  -3 -10  -8  157.45    9.20
   3 -10  -8  176.11   19.10
   3 -10   8  149.83   12.90
  -3 -10   8  186.10   11.94
  -3  10  -9    9.00    2.84
   3  10  -9    7.17    2.12
  -3  10   9    9.54    3.58
   3  10   9    3.72    2.35
  -3 -10  -9   10.39    3.43
   3 -10  -9   16.53    4.82
   3 -10   9   10.04    4.52
  -3 -10   9    8.34    3.72
  -3  10 -10  118.60    6.56
  -3  10  10  117.30   13.62
   3  10  10  108.03    7.55
  -3 -10 -10  118.83    6.83
   3 -10 -10  127.06    9.55
   3 -10  10  125.16   10.42
  -3 -10  10  118.76    8.75
  -3  10 -11    3.34    0.80
  -3  10  11    4.54    2.81
   3  10  11   -4.57    2.65
  -3 -10 -11    1.99    1.11
   3 -10 -11    3.55    3.66
   3 -10  11   -0.81    3.83
  -3 -10  11    7.52    3.37
  -3  10  12   46.44    9.72
   3  10  12   53.63   10.72
  -3 -10 -12   33.35    6.41
   3 -10 -12   32.60    7.94
   3 -10  12   57.60    6.83
  -3 -10  12   54.54    9.99
  -3  10  13   20.36    4.41
   3  10  13   16.09    5.31
  -3 -10 -13   15.47    4.75
   3 -10 -13   20.03    3.77
   3 -10  13   27.88    5.59
  -3 -10  13   34.34    6.99
  -3  10  14   32.84    6.29
   3  10  14   38.99    5.92
   3 -10 -14   41.56    5.78
   3 -10  14   41.74    5.47
  -3 -10  14   38.50    6.04
  -3  10  15    8.47    2.97
   3  10  15   13.94    4.86
   3 -10 -15   13.98    4.06
   3 -10  15   16.09    4.91
  -3  10  16    7.25    2.82
   3  10  16    6.55    3.53
   3 -10 -16    6.34    1.97
   3 -10  16   16.57    5.92
  -3 -10  16    5.00    3.51
  -3  10  17   21.77    5.85
   3  10  17   19.67    4.84
   3 -10 -17    4.87    2.26
   3 -10  17   15.52    5.90
  -3 -10  17   10.21    4.50
  -3  11   0   29.63    7.13
   3  11   0   28.40    5.76
   3 -11   0   40.71    6.83
  -3 -11   0   34.01    4.63
  -3  11  -1   81.19   14.20
  -3  11   1   81.49   14.26
   3  11  -1   91.51   15.41
   3  11   1   96.07   14.83
   3 -11  -1   84.35   10.32
   3 -11   1   93.69   11.22
  -3 -11  -1   80.98    9.38
  -3 -11   1   86.29    9.74
  -3  11  -2   24.59    5.65
  -3  11   2   23.77    5.56
   3  11  -2   25.74    5.51
   3  11   2   15.67    3.73
   3 -11  -2   15.36    3.82
  -3 -11  -2   21.96    4.45
   3 -11   2   18.87    5.53
  -3 -11   2   25.43    5.11
  -3  11  -3   94.13   15.55
  -3  11   3   81.30   10.49
   3  11  -3   92.64   13.06
   3  11   3  114.69   19.75
   3 -11  -3   92.54   10.72
  -3 -11  -3   74.33   10.19
   3 -11   3   84.69    9.79
  -3 -11   3  118.24   14.94
  -3  11  -4  143.73    8.36
   3  11  -4  138.28   13.58
   3  11   4  141.41   18.67
   3 -11  -4  131.08   33.44
  -3 -11  -4  137.10   10.58
  -3 -11   4  145.50   12.82
  -3  11  -5  168.09    9.27
  -3  11   5  141.10    8.74
   3  11  -5  126.05   32.93
   3  11   5  204.61   21.30
  -3 -11  -5  135.04    7.59
   3 -11  -5  192.73   11.31
  -3 -11   5  186.62   10.58
  -3  11   6    5.30    2.92
   3  11  -6   13.92    3.88
   3  11   6   11.56    4.30
  -3 -11  -6    5.76    2.62
   3 -11  -6   20.56    4.89
   3 -11   6   12.11    4.16
  -3 -11   6   15.42    4.28
  -3  11  -7  135.96   10.67
  -3  11   7  126.15   13.67
   3  11  -7  103.89   11.37
   3  11   7  144.53   14.57
  -3 -11  -7  115.47    9.65
   3 -11  -7  128.04   10.73
   3 -11   7  114.02   10.44
  -3 -11   7  143.00   11.71
  -3  11  -8  170.05    9.30
   3  11  -8  158.31    9.72
  -3  11   8  191.39   18.68
   3  11   8  208.26   15.32
  -3 -11  -8  151.74    8.48
   3 -11  -8  183.27   11.39
   3 -11   8  166.60   10.99
  -3 -11   8  198.46   16.31
  -3  11  -9   51.42    6.87
  -3  11   9   51.21    7.44
   3  11   9   68.03    8.14
  -3 -11  -9   52.11    5.21
   3 -11  -9   72.72    8.06
   3 -11   9   46.98    6.41
  -3 -11   9   62.06    9.06
  -3  11 -10   74.49    6.36
  -3  11  10   65.90   14.86
   3  11  10   81.06    9.16
  -3 -11 -10   56.51    7.83
   3 -11 -10   73.22    9.85
   3 -11  10   77.23    7.63
  -3 -11  10   89.98    7.35
  -3  11  11  113.55   11.95
   3  11  11  116.52   14.71
  -3 -11 -11   92.64    7.40
   3 -11 -11   91.65   17.69
   3 -11  11  118.17   10.89
  -3 -11  11  113.13   10.09
  -3  11  12   48.41    6.49
   3  11  12   27.54    6.58
   3 -11 -12   53.08    6.36
   3 -11  12   34.02    7.61
  -3 -11  12   41.55    7.43
  -3  11  13    7.15    2.72
   3  11  13    7.96    2.47
   3 -11 -13    4.72    2.64
   3 -11  13   11.17    5.50
  -3 -11  13    6.67    3.66
  -3  11  14    7.58    3.42
   3  11  14    4.09    2.30
   3 -11 -14    6.83    3.58
   3 -11  14    0.24    3.52
  -3 -11  14    4.67    3.06
  -3  11  15    2.44    1.74
   3  11  15    0.78    2.47
   3 -11 -15    4.26    2.26
   3 -11  15   12.76    5.54
  -3 -11  15   11.67    4.35
  -3  11  16    1.91    1.58
   3  11  16   11.20    4.88
   3 -11 -16   10.13    4.26
   3 -11  16    5.56    3.64
  -3  11  17   24.48    6.64
   3  11  17   11.83    4.51
   3 -11 -17    9.02    3.34
   3 -11  17   21.43    6.59
  -3 -11  17   29.50    8.14
  -3  12   0  206.96   11.61
   3  12   0  222.81   13.70
   3 -12   0  228.74   13.40
  -3 -12   0  214.23   11.55
  -3  12  -1  152.67   11.70
  -3  12   1  166.22   10.00
   3  12  -1  147.15    8.80
   3  12   1  182.42   10.72
   3 -12  -1  182.76   14.95
   3 -12   1  157.98    9.90
  -3 -12  -1  158.40   10.59
  -3 -12   1  172.02    9.98
  -3  12  -2  251.94   17.20
  -3  12   2  258.36   17.60
   3  12  -2  302.36   16.13
   3  12   2  248.14   14.02
   3 -12  -2  243.58   17.29
  -3 -12  -2  275.80   14.52
   3 -12   2  279.97   19.04
  -3 -12   2  246.08   13.26
  -3  12  -3   12.52    4.17
  -3  12   3   23.07    6.12
   3  12  -3   27.62    6.07
   3  12   3   14.10    5.15
   3 -12  -3   16.53    3.86
  -3 -12  -3   21.91    4.63
   3 -12   3   39.42    9.23
  -3 -12   3   24.14    6.25
  -3  12  -4  228.77   16.91
  -3  12   4  236.96   14.40
   3  12  -4  255.76   14.85
   3  12   4  212.29   13.10
   3 -12  -4  214.97   12.93
  -3 -12  -4  212.93   14.00
   3 -12   4  212.57   12.96
  -3 -12   4  240.40   18.10
  -3  12  -5   30.36    7.10
  -3  12   5   11.21    4.35
   3  12  -5   13.63    4.03
   3  12   5   28.09    6.82
  -3 -12  -5    9.68    2.80
   3 -12  -5   31.33    7.96
   3 -12   5   16.72    5.55
  -3 -12   5   23.39    5.57
  -3  12  -6   85.36    5.55
  -3  12   6   87.19    7.10
   3  12  -6   88.76    7.30
  -3 -12  -6   90.36    5.53
   3 -12  -6   76.17    9.86
  -3 -12   6   91.52    8.08
  -3  12  -7   50.01    7.41
  -3  12   7   26.62    5.87
   3  12  -7   28.33    5.93
   3  12   7   48.00    7.52
  -3 -12  -7   23.22    5.74
   3 -12  -7   58.28    6.67
   3 -12   7   36.29    7.72
  -3 -12   7   42.85    7.25
  -3  12  -8    6.89    2.42
   3  12  -8    4.85    1.69
  -3  12   8   10.22    5.16
   3  12   8   -2.88    3.01
  -3 -12  -8    4.68    1.98
   3 -12  -8    8.59    4.04
   3 -12   8   -1.75    3.75
  -3 -12   8    3.78    3.07
  -3  12  -9    4.90    1.34
  -3  12   9    2.96    2.37
   3  12   9    4.66    2.94
  -3 -12  -9    5.14    1.77
   3 -12  -9    6.05    2.67
   3 -12   9    3.10    3.79
  -3 -12   9    0.67    3.01
  -3  12  10   34.81    8.61
   3  12  10   42.25    9.42
  -3 -12 -10   15.19    4.42
   3 -12 -10   31.82    8.44
   3 -12  10   26.65    5.65
  -3 -12  10   30.32    6.25
  -3  12  11   28.36    6.27
   3  12  11   23.36    4.66
   3 -12 -11   31.37    8.75
   3 -12  11   39.98    7.15
  -3 -12  11   26.41    5.66
  -3  12  12   15.19    5.02
   3  12  12    8.16    4.25
   3 -12 -12    6.57    2.81
   3 -12  12   11.14    5.58
  -3 -12  12   12.09    4.54
  -3  12  13   16.16    4.72
   3  12  13   29.89    7.54
   3 -12 -13   20.04    5.70
   3 -12  13   38.05    7.93
  -3 -12  13   40.18    7.77
  -3  12  14    4.27    1.90
   3  12  14    7.09    3.65
   3 -12 -14    7.15    2.24
   3 -12  14    6.39    3.36
  -3 -12  14    5.30    3.76
  -3  12  15   10.62    4.29
   3  12  15    9.32    3.67
   3 -12 -15    3.07    2.19
   3 -12  15    8.56    3.79
  -3 -12  15    5.55    3.40
  -3  12  16    5.58    2.12
   3  12  16    6.45    3.94
   3 -12 -16    1.34    1.84
   3 -12  16    7.03    5.22
  -3 -12  16   13.75    5.92
  -3  13   0   75.78   11.10
   3  13   0   81.15   21.37
   3 -13   0   74.25   11.17
  -3 -13   0   86.50    8.36
  -3  13  -1   22.49    5.86
  -3  13   1   10.61    3.48
   3  13  -1   21.25    5.27
   3  13   1   15.55    3.85
   3 -13  -1   14.30    3.92
   3 -13   1   14.80    4.61
  -3 -13  -1   18.78    4.07
  -3 -13   1   24.44    5.37
  -3  13  -2   15.12    4.39
  -3  13   2   18.45    5.30
   3  13  -2    7.41    2.90
   3  13   2    9.41    4.40
   3 -13  -2    9.08    4.79
  -3 -13  -2   16.51    4.07
   3 -13   2   16.50    5.92
  -3 -13   2   18.47    5.03
  -3  13  -3   18.46    4.22
  -3  13   3   11.96    4.37
   3  13  -3   10.06    3.49
   3  13   3   13.64    4.14
   3 -13  -3   12.32    5.07
  -3 -13  -3   10.22    3.77
   3 -13   3   -2.15    3.57
  -3 -13   3   15.50    4.81
  -3  13  -4   10.08    3.39
  -3  13   4   16.35    4.87
   3  13  -4   21.39    4.65
   3  13   4   17.56    4.79
   3 -13  -4   20.83    5.48
   3 -13   4   12.15    4.98
  -3 -13   4   14.04    4.72
  -3  13  -5  126.31    9.98
  -3  13   5  139.44   17.38
   3  13  -5  141.32   12.75
   3  13   5  134.35   10.85
   3 -13  -5  116.56    8.51
  -3 -13  -5  143.42    9.30
   3 -13   5  135.47   15.68
  -3 -13   5  129.16   11.83
  -3  13  -6   28.50    6.41
  -3  13   6    9.74    3.57
   3  13   6   18.92    4.28
  -3 -13  -6   23.71    5.19
   3 -13  -6   32.30    6.77
   3 -13   6   22.07    6.41
  -3 -13   6   25.93    6.07
  -3  13  -7  125.45    7.60
   3  13  -7  131.91    8.23
  -3  13   7  131.75   12.64
  -3 -13  -7  119.80    7.18
   3 -13  -7  123.65    8.50
  -3 -13   7  128.83    8.63
  -3  13  -8    2.34    1.40
  -3  13   8    2.52    2.72
   3  13   8    6.12    3.25
  -3 -13  -8    2.51    0.99
   3 -13  -8    7.90    3.94
   3 -13   8   -2.62    3.78
  -3 -13   8    7.44    4.69
  -3  13  -9   63.50    5.59
  -3  13   9   61.57    7.72
   3  13   9   85.70    8.60
  -3 -13  -9   41.48    7.55
   3 -13  -9   68.07    6.89
   3 -13   9   71.71    8.17
  -3 -13   9   79.86    7.74
  -3  13  10    4.22    2.57
   3  13  10   14.28    5.54
  -3 -13 -10    1.28    1.15
   3 -13 -10   15.05    5.57
   3 -13  10    7.26    3.44
  -3 -13  10   14.69    5.59
  -3  13  11   41.82    7.72
   3  13  11   33.73    7.19
   3 -13 -11   25.07    5.57
   3 -13  11   29.91    7.10
  -3 -13  11   38.49    7.75
  -3  13  12   26.85    7.06
   3  13  12   15.29    4.50
   3 -13 -12   14.39    5.02
   3 -13  12   29.19    8.02
  -3 -13  12   22.50    6.24
  -3  13  13   13.88    4.89
   3  13  13    8.40    4.41
   3 -13 -13    8.03    2.34
   3 -13  13   19.58    6.67
  -3 -13  13    2.55    3.14
  -3  13  14   19.44    6.26
   3  13  14    9.76    3.64
   3 -13  14   17.54    6.27
  -3 -13  14    8.56    4.79
  -3  13  15    4.34    2.71
   3  13  15   -2.25    3.02
   3 -13 -15    4.73    2.94
   3 -13  15   16.57    6.73
  -3 -13  15    3.62    3.27
  -3  14   0   70.53   10.18
   3  14   0   40.64    8.02
   3 -14   0   49.47    6.30
  -3 -14   0   49.89    5.97
  -3  14  -1   53.61    8.03
  -3  14   1   31.65    7.32
   3  14  -1   36.04    8.20
   3  14   1   77.44   14.28
   3 -14  -1   46.48    6.54
  -3 -14  -1   42.59    8.17
   3 -14   1   44.37    6.30
  -3 -14   1   47.66    6.85
  -3  14  -2   52.12    5.85
  -3  14   2   57.92    6.70
   3  14  -2   52.96    8.83
   3  14   2   46.06    6.28
   3 -14  -2   59.04    7.18
  -3 -14  -2   46.00    5.09
   3 -14   2   54.67    6.71
  -3 -14   2   56.17    6.74
  -3  14  -3  159.75   20.93
  -3  14   3  163.87   16.74
   3  14  -3  157.64    9.87
   3  14   3  174.94   11.14
   3 -14  -3  174.05   11.20
  -3 -14  -3  154.75    9.25
   3 -14   3  139.18   10.82
  -3 -14   3  177.94   10.86
  -3  14  -4   43.97    7.17
  -3  14   4   35.69    6.85
   3  14  -4   24.42    5.71
   3  14   4   41.89    8.01
   3 -14  -4   45.97    7.03
  -3 -14  -4   22.91    5.73
   3 -14   4   30.79    6.72
  -3 -14   4   34.42    5.16
  -3  14  -5   69.65    8.26
  -3  14   5   86.60    9.31
   3  14  -5   52.00   10.65
   3  14   5   83.24   12.11
  -3 -14  -5   82.75    5.82
   3 -14  -5   87.64    6.81
   3 -14   5   82.31    8.58
  -3 -14   5   71.56    5.54
  -3  14  -6    6.14    2.55
   3  14  -6   11.11    3.38
   3  14   6   10.17    2.75
  -3 -14  -6   19.00    4.53
   3 -14  -6   14.53    4.73
   3 -14   6   21.38    6.05
  -3 -14   6    9.24    3.25
  -3  14  -7   64.54   10.51
   3  14  -7   52.07    9.51
  -3  14   7   68.72   11.10
   3  14   7  109.19   14.75
   3 -14  -7   88.63    8.30
   3 -14   7   76.93    8.01
  -3 -14   7   84.38    8.10
  -3  14  -8    1.41    1.11
  -3  14   8    6.28    2.12
   3  14   8    9.05    4.23
  -3 -14  -8    1.89    1.36
   3 -14  -8   -0.20    2.45
   3 -14   8    0.79    3.11
  -3 -14   8   13.43    6.04
  -3  14   9    6.70    2.99
   3  14   9   23.26    6.69
   3 -14  -9    9.88    3.50
   3 -14   9   16.34    5.12
  -3 -14   9   12.12    5.25
  -3  14  10    8.70    3.77
   3  14  10    9.36    5.04
   3 -14 -10   -0.87    2.46
   3 -14  10   13.51    4.69
  -3 -14  10   15.56    5.67
  -3  14  11    4.71    2.88
   3  14  11    8.39    3.05
   3 -14 -11    5.17    3.09
   3 -14  11    9.56    5.93
  -3 -14  11   11.36    4.49
  -3  14  12   14.36    5.35
   3  14  12   16.25    5.48
   3 -14 -12   10.96    4.04
   3 -14  12   19.07    6.85
  -3 -14  12   18.05    5.50
  -3  14  13    6.84    3.34
   3  14  13    9.57    5.08
   3 -14 -13    0.21    2.01
   3 -14  13    5.71    5.20
  -3 -14  13   11.45    4.41
  -3  14  14    3.26    2.88
   3  14  14   11.15    4.27
   3 -14 -14    2.93    1.79
   3 -14  14    8.94    5.47
  -3 -14  14   11.76    5.12
  -3  15   0   22.30    5.30
   3  15   0   22.00    5.90
   3 -15   0   30.03    6.89
  -3 -15   0   35.90    6.39
  -3  15  -1   32.80    6.17
  -3  15   1   33.98    8.13
   3  15  -1   33.71    7.11
   3  15   1   34.54    7.77
   3 -15  -1   28.80    6.17
  -3 -15  -1   41.93    7.69
   3 -15   1   40.07    8.35
  -3 -15   1   36.92    7.44
  -3  15  -2  149.37   12.23
  -3  15   2  127.84   14.77
   3  15  -2  142.04   11.62
   3  15   2  154.54   14.68
   3 -15  -2  148.21   12.39
  -3 -15  -2  113.48   18.22
   3 -15   2  136.60   11.50
  -3 -15   2  157.14   12.82
  -3  15  -3   26.56    5.74
  -3  15   3   43.55    9.99
   3  15  -3   44.99    8.27
   3  15   3   47.83    9.41
   3 -15  -3   52.13   10.71
  -3 -15  -3   40.73    8.82
   3 -15   3   45.18    8.30
  -3 -15   3   35.02    6.98
  -3  15  -4  161.11   18.86
  -3  15   4  176.85   36.11
   3  15  -4  156.23   15.08
   3  15   4  178.94   37.05
   3 -15  -4  202.16   38.04
  -3 -15  -4  156.52   16.80
   3 -15   4  152.18   19.81
  -3 -15   4  157.14   13.38
  -3  15  -5   43.18    8.04
  -3  15   5   41.42    8.50
   3  15  -5   35.71    6.93
   3  15   5   25.25    5.76
   3 -15  -5   40.45   10.29
  -3 -15  -5   30.57    5.34
   3 -15   5   46.53    7.36
  -3 -15   5   40.19    7.26
  -3  15  -6   80.23    9.72
  -3  15   6   84.48   11.59
   3  15  -6   69.94   10.38
   3  15   6   89.31   11.85
   3 -15  -6   87.61    8.49
  -3 -15  -6   73.47    7.30
   3 -15   6   75.58    8.03
  -3 -15   6   99.32    9.53
  -3  15  -7   45.42    6.14
  -3  15   7   40.52    5.41
   3  15   7   44.93    7.16
  -3 -15  -7   32.21    4.99
   3 -15  -7   45.36    9.77
   3 -15   7   37.66    6.20
  -3 -15   7   40.43    5.65
  -3  15   8   57.94    9.90
   3 -15  -8   36.24   10.22
   3 -15   8   60.16    9.67
  -3 -15   8   47.33    7.53
  -3  15   9   12.73    4.83
   3  15   9    9.87    4.59
   3 -15  -9   -1.17    2.41
   3 -15   9    5.51    3.41
  -3 -15   9    5.05    3.04
  -3  15  10   10.84    4.79
   3  15  10   11.26    4.48
   3 -15 -10    4.69    1.93
  -3 -15  10    7.56    4.03
  -3  15  11    7.76    3.36
   3  15  11   -3.01    3.01
   3 -15 -11    4.86    2.42
   3 -15  11   12.63    6.10
  -3 -15  11    8.73    3.52
  -3  15  12    6.72    2.98
   3  15  12   10.71    4.10
   3 -15 -12   16.63    5.03
   3 -15  12   16.74    5.47
  -3 -15  12   12.59    4.69
  -3  15  13   -2.70    2.77
   3  15  13    1.58    2.76
   3 -15 -13    2.44    2.15
   3 -15  13    1.37    3.69
  -3 -15  13   -2.74    2.92
  -3  16   0   35.41    4.77
   3  16   0   34.70    5.64
   3 -16   0   45.55    9.38
  -3 -16   0   47.01    5.37
  -3  16  -1   12.96    5.02
  -3  16   1   10.38    3.64
   3  16  -1    1.85    1.41
   3  16   1    8.48    3.96
   3 -16  -1   11.91    4.20
  -3 -16  -1    8.44    3.53
   3 -16   1   13.73    5.54
  -3 -16   1   18.03    5.40
  -3  16  -2   32.63    4.07
  -3  16   2   24.97    7.16
   3  16  -2   26.44    7.57
   3  16   2   23.96    7.26
   3 -16  -2   24.25    7.45
  -3 -16  -2   30.40    8.62
  -3 -16   2   23.69    6.36
  -3  16  -3   21.23    6.63
  -3  16   3   17.16    5.60
   3  16   3   27.88    7.77
   3 -16  -3   22.94    6.84
  -3 -16  -3   19.18    4.90
   3 -16   3   25.47    7.55
  -3 -16   3   34.93    5.02
  -3  16  -4   15.12    4.44
  -3  16   4   11.91    4.70
   3  16  -4   14.61    5.14
   3  16   4   17.24    5.38
   3 -16  -4   15.24    4.89
  -3 -16  -4   16.76    4.53
   3 -16   4   20.23    6.10
  -3 -16   4   24.55    6.01
  -3  16  -5   54.10    9.40
  -3  16   5   66.82    9.95
   3  16  -5   61.82   10.48
   3  16   5   58.23   10.96
  -3 -16  -5   37.30    9.71
   3 -16  -5   51.44    8.00
   3 -16   5   84.33   12.87
  -3 -16   5   64.59    9.01
  -3  16  -6   36.97    8.71
  -3  16   6   38.16    7.02
   3  16   6   39.97    8.61
   3 -16  -6   26.14    6.27
   3 -16   6   36.63    7.24
  -3 -16   6   46.47    7.84
  -3  16   7   78.63   13.67
   3  16   7   84.21   17.32
   3 -16  -7   45.07   13.26
   3 -16   7   86.78   14.28
  -3 -16   7   83.75   13.16
  -3  16   8   28.15    7.30
   3  16   8   30.68    8.05
   3 -16  -8   31.24    6.85
   3 -16   8   25.82    5.56
  -3 -16   8   42.28    6.41
  -3  16   9   16.81    5.60
   3  16   9   31.68    6.50
   3 -16   9   21.34    4.51
  -3 -16   9   17.88    5.52
  -3  16  10    8.38    2.92
   3  16  10   10.83    4.75
   3 -16 -10    9.07    3.87
   3 -16  10   15.12    4.98
  -3 -16  10   17.40    4.96
  -3  16  11   23.63    6.96
   3  16  11    9.96    4.22
   3 -16 -11    7.58    3.05
  -3 -16  11   30.62    8.69
  -3  17   0  107.09   22.47
   3  17   0  114.85   17.40
   3 -17   0  113.96   18.60
  -3 -17   0  125.24   18.73
  -3  17  -1   41.44    9.48
  -3  17   1   33.84    9.18
   3  17  -1   28.98    8.67
   3  17   1   45.81    9.44
   3 -17  -1   63.74   11.06
   3 -17   1   45.49    9.15
  -3 -17  -1   28.12    6.65
  -3 -17   1   35.13    6.04
  -3  17  -2   53.30   11.44
  -3  17   2   71.20   13.14
   3  17  -2   59.96   12.64
   3  17   2   66.46   13.20
   3 -17  -2   64.04   10.68
  -3 -17  -2   43.74   10.20
   3 -17   2   64.76   10.52
  -3 -17   2   77.46   12.46
  -3  17  -3   43.63    7.33
  -3  17   3   46.91   11.65
   3  17  -3   45.62    9.59
   3  17   3   33.35   10.39
   3 -17  -3   29.66    7.79
  -3 -17  -3   41.45    6.64
   3 -17   3   58.93   10.97
  -3 -17   3   40.16    9.09
  -3  17  -4   47.10    7.97
  -3  17   4   49.81    7.94
   3  17  -4   42.32    9.45
   3  17   4   41.35    5.84
   3 -17  -4   38.30    5.64
  -3 -17  -4   44.21    7.05
   3 -17   4   48.31    6.65
  -3 -17   4   50.21    6.73
  -3  17  -5   10.94    3.49
  -3  17   5   16.55    5.72
   3  17  -5    6.96    2.40
   3  17   5    8.14    1.94
   3 -17  -5   10.34    4.47
   3 -17   5   17.51    7.08
  -3 -17   5   12.97    4.27
  -3  17  -6    4.49    2.43
  -3  17   6   21.55    6.16
   3  17   6    8.32    3.51
   3 -17   6    9.14    3.82
  -3 -17   6   13.74    4.77
  -3  17   7    3.21    2.77
   3  17   7    9.54    3.27
   3 -17  -7    3.95    2.54
   3 -17   7   15.72    6.67
  -3 -17   7    7.31    4.45
   3  17   8   17.17    4.92
   3 -17  -8    6.74    2.41
   3 -17   8   26.04    7.11
  -3 -17   8   17.52    5.36
  -3  17   9   12.80    5.67
   3  17   9    9.09    3.31
   3 -17  -9    6.36    3.30
   3 -17   9   10.92    5.41
  -3 -17   9   14.04    5.63
  -3  18   0    8.97    3.90
   3  18   0    9.55    3.90
   3 -18   0   10.67    5.23
  -3 -18   0    3.28    2.82
  -3  18  -1    1.83    2.10
  -3  18   1    5.64    1.97
   3  18  -1    2.87    2.12
   3  18   1    3.32    2.19
   3 -18  -1    1.57    2.94
  -3 -18  -1    8.45    2.63
   3 -18   1    3.51    1.89
  -3 -18   1    1.15    2.13
  -3  18  -2    2.58    2.17
  -3  18   2    0.59    1.16
   3  18  -2    6.12    1.97
   3  18   2    6.96    3.15
   3 -18  -2    8.08    3.23
  -3 -18  -2    8.30    3.09
   3 -18   2   11.25    4.75
  -3 -18   2    4.57    3.41
  -3  18  -3    5.39    2.37
  -3  18   3    7.80    2.96
   3  18  -3    7.45    2.54
   3  18   3   12.06    3.80
   3 -18  -3    4.14    2.86
   3 -18   3   13.60    6.13
  -3 -18   3    8.75    3.27
  -3  18  -4   13.05    4.14
  -3  18   4   15.53    5.67
   3  18  -4    7.19    2.77
   3  18   4   13.86    4.71
   3 -18  -4    5.65    2.53
   3 -18   4   22.98    6.50
  -3 -18   4   10.96    4.32
  -3  18  -5    5.68    2.31
  -3  18   5    5.66    2.43
   3  18   5   12.95    5.95
   3 -18  -5   14.98    4.89
   3 -18   5   20.09    6.02
  -3 -18   5    7.57    4.30
  -3  18   6    9.92    3.99
   3  18   6   18.49    6.05
   3 -18  -6    8.36    3.31
   3 -18   6   22.38    7.10
  -3 -18   6   25.69    6.94
  -3  18   7   -0.21    2.65
   3  18   7   10.55    4.01
   3 -18  -7   11.69    5.04
   3 -18   7   -1.96    3.22
  -3 -18   7   10.97    4.04
  -3  19   0   42.89   10.50
   3  19   0   43.50   11.56
   3 -19   0   35.58    9.08
  -3 -19   0   29.36    7.17
  -3  19  -1   29.43    9.52
  -3  19   1   59.69   14.69
   3  19  -1   33.78    9.15
   3  19   1   43.09   12.04
   3 -19  -1   60.24   14.34
   3 -19   1   38.57   10.74
  -3 -19   1   58.65   13.79
  -3  19  -2    6.81    2.59
  -3  19   2   19.87    5.89
   3  19  -2   14.32    5.34
   3  19   2   41.24   10.33
   3 -19   2   21.98    6.83
  -3 -19   2   17.31    5.25
  -4   0   0 9085.82  973.41
   4   0   0 8866.61  949.92
  -4   0  -1 9456.42 1013.10
  -4   0   1 9610.24 1029.58
   4   0   1 9368.28 1003.66
   4   0  -1 9865.82 1056.96
   4   0   1 9999.00 1071.17
  -4   0  -2 3775.46   50.83
   4   0   2 3705.90   49.85
  -4   0   2 3587.80   48.30
   4   0  -2 3482.91   46.80
   4   0  -2 3629.80   48.88
   4   0   2 3686.06   49.08
  -4   0  -2 3655.45   48.64
  -4   0  -3 3609.34   48.72
   4   0   3 3310.18   44.64
   4   0  -3 3366.79   45.27
   4   0  -3 3472.88   46.98
   4   0   3 3550.20   47.35
  -4   0  -3 3584.25   47.73
  -4   0  -4   11.59    1.72
  -4   0   4    8.42    1.65
   4   0  -4    3.01    1.02
   4   0  -4    4.19    1.03
  -4   0   4    8.49    1.48
   4   0   4    7.30    1.62
  -4   0  -5  679.82   10.29
   4   0   5  643.91    9.69
  -4   0   5  688.95   10.32
   4   0  -5  663.16    9.69
   4   0   5  714.85   10.35
   4   0  -5  702.13   11.12
   4   0   5  700.68   10.15
  -4   0  -6   96.12   11.38
   4   0   6   84.50    9.78
  -4   0   6   95.36   11.37
   4   0  -6   84.21    9.22
   4   0   6   92.78   10.13
   4   0  -6   90.20   10.20
   4   0   6   94.85   10.44
  -4   0  -7   67.18    9.27
   4   0   7   51.56    7.50
  -4   0   7   74.00   10.47
   4   0  -7   58.48    7.03
   4   0   7   62.98    7.82
   4   0  -7   64.82    7.61
   4   0   7   58.50    7.29
  -4   0  -8    2.88    1.41
   4   0   8    1.27    0.87
  -4   0   8    3.94    1.75
   4   0  -8    3.81    1.20
   4   0   8    2.48    0.83
   4   0  -8    6.38    3.62
   4   0   8    5.23    2.30
  -4   0  -9    0.50    1.03
  -4   0   9    0.14    0.91
   4   0  -9    0.90    1.20
   4   0  -9    4.47    2.89
   4   0   9    3.15    1.67
  -4   0 -10   17.60    2.96
  -4   0  10   18.42    2.89
   4   0 -10    8.44    1.79
   4   0 -10   16.17    3.92
   4   0  10    5.95    2.10
  -4   0  11   27.13    4.58
   4   0 -11   15.61    4.74
   4   0  11   27.75    4.23
  -4   0  12   47.66    6.25
   4   0 -12   28.73    6.35
   4   0  12   41.74    8.13
   4   0 -12   46.51    7.29
  -4   0  13  106.94   12.29
   4   0 -13   91.60    7.54
   4   0  13  110.95   15.77
   4   0 -13  109.55   14.17
  -4   0  14   -0.99    0.92
   4   0  14    3.58    2.38
   4   0 -14   10.19    4.33
  -4   0  15   25.60    6.01
   4   0  15   27.10    6.81
   4   0 -15   31.37    6.95
   4   0  15   30.96    5.91
   4   0  16   14.41    4.16
   4   0 -16    2.82    1.71
   4   0  16    3.77    2.29
   4   0  17    6.79    1.91
   4   0 -17   11.99    5.14
   4   0  17    6.08    2.84
   4   0 -18   15.55    4.83
   4   0  18   13.14    4.48
   4   0 -19    2.92    2.76
   4   0  19   -0.74    1.56
   4   0 -20    7.42    3.24
   4   0  20    1.45    2.14
  -4  -1   0  442.21    7.15
  -4   1   0  425.69   45.82
   4   1   0  422.77   45.40
  -4  -1   0  424.75   45.59
   4  -1   0  443.26    6.88
  -4   1   0  406.83   43.69
  -4  -1  -1  403.35   14.32
  -4  -1   1  375.03   13.42
  -4   1   1  385.60   13.81
   4  -1   1  385.53   13.75
   4   1  -1  330.68   11.65
  -4  -1   1  351.21   12.30
   4   1   1  351.32   12.18
   4  -1  -1  378.50   13.45
  -4  -1  -1  379.45   13.09
  -4   1  -1  371.80   13.17
   4   1   2  145.33    8.24
   4  -1   2  167.24    6.39
   4   1  -2  167.49    7.72
  -4   1   2  165.08    6.49
  -4  -1   2  141.20    5.40
   4  -1  -2  143.86    5.73
  -4   1   2  150.98    5.73
   4   1   2  149.56    5.35
   4  -1   2  177.72    6.62
  -4   1  -2  148.85    5.80
  -4  -1  -2  171.09    6.01
   4   1   3   15.45    2.79
  -4  -1   3   18.56    2.53
   4  -1   3   20.63    3.17
   4   1  -3   19.42    2.66
  -4   1   3   30.33    4.46
   4  -1  -3   17.11    2.87
   4   1  -3   21.70    2.79
  -4  -1   3   11.66    1.65
   4  -1  -3   14.38    2.08
  -4   1   3   22.80    2.68
   4   1   3   18.63    2.80
   4  -1   3   20.97    2.57
  -4   1  -3   13.89    1.76
  -4  -1  -3   19.91    2.07
  -4  -1  -4  360.87   12.96
   4   1   4  302.89   10.84
  -4   1  -4  331.57   13.69
   4  -1   4  357.25   12.73
  -4  -1   4  319.37   11.40
  -4   1   4  335.18   12.05
   4   1  -4  323.26   11.44
   4  -1  -4  313.06   11.20
   4   1   4  315.54   10.94
   4   1  -4  361.89   13.09
   4  -1  -4  332.05   12.12
   4  -1   4  342.23   12.11
   4   1   4  334.46   11.66
  -4   1  -4  320.29   11.29
  -4  -1  -5   87.98    9.90
  -4   1  -5  105.62    7.52
   4   1   5   94.40    5.68
   4  -1   5   77.58    7.90
  -4  -1   5   99.74    4.62
  -4   1   5   83.69    8.39
   4   1  -5   80.67    7.92
   4  -1  -5  101.32    4.08
   4  -1   5   81.80    8.08
   4   1   5  107.56    4.55
   4   1  -5   89.92   11.43
   4  -1  -5   98.15    4.71
  -4  -1   5   93.86    4.16
   4  -1   5   81.04    8.50
   4   1   5  107.78    4.11
  -4  -1  -6  304.68   37.37
  -4   1  -6  239.74   13.61
   4   1   6  221.14   13.70
   4  -1   6  273.34   15.17
  -4  -1   6  231.90   12.87
  -4   1   6  291.16   16.13
   4   1  -6  278.58   15.26
   4  -1  -6  225.42   12.51
   4  -1   6  302.84   36.95
   4   1   6  241.18   13.23
   4   1  -6  298.63   36.59
   4  -1  -6  221.16   12.59
   4   1   6  238.46   13.15
  -4  -1  -7   49.22    7.31
  -4   1  -7   42.19    6.34
   4  -1   7   38.75    5.40
  -4  -1   7   40.85    5.19
  -4   1   7   55.65    9.09
   4   1  -7   47.51    5.30
   4  -1  -7   39.25    4.51
   4  -1   7   43.82    6.48
   4   1  -7   44.80    6.93
   4   1   7   34.49    4.86
   4  -1  -7   37.04    4.67
   4  -1   7   46.03    5.35
   4   1   7   45.56    6.02
  -4  -1  -8  345.58   12.06
  -4   1  -8  291.29    9.43
   4  -1   8  292.92    9.17
  -4  -1   8  266.15    8.61
  -4   1   8  340.11   12.51
   4   1  -8  337.36   10.25
   4  -1  -8  262.46    8.27
  -4  -1  -8  325.01    9.98
   4  -1   8  315.32    9.77
   4   1  -8  355.23   11.61
   4   1   8  279.62    8.73
   4  -1  -8  286.81    9.79
   4  -1   8  326.17   10.36
  -4  -1  -9   62.31    9.23
  -4   1  -9   76.51    7.88
   4  -1   9   50.35    7.11
  -4  -1   9   85.69    9.03
  -4   1   9   75.53    9.24
   4   1  -9   47.76    7.49
   4  -1  -9   65.57    6.40
  -4  -1  -9   67.53    7.86
   4   1  -9   57.84    7.97
   4  -1  -9   88.21    8.96
   4   1   9   67.10    8.05
   4  -1   9   56.26    5.60
  -4   1 -10  336.96   13.95
  -4  -1  10  320.09   13.05
  -4   1  10  328.62   13.64
   4  -1 -10  274.18   11.25
   4   1 -10  317.83   12.86
   4   1  10  336.04   15.15
  -4  -1 -10  334.62   13.88
   4   1 -10  352.02   23.28
   4  -1  10  323.07   13.68
  -4   1 -11  183.83   14.13
  -4  -1  11  186.34   15.16
  -4   1  11  170.51   13.20
   4  -1 -11  149.31   11.45
   4   1 -11  151.18   11.55
   4   1  11  181.48   14.15
  -4  -1 -11  150.94   11.73
   4   1 -11  193.54   34.35
   4  -1 -11  185.00   18.80
   4  -1  11  165.98   12.99
  -4  -1  12  302.50   14.29
  -4   1  12  325.57   15.55
   4   1 -12  300.61   13.97
   4   1  12  304.16   15.00
   4  -1  12  309.80   14.78
  -4  -1 -12  318.74   15.20
   4  -1 -12  308.69   22.78
   4  -1  12  323.30   15.60
  -4  -1  13   20.26    4.05
  -4   1  13   18.08    4.09
   4   1  13   19.04    4.12
   4  -1  13    9.94    3.05
   4   1 -13    6.53    2.29
  -4  -1 -13   17.17    4.05
   4  -1 -13   17.44    4.18
   4  -1  13    6.38    2.92
  -4  -1  14   57.13    8.45
  -4   1  14   61.52    7.91
   4   1  14   70.84    8.83
   4  -1  14   50.15   10.53
  -4  -1 -14   63.57   10.50
   4   1 -14   65.81    9.10
   4  -1 -14   79.92   22.18
   4  -1  14   54.16    7.34
  -4   1  15   14.99    3.43
   4   1  15   17.69    5.16
   4  -1  15   15.41    3.49
  -4  -1 -15   13.46    3.99
   4   1 -15   13.40    4.59
   4  -1 -15   10.92    4.92
   4  -1  15    4.46    2.70
  -4   1  16   24.21    5.59
   4   1  16   37.14    7.13
   4  -1  16   14.57    4.36
  -4  -1 -16   21.76    5.36
   4   1 -16   20.13    5.29
   4  -1 -16   26.80    7.23
   4  -1  16   25.33    5.68
   4   1  17   11.76    3.54
  -4  -1 -17   12.31    3.59
   4   1 -17   13.94    4.75
   4  -1 -17   14.18    4.87
   4  -1  17   11.26    4.24
   4   1 -18    9.54    3.96
   4  -1 -18   14.00    4.78
   4  -1  18    7.65    3.15
   4   1  18   18.46    4.43
   4   1 -19   10.28    3.89
   4  -1 -19    2.00    2.82
   4  -1  19    5.64    2.60
   4   1  19    6.19    2.26
   4   1 -20    9.94    4.07
   4  -1 -20    6.22    2.26
   4  -1  20    6.53    3.68
   4   1  20    1.74    2.06
   4   2   0  786.56   11.38
   4  -2   0  775.13   11.51
   4   2   0  726.23   10.18
   4  -2   0  794.19   11.93
  -4  -2  -1 2966.11   40.16
  -4  -2   1 3117.30   42.02
   4   2  -1 2878.80   38.78
  -4   2   1 2884.23   39.25
   4  -2   1 2890.48   39.23
   4   2  -1 2799.37   37.61
  -4  -2   1 2818.55   37.82
  -4  -2  -1 2726.80   36.21
   4  -2  -1 3096.23   41.80
  -4   2   1 2729.82   36.85
   4  -2   1 3022.21   40.77
  -4   2  -1 3087.23   41.44
  -4  -2  -2 1176.95   16.85
   4   2   2 1163.85   16.44
  -4  -2   2 1245.37   17.40
   4   2  -2 1266.97   17.64
  -4   2  -2 1255.75   17.94
   4  -2   2 1196.18   17.04
  -4   2   2 1199.72   17.21
   4  -2  -2 1172.57   16.67
   4   2  -2 1277.72   17.89
  -4  -2   2 1230.32   17.11
   4  -2  -2 1239.52   17.62
  -4   2  -2 1258.40   17.44
  -4  -2  -2 1171.90   15.55
   4   2   3  512.74    7.96
  -4  -2   3  532.01    8.05
  -4   2  -3  551.99    8.69
  -4  -2   3  529.42    8.13
   4  -2  -3  525.89    8.51
  -4   2   3  569.02    8.76
   4   2   3  522.28    7.02
  -4   2  -3  531.11    7.93
   4   2   4  316.11   12.20
  -4  -2   4  331.27   11.84
  -4   2  -4  341.60   12.29
   4  -2   4  342.75   12.29
   4   2  -4  342.50   12.01
   4  -2  -4  312.10   11.23
   4   2  -4  361.04   13.09
   4   2   4  285.19    9.86
  -4  -2   4  332.25   11.89
   4  -2  -4  344.14   12.62
   4  -2   4  369.58   13.18
   4   2   4  325.59   11.22
  -4   2  -4  345.73   12.21
  -4   2  -5  111.21    8.90
  -4  -2   5  109.94    7.73
   4  -2   5   55.83    6.27
   4   2  -5   60.32    7.23
  -4   2   5   64.29    7.37
   4  -2  -5   97.17   12.43
   4   2  -5   70.35   11.71
   4   2   5   94.88   10.27
   4  -2  -5  103.05    6.61
   4  -2   5   62.14    7.60
   4   2   5  104.46    5.97
  -4   2  -5  101.86    5.89
  -4  -2  -6  314.96    9.53
  -4   2  -6  334.09    9.88
  -4  -2   6  313.43    9.21
   4  -2   6  313.64    9.25
   4   2  -6  298.05   36.38
  -4   2   6  327.11    9.92
   4  -2  -6  299.40   36.60
  -4  -2  -6  298.94   36.44
   4  -2   6  332.49    9.69
   4   2  -6  323.16    9.97
   4   2   6  304.03   37.07
   4  -2   6  343.71   10.31
  -4  -2  -7   72.74    8.93
  -4   2  -7   77.63    9.60
  -4  -2   7   83.84   10.44
  -4   2   7   70.82    9.85
   4   2  -7   63.54    7.14
   4  -2  -7   68.48    7.63
  -4  -2  -7   73.06    8.68
   4  -2   7   59.70    8.06
   4   2  -7   72.71   12.15
   4   2   7   75.14    9.28
   4  -2  -7   74.30    8.55
   4  -2   7   61.38    7.29
  -4  -2  -8    4.19    1.64
  -4   2  -8   10.02    1.90
   4  -2   8    6.54    1.31
  -4  -2   8    5.21    1.28
  -4   2   8   10.95    2.43
   4   2  -8    4.81    1.14
   4  -2  -8    4.33    1.51
  -4  -2  -8    7.56    1.36
   4   2  -8   12.70    2.54
   4   2   8    4.53    0.94
   4  -2  -8    7.72    2.42
   4  -2   8    5.36    1.82
  -4   2  -9   61.22    7.15
   4  -2   9   37.22    5.47
  -4  -2   9   48.87    6.64
  -4   2   9   55.14   14.99
   4   2  -9   47.80    6.31
   4   2   9   58.50    5.95
  -4  -2  -9   58.67    7.24
   4   2  -9   56.20    7.12
   4   2   9   45.73    5.41
   4  -2   9   42.99    5.48
  -4   2 -10  181.10   13.82
   4  -2  10  150.83   11.59
  -4  -2  10  175.92   13.35
  -4   2  10  185.55   14.45
   4   2 -10  165.26   12.61
   4   2  10  173.67   13.57
  -4  -2 -10  173.62   13.29
   4   2 -10  165.81   14.36
   4  -2 -10  191.85   33.02
   4  -2  10  162.60   12.78
  -4   2 -11   14.57    4.16
  -4  -2  11    9.56    2.62
  -4   2  11    1.92    1.02
   4   2 -11    6.34    2.06
   4   2  11   10.36    3.40
  -4  -2 -11    9.18    2.64
   4   2 -11   14.82    4.55
   4  -2 -11   12.66    4.10
   4  -2  11    5.41    3.49
  -4   2 -12   19.79    4.34
  -4  -2  12   16.29    3.22
  -4   2  12   16.58    3.55
   4   2  12   21.99    4.36
   4   2 -12   14.77    3.11
  -4  -2 -12   20.14    4.03
   4   2 -12   21.26    5.68
   4  -2 -12   14.47    3.42
   4  -2  12   25.07    5.63
  -4  -2  13  105.89    8.53
  -4   2  13  112.88   10.52
   4   2  13  110.26   10.02
   4  -2  13  111.57   10.43
  -4  -2 -13  126.06    9.78
   4   2 -13  121.98   11.13
   4  -2 -13   97.72   14.04
   4  -2  13  118.78   30.64
  -4   2  14    9.36    3.31
   4   2  14   23.48    4.79
   4  -2  14   12.70    3.88
  -4  -2 -14   13.38    3.30
   4  -2 -14   28.77    7.67
   4  -2  14    9.69    4.65
  -4   2  15   31.22    6.39
   4   2  15   39.56    8.46
   4  -2  15   29.69    5.52
  -4  -2 -15   25.93    5.96
   4   2 -15   30.85    7.37
   4  -2 -15   38.78    9.23
   4  -2  15   31.40    6.05
  -4   2  16   64.81    6.04
   4   2  16   56.73   10.47
   4  -2  16   38.68    9.00
  -4  -2 -16   49.53    9.70
   4   2 -16   68.07   11.44
   4  -2 -16   53.76   12.65
   4  -2  16   70.74    6.61
   4   2  17    2.25    1.98
  -4  -2 -17    2.65    1.47
   4   2 -17    1.81    2.78
   4  -2 -17    6.71    2.48
   4  -2  17    9.64    5.13
   4   2  18    2.70    1.39
  -4  -2 -18    5.26    1.28
   4   2 -18    9.37    3.97
   4  -2 -18    9.43    4.15
   4  -2  18    4.02    2.57
  -4  -2 -19   -1.48    1.44
   4   2 -19    2.99    2.05
   4  -2 -19    1.83    1.86
   4  -2  19    1.28    2.32
   4   2 -20    7.81    3.47
   4  -2 -20    4.80    2.45
   4  -2  20    6.96    2.91
   4   2  20    6.83    3.72
  -4  -3   0   74.24    8.00
   4   3   0   66.95    7.48
  -4   3   0   63.49    9.16
   4  -3   0   58.52    7.45
   4   3   0   66.38    6.80
  -4  -3   0   60.73    5.93
   4  -3   0   65.94    7.94
  -4   3   0   62.64    6.32
  -4  -3  -1   76.60    7.95
   4   3   1   87.66    9.65
   4   3  -1   67.16    6.83
  -4   3  -1   84.87    8.51
  -4   3   1   58.25    7.30
   4  -3   1   59.09    6.44
   4  -3  -1   71.40    7.44
   4   3   1   75.86    7.29
   4   3  -1   71.03    7.79
  -4  -3   1   87.26    8.49
  -4  -3  -1   55.52    5.46
   4  -3  -1   86.49    8.66
   4  -3   1   70.00    7.27
  -4  -3  -2  205.86   10.79
  -4  -3   2  199.95    9.06
   4   3  -2  179.30    7.26
  -4   3   2  193.96    7.51
   4  -3  -2  194.38    7.36
   4   3  -2  184.56    6.84
  -4  -3   2  187.87    6.90
   4  -3  -2  196.15    7.69
  -4   3   2  187.46    7.21
   4  -3   2  187.67    7.35
  -4   3  -2  184.83    6.84
   4   3   3  247.41    9.45
  -4  -3   3  267.30   12.09
   4   3  -3  261.66    9.31
  -4   3  -3  256.27    9.48
   4  -3   3  263.56   10.10
  -4   3   3  272.12   10.22
   4  -3  -3  246.45    9.05
   4   3  -3  277.32   10.09
  -4  -3   3  263.34    9.52
   4  -3  -3  255.98    9.59
  -4   3  -3  254.47    9.18
  -4  -3  -4  309.60   11.36
   4   3   4  273.15   10.48
  -4  -3   4  299.18   36.72
  -4   3  -4  299.81   36.66
   4   3  -4  302.74   36.97
   4  -3   4  299.26   36.59
  -4   3   4  319.10    9.84
   4  -3  -4  290.69   16.14
  -4  -3   4  286.73   15.84
   4  -3  -4  275.33   15.43
   4   3   4  290.92   15.72
  -4   3  -4  315.60    9.22
   4   3   4  250.13   13.54
  -4  -3  -5  381.74   11.64
  -4  -3   5  351.03   10.00
  -4   3  -5  345.22   10.11
   4   3  -5  367.91   10.52
   4  -3   5  359.68   10.46
  -4   3   5  371.82   11.25
   4  -3  -5  340.08   10.04
  -4  -3  -5  309.33    8.57
   4   3  -5  389.63   11.72
   4   3   5  339.15    9.43
   4  -3   5  406.05   12.14
  -4   3  -5  359.40   10.39
  -4  -3  -6  292.55   17.07
  -4  -3   6  305.78   37.27
  -4   3  -6  317.64    9.33
   4   3  -6  285.78   15.58
  -4   3   6  307.17    9.52
  -4  -3  -6  274.02   14.93
   4   3  -6  313.42    9.68
   4  -3  -6  324.59   10.02
   4   3   6  290.13   15.84
   4  -3   6  298.45   36.57
  -4  -3   7  124.08    9.32
  -4   3  -7  118.32    8.84
   4  -3   7   96.30    9.04
  -4   3   7  119.47   12.93
   4   3  -7   95.12    6.80
   4   3   7  119.37    9.25
  -4  -3  -7  105.16    8.42
   4   3  -7  114.09   11.21
   4   3   7  107.42    7.73
   4  -3   7  101.26    7.79
  -4   3  -8  148.77   10.67
  -4  -3   8  140.32   10.20
   4  -3   8  180.27   14.09
  -4   3   8  203.86   14.79
   4   3  -8  204.18   14.35
   4   3   8  163.96   14.60
  -4  -3  -8  214.66   15.19
   4   3  -8  232.34   18.51
   4   3   8  134.22    9.81
   4  -3   8  210.79   15.31
  -4   3  -9   65.66    7.98
  -4  -3   9   48.65    6.04
   4  -3   9   44.71    6.46
  -4   3   9   71.94   10.11
   4   3  -9   53.49    6.41
   4   3   9   58.28    6.02
  -4  -3  -9   70.90    7.55
   4   3  -9   62.27    8.25
   4  -3  -9   54.69   14.17
   4   3   9   51.92    6.31
   4  -3   9   62.77    6.57
  -4   3 -10    1.47    0.76
  -4  -3  10    1.25    0.59
   4  -3  10    0.47    0.89
  -4   3  10    9.99    3.22
   4   3 -10    4.16    1.20
   4   3  10    1.54    1.84
  -4  -3 -10    4.88    1.55
   4   3 -10    8.52    2.73
   4  -3 -10   -1.14    2.29
   4   3  10   -0.42    0.84
   4  -3  10    8.04    3.29
  -4   3 -11   13.20    2.99
  -4  -3  11    4.94    1.19
   4  -3  11    5.83    1.64
  -4   3  11    8.80    2.49
   4   3  11    8.07    2.40
  -4  -3 -11    7.71    1.89
   4   3 -11    6.26    2.02
   4  -3 -11   13.18    4.08
   4  -3  11    8.78    2.83
  -4   3 -12   10.27    2.68
  -4   3  12    7.71    2.61
   4   3  12    0.87    1.88
  -4  -3 -12    9.23    2.61
   4   3 -12   19.29    5.25
   4  -3 -12   11.97    3.95
   4  -3  12   12.26    3.80
  -4   3  13   73.55    9.15
   4   3  13   66.47   10.27
   4  -3  13   63.21    6.08
  -4  -3 -13   63.70   10.01
   4   3 -13   76.11   10.77
   4  -3 -13   74.60   10.21
   4  -3  13   63.18    6.21
  -4   3  14    8.89    3.56
   4   3  14    1.00    1.39
   4  -3  14    6.27    2.46
  -4  -3 -14    7.97    2.42
   4   3 -14    5.78    2.48
   4  -3 -14    5.41    2.38
   4  -3  14   15.58    4.98
  -4   3  15   65.95   14.29
   4   3  15   54.55    9.07
   4  -3  15   52.68    6.86
  -4  -3 -15   43.04    8.93
   4  -3 -15   47.98   10.78
   4  -3  15   65.77   13.85
  -4   3  16   19.70    4.91
   4   3  16   23.79    6.26
  -4  -3 -16   18.19    4.70
   4   3 -16   26.16    5.72
   4  -3 -16   21.30    5.17
   4  -3  16   18.62    5.01
  -4   3  17    8.68    3.27
   4   3  17    8.97    3.29
  -4  -3 -17    6.76    2.12
   4   3 -17    2.89    1.52
   4  -3 -17    5.22    2.64
   4  -3  17   10.39    3.72
   4   3  18   35.31   10.00
  -4  -3 -18   42.01    9.69
   4   3 -18   51.56   12.06
   4  -3 -18   44.58    9.28
   4  -3  18   65.11   11.00
  -4  -3 -19    4.88    1.89
   4   3 -19    9.06    3.94
   4  -3 -19    6.37    3.35
   4  -3  19    5.39    2.93
   4   3 -20   20.28    5.65
   4  -3 -20   14.54    4.58
   4  -3  20   12.51    4.25
  -4  -4   0  182.05   10.03
   4   4   0  162.25    6.71
   4  -4   0  157.53    7.82
  -4  -4   0  157.67    5.70
   4  -4   0  174.93    7.15
  -4  -4   0  148.43    5.46
  -4  -4  -1  118.48    9.06
  -4  -4   1  144.13    8.48
   4   4  -1  103.81    5.44
  -4   4  -1  122.17    5.19
   4  -4   1   90.16   10.01
   4  -4  -1  126.81    5.27
   4   4  -1  107.97    5.05
  -4  -4  -1   84.08    8.23
  -4  -4   1  120.36    5.45
   4  -4  -1  122.17    5.26
   4  -4   1   99.37    4.58
  -4   4  -1  113.19    4.64
  -4  -4  -1   94.85    4.32
  -4  -4  -2  171.96   10.51
   4   4  -2  147.06    7.07
  -4   4  -2  178.20    6.93
  -4   4   2  167.80    7.08
   4  -4   2  135.81    5.40
   4   4  -2  153.31    5.80
  -4  -4   2  190.86    6.96
   4  -4  -2  197.53    8.68
  -4   4   2  145.66    5.67
  -4  -4  -2  149.22    5.25
   4  -4   2  161.70    6.73
  -4  -4  -3  504.39   14.66
  -4  -4   3  483.75   13.84
   4   4  -3  471.21   13.53
  -4   4  -3  460.90   13.33
   4  -4   3  460.02   13.26
  -4   4   3  477.55   13.99
   4   4  -3  516.01   14.65
  -4  -4   3  474.44   13.45
   4  -4   3  474.17   13.69
  -4   4  -3  457.10   12.99
   4   4  -4  448.31   12.74
  -4   4  -4  515.19   14.81
   4  -4   4  428.02   12.36
  -4   4   4  456.93   13.63
   4   4  -4  489.53   14.79
   4  -4   4  470.05   13.71
   4   4   4  499.63   13.61
  -4  -4   5  280.52   15.38
   4   4  -5  232.84   12.90
  -4   4  -5  305.48   37.36
   4  -4   5  215.34   13.23
  -4   4   5  224.13   12.83
   4   4   5  303.75   37.28
  -4  -4  -5  191.79   10.45
   4   4   5  280.94   15.24
  -4  -4   6  172.96   12.40
  -4   4  -6  160.95   11.56
   4   4  -6  140.37    9.99
   4  -4   6  138.93   10.10
  -4   4   6  151.04   12.90
   4   4  -6  155.63   14.80
  -4  -4  -6  136.65    9.91
   4   4   6  164.25   11.65
   4  -4   6  156.50   11.77
  -4  -4   7    8.26    1.34
  -4   4  -7    9.23    1.77
   4  -4   7    1.26    1.33
   4   4  -7    0.27    0.48
  -4   4   7    4.31    2.36
   4   4   7   11.20    3.32
   4   4  -7    5.89    2.20
  -4  -4  -7    2.80    0.80
   4  -4  -7    5.80    2.25
   4   4   7   10.15    1.64
   4  -4   7    9.58    3.71
  -4  -4   8  114.97   10.13
  -4   4  -8  129.42   12.91
   4  -4   8  105.33    9.53
  -4   4   8  126.40   16.29
   4   4  -8  112.81   10.15
   4   4   8  112.17   10.57
   4   4  -8  148.30   14.78
  -4  -4  -8  144.67   13.72
   4  -4  -8  123.39   11.48
   4   4   8  108.22    9.79
   4  -4   8  120.72   11.67
  -4   4  -9   60.59    7.06
   4  -4   9   34.92    5.95
  -4   4   9   47.83    8.58
   4   4  -9   38.65    4.59
   4   4   9   53.95    6.93
   4   4  -9   45.16    7.76
  -4  -4  -9   46.29    7.32
   4  -4  -9   58.60    6.27
   4   4   9   50.54    6.74
   4  -4   9   48.68    6.64
  -4   4 -10   14.69    4.32
   4  -4  10   12.84    3.56
  -4   4  10   17.37    5.45
   4   4  10   11.06    3.74
   4   4 -10   20.13    5.82
  -4  -4 -10   18.19    5.32
   4  -4 -10   17.02    5.47
   4   4  10   10.40    2.97
   4  -4  10    9.28    3.22
  -4   4 -11  100.60   10.85
   4  -4  11   62.23    7.69
  -4   4  11   90.27   12.89
   4   4  11  106.98   11.87
   4   4 -11   80.97   10.77
  -4  -4 -11   84.21    9.28
   4  -4 -11  105.51   11.90
   4  -4  11   86.41   10.03
  -4   4 -12  130.69   32.98
   4  -4  12   75.78   11.76
  -4   4  12  106.37   15.28
   4   4  12  124.80   19.73
  -4  -4 -12  115.60   16.71
   4   4 -12  120.25   18.25
   4  -4 -12  138.58   20.13
   4  -4  12  123.97   18.03
  -4   4 -13    8.50    2.62
  -4   4  13    4.85    2.30
   4   4  13    7.93    2.55
  -4  -4 -13    5.75    1.92
   4   4 -13   11.95    3.73
   4  -4 -13    4.41    3.03
   4  -4  13    4.34    3.26
  -4   4  14  217.64   13.84
   4   4  14  205.24   13.23
   4  -4  14  217.06   13.74
   4   4 -14  225.60   19.38
  -4  -4 -14  230.27   15.97
   4  -4 -14  194.14   12.74
   4  -4  14  228.65   15.05
  -4   4  15   11.38    3.28
   4   4  15    6.99    3.34
  -4  -4 -15    6.05    1.63
   4   4 -15    5.44    3.67
   4  -4 -15   16.13    4.64
   4  -4  15    3.79    4.14
  -4   4  16   78.33    7.40
   4   4  16   51.53   10.95
  -4  -4 -16   76.34   10.13
   4  -4 -16   66.18   11.74
   4  -4  16   75.26    7.43
  -4   4  17    9.89    3.49
   4   4  17   11.65    5.19
  -4  -4 -17    6.15    1.84
   4   4 -17    8.73    3.29
   4  -4 -17   13.88    4.41
   4  -4  17   16.99    4.88
   4   4  18   22.21    7.09
  -4  -4 -18   18.28    5.16
   4   4 -18   23.24    6.32
   4  -4 -18   17.38    8.42
   4  -4  18   31.10    7.79
   4   4  19    3.46    1.86
   4   4 -19    9.27    3.54
   4  -4 -19    6.56    2.57
   4  -4  19    0.39    2.77
   4   4 -20    7.10    4.10
   4  -4 -20    5.48    2.58
   4  -4  20   17.47    5.62
   4   5   0  714.68   19.99
  -4   5   0  776.22   22.06
  -4  -5   0  663.93   18.31
   4  -5   0  746.20   21.14
  -4  -5   0  747.81   20.77
  -4  -5   1  111.95    8.84
   4   5   1   93.84   11.21
   4   5  -1   68.14    7.95
  -4   5   1   88.41   10.17
  -4  -5  -1   74.90    8.66
  -4  -5   1   94.77   11.04
   4  -5  -1   80.64    9.20
   4  -5   1   77.09    8.83
  -4  -5  -1   77.55    8.50
  -4  -5   1  106.13    7.75
  -4  -5   2  501.90   14.20
   4   5  -2  524.72   16.67
  -4   5  -2  536.74   15.43
  -4   5   2  539.85   15.73
   4  -5   2  491.53   14.12
   4   5   2  541.70   15.84
   4   5  -2  533.58   15.02
  -4  -5   2  553.76   15.52
  -4  -5  -2  536.57   14.84
   4  -5   2  554.80   15.99
  -4  -5   3  598.74   16.86
   4   5  -3  587.30   16.67
  -4   5  -3  610.81   17.42
   4  -5   3  572.01   16.26
  -4   5   3  645.48   18.69
   4   5   3  604.85   17.46
   4   5  -3  639.23   18.05
  -4  -5   3  638.75   18.03
  -4  -5  -3  593.70   16.24
   4  -5   3  620.07   17.80
   4   5   3  536.42   14.70
  -4  -5   4  494.47   14.02
   4   5  -4  547.75   15.66
  -4   5  -4  509.66   14.65
   4  -5   4  511.43   14.65
  -4   5   4  562.83   16.45
   4   5  -4  583.46   16.66
  -4  -5  -4  487.97   13.41
   4  -5   4  565.18   16.46
   4   5   4  525.23   14.41
   4   5  -5  724.16   21.36
  -4   5  -5  623.02   18.80
   4  -5   5  720.13   20.29
  -4   5   5  713.55   21.97
   4   5   5  651.76   18.91
   4   5  -5  770.59   24.62
  -4  -5  -5  654.66   17.96
   4   5   5  648.80   17.78
   4  -5   5  716.63   21.84
   4   5  -6  288.60    9.02
  -4   5  -6  245.12   27.89
   4  -5   6  279.16   10.23
  -4   5   6  290.74    9.97
   4   5   6  240.24   17.51
   4   5  -6  290.75    8.85
   4   5  -6  313.20   11.08
  -4  -5  -6  272.50    8.25
   4  -5  -6  223.29   16.15
   4  -5   6  308.20   10.32
  -4   5  -7  489.21   14.87
   4   5  -7  475.11   14.05
   4  -5   7  456.63   13.94
  -4   5   7  511.01   16.26
   4   5   7  472.23   16.27
   4   5  -7  488.55   14.43
   4   5  -7  530.43   16.77
  -4  -5  -7  474.28   14.16
   4  -5  -7  478.23   15.62
   4   5   7  470.97   14.11
   4  -5   7  476.66   15.14
  -4   5  -8  128.79   11.69
   4  -5   8  106.44   11.66
   4   5  -8  112.33   10.03
  -4   5   8  120.94   11.45
   4   5  -8  120.65   10.79
   4   5   8  115.42   12.30
   4   5  -8  134.68   17.69
  -4  -5  -8  135.97   12.50
   4  -5  -8  131.47   12.28
   4   5   8  115.17   10.26
   4  -5   8  120.51   11.32
  -4   5  -9   78.48    9.61
   4  -5   9   63.83    8.77
  -4   5   9   88.25   15.24
   4   5   9   81.64   17.02
   4   5  -9   80.33   11.50
  -4  -5  -9   90.78   15.58
   4  -5  -9   91.78    8.93
   4   5   9   68.50    9.49
   4  -5   9   82.22   14.40
  -4   5 -10    4.06    1.28
   4  -5  10    2.86    1.42
  -4   5  10    5.16    2.58
   4   5  10    2.14    2.95
   4   5 -10   -0.99    2.01
  -4  -5 -10    3.43    1.20
   4  -5 -10   12.59    3.90
   4   5  10    4.93    1.53
   4  -5  10    3.94    3.01
  -4   5 -11    3.29    1.44
   4  -5  11    1.42    1.35
  -4   5  11    5.13    2.92
   4   5  11    6.77    2.26
   4   5 -11    6.62    2.18
  -4  -5 -11    2.25    1.07
   4  -5 -11    4.73    2.60
   4  -5  11   12.06    4.22
  -4   5 -12   13.87    4.21
   4  -5  12   12.95    3.64
  -4   5  12   20.59    5.19
   4   5  12   15.15    5.12
   4   5 -12   23.54    5.12
  -4  -5 -12   13.94    3.91
   4  -5 -12   13.34    4.60
   4  -5  12    9.31    4.25
  -4   5 -13   24.46    6.24
  -4   5  13   41.64    6.06
   4   5  13   26.22    5.83
   4   5 -13   43.89    6.80
  -4  -5 -13   36.61   11.14
   4  -5 -13   26.33    7.20
   4  -5  13   33.79    7.62
  -4   5  14   -1.64    1.83
   4   5  14   11.94    4.98
   4  -5  14    2.15    1.34
   4   5 -14   13.36    4.93
  -4  -5 -14    5.15    2.05
   4  -5 -14    9.88    3.53
   4  -5  14    5.69    4.63
  -4   5  15   13.39    4.50
   4   5  15   12.22    3.61
   4   5 -15   18.29    4.73
  -4  -5 -15   10.96    2.86
   4  -5 -15    6.50    3.22
   4  -5  15   16.44    5.41
  -4   5  16    3.86    1.21
   4   5  16    3.23    2.27
   4   5 -16    7.53    2.56
  -4  -5 -16    2.06    1.32
   4  -5 -16    9.18    3.59
   4  -5  16    9.88    3.64
  -4   5  17    4.26    1.83
   4   5  17    5.16    2.58
   4   5 -17    6.77    2.87
  -4  -5 -17    7.10    2.63
   4  -5 -17    5.38    1.91
   4  -5  17    6.15    4.70
  -4   5  18   -0.28    1.45
   4   5  18    5.43    2.38
   4   5 -18    4.97    2.20
   4  -5 -18    8.97    3.81
   4  -5  18    4.95    3.34
   4   5  19   14.09    4.44
   4   5 -19    7.80    4.34
   4  -5 -19    9.02    2.36
   4  -5  19   10.73    4.44
   4   6   0    6.06    1.00
   4   6   0   16.87    3.07
  -4  -6   0   18.22    3.05
   4  -6   0   26.71    4.14
  -4  -6   0   18.29    2.54
   4   6  -1  133.64    9.45
  -4   6  -1  149.62    8.90
   4   6   1  149.83    8.97
   4   6  -1  156.97    9.18
  -4  -6  -1  145.96    8.87
  -4  -6   1  142.18    8.01
   4  -6   1  159.54    9.48
  -4  -6  -1  148.58    8.31
  -4  -6   1  148.50    8.61
   4   6  -2   31.17    4.36
  -4   6  -2   27.87    5.52
   4   6   2   31.66    5.35
   4   6  -2   37.38    5.85
  -4  -6   2   27.56    4.42
   4  -6  -2   29.51    4.23
  -4  -6  -2   52.22    7.04
   4  -6   2   37.78    6.78
  -4  -6   2   28.37    3.71
   4   6  -3  319.64   10.89
  -4   6  -3  307.85    9.46
  -4   6   3  342.44   10.81
   4   6  -3  323.99    9.60
  -4  -6   3  299.94   37.46
  -4  -6  -3  328.60    9.38
   4  -6   3  328.90   10.27
   4   6   3  255.89   14.17
  -4  -6   3  294.23   16.52
   4   6  -4   94.11    7.62
  -4   6  -4   94.03    9.02
   4  -6   4   85.24    7.31
  -4   6   4  117.57    9.31
   4   6   4   79.64   10.62
   4   6  -4   89.29    6.66
   4   6  -4  100.13    8.89
  -4  -6  -4   97.20    6.95
   4  -6   4   79.96    6.75
   4   6   4   81.28    5.94
   4   6  -5  194.11   14.28
  -4   6  -5  183.46   13.28
   4  -6   5  189.35   13.86
  -4   6   5  220.35   16.30
   4   6  -5  206.53   14.67
   4   6   5  178.58   13.26
   4   6  -5  209.75   15.13
  -4  -6  -5  193.16   13.62
   4  -6  -5  189.68   16.22
   4  -6   5  199.60   14.78
   4   6  -6  131.36    9.81
  -4   6  -6  118.64    8.77
   4  -6   6  115.20    9.87
  -4   6   6  145.47   11.24
   4   6  -6  124.44    8.96
   4   6   6  119.95    9.53
   4   6  -6  137.90   11.63
  -4  -6  -6  120.39    8.61
   4  -6  -6  123.12   11.58
   4   6   6  109.34    7.88
   4  -6   6  131.41   10.09
  -4   6  -7  622.17   25.02
   4   6  -7  659.28   26.17
   4  -6   7  597.55   23.98
  -4   6   7  699.45   28.64
   4   6  -7  650.03   25.75
   4   6   7  619.93   25.52
   4   6  -7  709.86   28.97
  -4  -6  -7  599.79   23.87
   4  -6  -7  615.71   25.37
   4   6   7  539.97   21.48
   4  -6   7  707.21   30.37
  -4   6  -8    7.31    2.15
   4   6  -8    1.55    0.63
   4  -6   8    2.59    1.34
  -4   6   8    3.39    2.08
   4   6  -8    1.98    0.84
   4   6   8    6.20    3.10
   4   6  -8   -0.25    1.82
  -4  -6  -8    1.07    0.67
   4  -6  -8    8.08    3.31
   4   6   8    2.50    1.20
   4  -6   8   -0.58    2.71
  -4   6  -9  414.86   20.99
   4  -6   9  343.49   17.67
  -4   6   9  400.42   20.95
   4   6   9  437.99   22.87
   4   6  -9  417.66   22.18
  -4  -6  -9  415.50   20.97
   4  -6  -9  447.31   23.46
   4   6   9  391.29   19.75
   4  -6   9  382.06   19.99
  -4   6 -10   12.01    2.59
   4  -6  10    5.33    1.37
  -4   6  10    3.68    2.95
   4   6  10    6.82    2.62
   4   6 -10    5.63    1.84
  -4  -6 -10    2.70    0.87
   4  -6 -10   10.93    3.96
   4   6  10    8.17    1.87
   4  -6  10    1.34    3.22
  -4   6 -11   82.05   12.31
   4  -6  11   39.38    7.33
  -4   6  11   68.21   10.73
   4   6  11   77.24   16.31
   4   6 -11   97.92   16.21
  -4  -6 -11   70.49   11.46
   4  -6 -11   80.59   12.05
   4  -6  11   70.94   11.98
  -4   6 -12  123.10    7.00
  -4   6  12  120.33   13.99
   4   6  12  137.61    9.39
   4   6 -12  132.66   15.15
  -4  -6 -12  110.33   11.47
   4  -6 -12  131.62    8.98
   4  -6  12   91.63    9.33
  -4   6 -13    5.09    1.61
  -4   6  13    2.51    2.30
   4   6  13    2.93    2.66
   4   6 -13    0.55    2.34
  -4  -6 -13    3.53    1.39
   4  -6 -13    7.46    3.13
   4  -6  13   11.20    5.48
  -4   6  14   77.18    7.12
   4   6  14   75.09    5.84
   4   6 -14   71.91    7.69
  -4  -6 -14   57.65   10.62
   4  -6 -14   90.69    7.39
   4  -6  14   73.88    6.74
  -4   6  15   24.34    6.84
   4   6  15   27.95    5.57
   4   6 -15   34.89    7.32
   4  -6 -15   28.56    6.08
   4  -6  15   25.15    5.72
  -4   6  16   26.85    7.07
   4   6  16   34.26    5.24
   4   6 -16   39.33    7.61
  -4  -6 -16   30.17    8.82
   4  -6 -16   30.80    7.91
   4  -6  16   45.75    8.48
  -4   6  17    5.44    3.22
   4   6  17    8.18    2.52
   4   6 -17   13.56    4.24
   4  -6 -17    8.91    2.48
   4  -6  17    1.17    3.17
  -4   6  18   16.25    4.77
   4   6  18    6.54    2.10
   4   6 -18   18.82    5.54
   4  -6 -18   15.18    4.67
   4  -6  18   20.76    6.20
   4   6  19    3.14    1.37
   4   6 -19   11.67    4.09
   4  -6 -19    6.33    2.81
   4  -6  19    3.34    3.38
  -4   7   0 1934.15  218.53
   4   7   0 1815.85   53.41
  -4  -7   0 1851.83   54.01
   4  -7   0 1851.48   54.46
  -4  -7   0 1865.23  210.61
  -4   7  -1  383.13   12.57
  -4   7   1  421.03   14.65
   4   7   1  361.08   11.66
   4   7  -1  442.05   13.89
  -4  -7  -1  415.81   12.45
  -4  -7   1  377.78   11.50
   4  -7  -1  390.52   12.53
   4  -7   1  427.96   13.89
  -4  -7  -1  407.20   12.33
  -4  -7   1  394.77   12.23
   4   7  -2 1079.12   31.82
  -4   7  -2 1097.38   32.82
  -4   7   2 1163.65   34.84
   4   7  -2 1196.62   35.62
   4   7   2 1121.42   33.54
  -4  -7   2 1119.73   33.02
  -4  -7  -2 1139.32   33.34
   4  -7   2 1164.48   34.77
  -4  -7   2 1131.32   33.52
   4   7   2 1051.16   30.79
   4   7  -3  290.04   10.72
  -4   7  -3  313.34   10.25
  -4   7   3  320.87   10.92
   4   7  -3  304.74    9.75
  -4  -7  -3  312.37    9.93
   4  -7   3  313.86   11.02
   4   7   3  285.27    8.71
  -4  -7   3  300.34    9.73
   4   7  -4  515.74   16.11
  -4   7  -4  573.49   17.59
  -4   7   4  547.20   17.43
   4   7  -4  537.01   16.29
   4   7   4  566.85   17.96
   4  -7  -4  544.94   16.96
  -4  -7  -4  522.64   15.50
   4  -7   4  531.79   16.76
   4   7   4  546.22   16.18
  -4  -7   4  580.98   17.94
   4   7  -5   88.96    8.70
  -4   7  -5  107.46    9.86
  -4   7   5  106.35   10.24
   4   7  -5  100.59    9.19
   4   7   5  107.53   10.49
  -4  -7  -5   96.99    8.81
   4  -7  -5  102.79    9.86
   4  -7   5  115.02   11.19
   4   7   5  104.65    9.63
  -4  -7   5  118.60   13.05
   4   7  -6  134.12   12.40
  -4   7  -6  161.66   40.90
  -4   7   6  181.65   14.53
   4   7  -6  145.33   13.64
   4   7   6  160.27   40.70
  -4  -7  -6  143.01   12.71
   4  -7  -6  156.01   39.61
   4   7   6  140.66   12.49
   4  -7   6  139.91   13.29
  -4  -7   6  153.93   39.06
   4   7  -7   37.75    5.48
  -4   7  -7   56.27    7.75
  -4   7   7   56.69   10.38
   4   7  -7   50.83    7.24
   4   7   7   60.45    9.79
   4   7  -7   57.72   10.02
  -4  -7  -7   48.07    5.96
   4  -7  -7   67.56   10.60
   4   7   7   49.76    7.48
   4  -7   7   59.35    9.06
  -4   7  -8   50.93    6.49
   4   7  -8   40.78    5.53
   4  -7   8   37.73    6.23
  -4   7   8   66.55   11.08
   4   7  -8   47.11    6.30
   4   7   8   47.56    6.88
   4   7  -8   55.48    8.81
  -4  -7  -8   40.54    5.95
   4  -7  -8   55.93    9.69
   4   7   8   36.34    4.65
   4  -7   8   56.30    8.33
  -4   7  -9   45.39    5.11
   4  -7   9   26.39    5.77
  -4   7   9   41.87    8.23
   4   7   9   49.61    9.17
   4   7  -9   63.90   10.49
  -4  -7  -9   41.59    6.97
   4  -7  -9   53.15    7.41
   4   7   9   40.15    4.65
   4  -7   9   50.94    7.56
  -4   7 -10   17.26    4.26
   4  -7  10   16.05    4.14
  -4   7  10   24.69    6.60
   4   7  10   25.02    7.25
   4   7 -10   29.09    8.28
  -4  -7 -10   20.84    5.83
   4  -7 -10   14.78    4.26
   4   7  10   11.17    2.78
   4  -7  10   28.02    7.29
  -4   7 -11   47.03   12.79
  -4   7  11   45.91   13.01
   4   7  11   44.60    9.90
   4   7 -11   51.15    6.44
  -4  -7 -11   39.32    9.58
   4  -7 -11   45.69   12.25
   4  -7  11   40.70    8.43
  -4   7 -12   18.34    4.33
  -4   7  12   17.51    5.88
   4   7  12   15.16    4.09
   4   7 -12   18.24    4.62
  -4  -7 -12   12.12    3.93
   4  -7 -12   24.26    5.69
   4  -7  12   17.10    4.56
  -4   7 -13   88.12    5.52
  -4   7  13   89.51   10.76
   4   7  13   94.59    7.57
   4   7 -13   95.24   12.80
  -4  -7 -13   75.73    8.98
   4  -7 -13  105.56    7.98
   4  -7  13   78.90   12.85
  -4   7  14   17.29    4.76
   4   7  14   13.33    4.02
   4   7 -14   17.03    4.41
  -4  -7 -14    5.66    1.39
   4  -7 -14   12.29    2.98
   4  -7  14   24.58    7.34
  -4   7  15   27.14    5.19
   4   7  15   33.10    6.88
   4   7 -15   46.63    6.48
  -4  -7 -15   19.85    4.20
   4  -7 -15   33.33    7.23
   4  -7  15   45.45    6.28
  -4   7  16   14.31    4.64
   4   7  16   12.99    4.38
   4   7 -16   14.85    4.67
   4  -7 -16   11.76    3.42
   4  -7  16    8.94    4.12
   4   7  17   14.33    4.67
   4   7 -17    5.90    2.20
   4  -7 -17    5.43    2.35
   4  -7  17    6.25    3.37
  -4   7  18   12.57    3.87
   4   7  18    0.94    2.16
   4   7 -18   13.64    4.69
   4  -7 -18    5.80    2.22
   4  -7  18   10.59    3.80
   4   7  19   11.83    4.41
   4  -7 -19    5.98    2.54
   4  -7  19    8.12    3.97
  -4   8   0   32.30    6.56
   4   8   0   33.39    5.51
  -4  -8   0   26.19    4.52
   4  -8   0   30.51    4.89
  -4  -8   0   32.30    4.49
  -4   8  -1   13.93    2.93
  -4   8   1    9.29    2.45
   4   8   1   18.86    3.68
   4   8  -1   11.97    2.64
  -4  -8  -1    7.59    1.84
  -4  -8   1   11.22    2.30
   4  -8   1   15.37    4.43
  -4  -8  -1   12.90    2.38
  -4  -8   1   26.10    4.05
  -4   8  -2  145.41   10.93
   4   8  -2  161.78   11.95
   4   8   2  135.94   10.42
   4  -8  -2  147.89   11.18
  -4  -8  -2  157.10   11.33
   4  -8   2  150.17   12.13
  -4  -8   2  157.05   12.70
   4   8   2  124.03    9.49
  -4   8  -3    3.14    1.66
  -4   8   3    4.35    1.57
   4   8  -3    1.95    0.87
   4   8   3    1.58    2.00
   4  -8  -3    6.46    3.78
  -4  -8  -3    3.57    0.98
   4  -8   3    0.13    2.79
  -4  -8   3    6.80    2.68
   4   8   3    3.17    1.34
   4   8  -4   21.40    3.61
  -4   8  -4   23.78    3.92
  -4   8   4   21.99    4.18
   4   8  -4   24.20    3.26
   4  -8  -4   27.16    4.10
  -4  -8  -4   27.56    4.48
   4  -8   4   22.73    3.96
   4   8   4   23.01    2.88
  -4  -8   4   28.11    4.12
   4   8  -5  135.29   13.34
  -4   8  -5  139.90   12.67
  -4   8   5  154.32   39.19
   4   8  -5  167.49    7.40
   4   8   5  143.99   13.49
  -4  -8  -5  163.07    7.00
   4  -8  -5  145.62   13.51
   4  -8   5  165.86    8.25
   4   8   5  150.19   13.35
  -4  -8   5  152.03   14.01
   4   8  -6   12.49    3.40
  -4   8  -6   28.09    5.66
  -4   8   6   18.21    5.54
   4   8  -6   14.94    4.36
   4   8   6   24.68    5.18
  -4  -8  -6   13.55    4.32
   4  -8  -6   34.05    6.42
   4  -8   6   28.36    5.26
   4   8   6   18.62    5.44
  -4  -8   6   31.85    4.99
   4   8  -7  338.84   17.42
  -4   8  -7  402.52   20.61
  -4   8   7  407.61   21.45
   4   8  -7  371.65   18.76
   4   8   7  415.61   21.88
  -4  -8  -7  348.55   17.64
   4  -8  -7  373.36   19.62
   4   8   7  365.40   18.42
   4  -8   7  371.54   19.60
  -4  -8   7  379.09   19.80
   4   8  -8    7.45    1.49
  -4   8  -8   13.79    3.73
  -4   8   8    9.15    2.60
   4   8  -8    7.40    1.76
   4   8   8   18.19    4.84
  -4  -8  -8    3.84    1.01
   4  -8  -8   15.39    3.81
   4   8   8    5.98    1.42
   4  -8   8   10.13    3.44
  -4  -8   8    8.46    3.39
  -4   8  -9  207.88   10.84
   4   8  -9  223.79   11.05
   4   8  -9  228.91   11.31
  -4   8   9  261.77   19.57
   4   8   9  218.15   15.41
  -4  -8  -9  258.69   14.11
   4  -8  -9  210.14   11.85
   4  -8   9  257.10   14.83
  -4  -8   9  225.87   16.07
  -4   8 -10   11.97    3.60
  -4   8  10   22.84    5.51
   4   8  10   22.04    6.02
  -4  -8 -10   11.43    3.40
   4  -8 -10   11.27    4.56
   4  -8  10   30.84    7.36
  -4  -8  10   18.35    5.17
  -4   8 -11  203.33   10.78
  -4   8  11  229.76   19.02
   4   8  11  226.96   15.97
  -4  -8 -11  195.17   11.73
   4  -8 -11  207.53   12.52
   4  -8  11  224.47   13.30
  -4  -8  11  220.31   12.77
  -4   8 -12   15.33    3.48
  -4   8  12   33.08    7.49
   4   8  12   24.46    5.55
  -4  -8 -12   15.44    3.57
   4  -8 -12   10.35    3.63
   4  -8  12   21.33    5.12
  -4  -8  12   18.51    4.41
  -4   8  13   59.61    8.25
   4   8  13   63.91    9.19
  -4  -8 -13   39.05    7.81
   4  -8 -13   60.46    8.80
   4  -8  13   40.96    6.59
  -4  -8  13   57.03    7.95
  -4   8  14    3.43    1.69
   4   8  14    7.78    3.97
  -4  -8 -14    4.45    1.45
   4  -8 -14   13.92    5.67
   4  -8  14   -1.39    3.24
  -4   8  15    9.43    4.03
   4   8  15    4.44    2.48
   4  -8 -15    3.81    2.54
   4  -8  15   16.01    5.44
  -4  -8  15   18.23    5.71
  -4   8  16    2.84    2.18
   4   8  16   13.46    4.12
   4  -8 -16    1.34    1.48
   4  -8  16   18.24    6.07
  -4  -8  16   16.99    7.05
  -4   8  17    5.42    2.67
   4   8  17    9.53    2.98
   4  -8 -17   11.67    4.78
   4  -8  17   12.47    4.51
  -4  -8  17   14.29    5.42
  -4   8  18   10.17    3.57
   4   8  18   14.28    4.39
   4  -8 -18    9.54    3.24
   4  -8  18   18.61    5.56
  -4  -8  18   13.50    6.48
  -4   9   0  512.94   21.20
   4   9   0  647.85   26.58
  -4  -9   0  611.85   24.66
  -4   9  -1    9.89    2.45
  -4   9   1   11.21    2.42
   4   9   1    5.72    2.05
   4   9  -1    3.43    2.68
   4  -9  -1    9.98    2.61
   4  -9   1   11.53    4.64
  -4  -9  -1    2.11    1.48
  -4  -9   1   10.88    2.35
  -4   9  -2  680.49   27.81
  -4   9   2  645.09   26.56
   4   9  -2  690.20   28.01
   4   9   2  702.20   28.68
   4  -9  -2  691.55   29.97
  -4  -9  -2  667.06   26.67
   4  -9   2  680.81   27.91
  -4  -9   2  638.28   26.45
   4   9   2  626.59   25.05
  -4   9  -3   18.99    6.13
  -4   9   3   10.34    3.83
   4   9  -3   10.30    4.10
   4   9   3   26.62    4.93
   4  -9  -3   19.84    5.80
  -4  -9  -3   14.72    4.09
   4  -9   3   19.05    6.37
  -4  -9   3   20.30    5.64
   4   9   3    8.92    2.49
  -4   9  -4  275.02   14.69
  -4   9   4  257.74   14.20
   4   9   4  251.55   13.88
   4  -9  -4  275.94   14.93
  -4  -9  -4  254.49   13.36
   4  -9   4  249.84   14.13
   4   9   4  241.13   12.39
  -4  -9   4  274.44   19.50
   4   9  -5   30.48    4.84
  -4   9  -5   46.67    7.77
  -4   9   5   51.83    9.41
   4   9  -5   40.52    6.72
   4   9   5   51.69   10.02
  -4  -9  -5   39.23    4.94
   4  -9  -5   47.23    6.46
   4  -9   5   38.59    5.99
   4   9   5   28.36    3.83
  -4  -9   5   35.56    5.09
   4   9  -6   10.97    2.15
  -4   9  -6   21.69    4.67
  -4   9   6   23.46    5.98
   4   9  -6   13.06    2.95
   4   9   6   21.09    4.91
  -4  -9  -6   12.15    2.87
   4  -9  -6   29.96    6.32
   4  -9   6   11.11    3.66
  -4  -9   6   14.80    3.42
   4   9  -7    3.37    1.11
  -4   9  -7   14.20    3.04
  -4   9   7   15.55    4.23
   4   9  -7   12.67    2.83
   4   9   7   16.94    4.58
  -4  -9  -7   10.21    2.07
   4  -9  -7    8.85    2.75
   4   9   7    6.42    1.53
   4  -9   7   12.66    3.87
  -4  -9   7   13.64    4.18
   4   9  -8   13.34    3.25
  -4   9  -8   22.37    6.09
  -4   9   8    9.44    4.68
   4   9  -8   12.78    3.65
   4   9   8   10.46    3.76
  -4  -9  -8   15.16    4.22
   4  -9  -8   24.46    6.93
   4   9   8    9.65    2.99
   4  -9   8   13.20    4.62
  -4  -9   8   17.67    5.03
  -4   9  -9   25.36    5.54
   4   9  -9   21.44    4.61
  -4   9   9   25.96    6.57
   4   9   9    9.35    3.73
  -4  -9  -9   28.43    5.46
   4  -9  -9   42.13    9.16
   4  -9   9   38.44    8.65
  -4  -9   9   34.70    7.74
  -4   9 -10  130.33    7.14
  -4   9  10  150.87   14.06
   4   9  10  133.92    8.77
  -4  -9 -10  147.77    8.06
   4  -9 -10  117.85   19.12
   4  -9  10  147.16    9.56
  -4  -9  10  132.70    8.79
  -4   9 -11   44.45    6.17
  -4   9  11   86.56   11.67
   4   9  11   62.04   10.26
  -4  -9 -11   73.80    7.84
   4  -9 -11   51.42    6.15
   4  -9  11   96.12    7.94
  -4  -9  11   55.27    6.82
  -4   9  12   23.07    6.85
   4   9  12   14.36    4.39
  -4  -9 -12    7.24    1.66
   4  -9 -12   14.82    4.10
   4  -9  12   21.36    6.78
  -4  -9  12   15.68    5.20
  -4   9  13   71.50   11.64
   4   9  13  108.34   10.91
  -4  -9 -13   51.16   10.78
   4  -9 -13   99.14    8.71
   4  -9  13   79.78    8.55
  -4  -9  13  112.21   10.05
  -4   9  14   11.54    4.33
   4   9  14   10.52    4.55
   4  -9 -14    2.13    2.28
   4  -9  14    8.31    4.82
  -4  -9  14   18.14    6.53
  -4   9  15   52.20    7.38
   4   9  15   19.75    4.93
   4  -9 -15   35.20    7.37
   4  -9  15   31.28    6.81
  -4  -9  15   38.52    8.02
  -4   9  16   13.44    4.98
   4   9  16    8.90    2.88
   4  -9 -16   20.28    5.66
   4  -9  16   18.00    6.12
  -4  -9  16    6.43    3.40
  -4   9  17   23.31    6.19
   4   9  17   32.49    6.11
   4  -9 -17   21.15    4.39
   4  -9  17   14.76    5.25
  -4  -9  17   43.02    8.42
  -4   9  18    7.04    3.19
   4   9  18   10.13    4.42
   4  -9 -18    5.85    1.90
   4  -9  18    7.66    4.53
  -4  -9  18    8.90    4.40
  -4  10   0   24.28    6.94
   4  10   0   24.71    5.97
   4 -10   0   25.11    5.23
  -4 -10   0   30.26    5.07
  -4  10  -1    8.56    2.93
  -4  10   1    9.95    3.97
   4  10   1   10.75    4.07
   4  10  -1   15.81    5.03
   4 -10  -1   18.90    5.74
  -4 -10  -1   13.70    4.01
  -4 -10   1   13.62    4.24
  -4  10  -2   97.13   10.71
  -4  10   2  116.02   14.73
   4  10  -2  102.51   11.11
   4  10   2   81.95   14.73
   4 -10  -2   89.32   15.61
  -4 -10  -2   94.68    8.93
  -4 -10   2   89.55   16.43
  -4  10  -3  154.95    8.34
  -4  10   3  143.06   14.47
   4  10  -3  135.21    9.94
   4  10   3  151.08    9.04
   4 -10  -3  137.35   10.35
  -4 -10  -3  122.35   13.63
   4 -10   3  155.44   12.70
  -4 -10   3  128.97    7.25
   4  10   3  117.65   12.50
  -4  10  -4  167.86    8.74
  -4  10   4  193.46   10.67
   4  10  -4  187.46   12.74
   4  10   4  184.38   10.22
   4 -10  -4  202.53   10.96
  -4 -10  -4  194.41    9.62
   4 -10   4  211.02   14.54
  -4 -10   4  176.84    9.36
   4  10   4  160.79    7.88
  -4  10  -5   46.31    7.25
  -4  10   5   82.84   11.38
   4  10  -5   73.05   10.47
  -4 -10  -5   58.91    8.33
   4 -10  -5   49.71    6.32
   4 -10   5   63.50    7.65
  -4 -10   5   58.86    7.98
  -4  10  -6   97.21   13.90
  -4  10   6  115.31   20.51
   4  10  -6  113.74   17.35
   4  10   6  108.69   17.92
  -4 -10  -6  108.96   15.40
   4 -10  -6   90.49   13.63
   4 -10   6  132.67   11.90
   4  10   6   58.04    9.52
  -4 -10   6   85.07   12.44
   4  10  -7   20.94    5.48
  -4  10  -7   61.37   11.12
  -4  10   7   35.11    7.10
   4  10  -7   42.89    8.14
   4  10   7   57.33    9.36
  -4 -10  -7   30.12    9.00
   4 -10  -7   67.68   11.11
   4 -10   7   28.34    7.50
   4  10   7   33.23    8.48
  -4 -10   7   70.40   10.56
  -4  10  -8   54.06    8.94
  -4  10   8   34.86    8.30
   4  10  -8   26.38    5.58
   4  10   8   59.32    8.15
  -4 -10  -8   32.75    6.33
   4 -10  -8   52.00    9.20
   4 -10   8   39.39    9.01
  -4 -10   8   49.67    5.29
  -4  10  -9   31.03    6.70
   4  10  -9   26.88    5.70
  -4  10   9   35.71   10.17
   4  10   9   26.75    7.18
  -4 -10  -9   29.02    5.54
   4 -10  -9   42.39    6.69
   4 -10   9   46.60    7.74
  -4 -10   9   36.78    6.82
  -4  10 -10    6.20    1.97
  -4  10  10    4.83    2.04
   4  10  10    6.02    3.37
  -4 -10 -10    3.22    1.48
   4 -10 -10    2.76    4.31
   4 -10  10   -2.31    3.74
  -4 -10  10   15.41    4.37
  -4  10 -11   28.26    6.41
  -4  10  11   24.84    6.12
   4  10  11   26.37    6.88
   4 -10 -11   34.09    6.46
   4 -10  11   35.85    6.81
  -4 -10  11   33.25    5.50
  -4  10  12   -0.17    2.37
   4  10  12    8.07    4.07
  -4 -10 -12    2.81    1.03
   4 -10 -12    3.93    2.62
   4 -10  12   19.03    6.74
  -4 -10  12   12.96    5.07
  -4  10  13   12.27    4.31
   4  10  13    5.90    2.78
   4 -10 -13    3.46    2.49
   4 -10  13   10.81    4.19
  -4 -10  13    0.43    3.01
  -4  10  14   -0.79    2.51
   4  10  14    1.74    2.29
   4 -10 -14   -1.04    2.58
   4 -10  14    3.07    3.36
  -4 -10  14    2.12    3.36
  -4  10  15   40.08    7.23
   4  10  15   25.10    7.28
   4 -10 -15   16.39    4.78
   4 -10  15   36.94    7.08
  -4 -10  15   41.40    7.20
  -4  10  16    8.08    3.02
   4  10  16    7.87    3.33
   4 -10 -16    3.97    2.48
   4 -10  16    8.68    4.65
  -4 -10  16   -1.29    3.08
  -4  10  17   22.80    7.95
   4  10  17   46.05   10.98
   4 -10 -17   28.07    7.61
   4 -10  17   64.72   13.51
  -4  11   0    9.68    2.79
   4  11   0    7.18    2.72
   4 -11   0    9.85    3.76
  -4 -11   0    2.74    2.18
  -4  11  -1   88.55   13.38
  -4  11   1   90.02   12.87
   4  11  -1   95.60   15.66
   4  11   1   73.01    8.74
   4 -11  -1   75.47    9.08
   4 -11   1   67.77    8.18
  -4 -11  -1   89.01   11.36
  -4 -11   1   71.53    8.15
  -4  11  -2   -0.39    1.96
  -4  11   2    3.35    2.87
   4  11  -2    5.52    1.82
   4  11   2    5.70    1.75
   4 -11  -2    3.14    3.36
  -4 -11  -2    5.37    1.98
  -4 -11   2    9.69    2.93
  -4  11  -3  495.57   25.48
  -4  11   3  507.39   26.29
   4  11  -3  499.80   25.47
   4  11   3  498.00   26.03
   4 -11  -3  487.51   25.20
  -4 -11  -3  497.25   25.06
  -4 -11   3  479.06   25.03
  -4  11  -4   58.90   10.53
   4  11  -4   56.27    9.75
   4  11   4   54.17   10.98
   4 -11  -4   61.18    9.53
  -4 -11  -4   60.51   11.99
   4 -11   4   70.42   11.75
  -4 -11   4   60.48    9.38
  -4  11  -5  118.43   31.28
  -4  11   5  131.97   14.19
   4  11  -5  100.88   10.03
   4  11   5  123.38   14.38
  -4 -11  -5  111.19    9.26
   4 -11  -5  112.92   10.04
   4 -11   5  130.07    8.89
  -4 -11   5  106.28    9.60
  -4  11  -6  115.63    9.90
  -4  11   6  135.12   12.42
   4  11  -6  127.39   11.94
   4  11   6  118.66   30.79
  -4 -11  -6  118.39   30.33
   4 -11  -6   97.00   13.76
   4 -11   6  135.11   12.11
  -4 -11   6  125.61    9.54
  -4  11  -7    1.59    0.88
  -4  11   7    8.45    4.04
   4  11  -7    5.13    1.91
   4  11   7    8.77    4.91
  -4 -11  -7    4.14    1.62
   4 -11  -7   11.16    3.72
   4 -11   7   -0.47    4.00
  -4 -11   7   -1.25    2.68
  -4  11  -8   17.13    3.78
  -4  11   8    9.34    3.80
   4  11  -8    8.73    2.72
   4  11   8   10.22    3.73
  -4 -11  -8    5.66    2.20
   4 -11  -8   11.15    3.85
   4 -11   8   11.24    5.03
  -4 -11   8    8.63    3.82
  -4  11  -9   12.21    3.75
  -4  11   9    9.55    3.20
   4  11   9   16.80    5.09
  -4 -11  -9    7.47    2.42
   4 -11  -9    6.73    3.00
   4 -11   9   13.34    6.39
  -4 -11   9    5.19    3.19
  -4  11 -10    1.87    0.95
  -4  11  10    4.55    2.15
   4  11  10    5.28    3.14
  -4 -11 -10    5.03    1.59
   4 -11 -10   10.34    4.90
   4 -11  10    6.70    3.50
  -4 -11  10    7.46    4.14
  -4  11  11   39.77    8.54
   4  11  11   30.80    6.58
   4 -11 -11   50.46    8.84
   4 -11  11   26.21    5.28
  -4 -11  11   48.77    9.08
  -4  11  12    3.35    1.57
   4  11  12   16.68    5.51
   4 -11 -12   15.95    4.94
   4 -11  12   22.54    5.56
  -4 -11  12    8.47    3.94
  -4  11  13   80.86   11.46
   4 -11 -13  105.53   14.38
   4 -11  13   76.72   12.29
  -4 -11  13  114.48   14.95
  -4  11  14   11.06    3.88
   4  11  14    9.23    3.18
   4 -11 -14    2.29    2.16
   4 -11  14    6.59    3.70
  -4 -11  14    8.04    4.32
  -4  11  15   77.92    9.61
   4  11  15   63.27   10.70
   4 -11 -15   67.53    8.82
   4 -11  15   74.51   10.43
  -4 -11  15   90.44   10.94
  -4  11  16    7.38    3.02
   4  11  16   27.18    6.44
   4 -11 -16    9.20    3.21
   4 -11  16   19.27    6.49
  -4 -11  16   19.78    5.36
  -4  12   0    1.35    2.05
   4  12   0    5.28    3.12
   4 -12   0    4.56    3.70
  -4 -12   0    4.02    2.53
  -4  12  -1   11.30    4.18
  -4  12   1    9.41    3.96
   4  12  -1   13.74    4.83
   4  12   1    8.40    2.85
   4 -12  -1    6.68    3.93
   4 -12   1    7.01    3.85
  -4 -12  -1   16.69    3.84
  -4 -12   1    7.91    2.93
  -4  12  -2   77.25   12.24
  -4  12   2   78.41   11.26
   4  12  -2   68.21    9.15
   4  12   2   83.95   10.53
   4 -12  -2   65.99    7.77
  -4 -12  -2   64.82    5.81
   4 -12   2   64.39    7.78
  -4 -12   2   63.26    6.06
  -4  12  -3   99.30   11.89
  -4  12   3   74.79   10.85
   4  12  -3   93.30   11.39
   4  12   3   97.46   13.89
   4 -12  -3  107.33   16.34
  -4 -12  -3   82.30    7.28
   4 -12   3   83.25   13.18
  -4 -12   3   95.01    8.59
  -4  12  -4  143.12   14.79
  -4  12   4  173.13   11.30
   4  12  -4  155.58   11.42
   4  12   4  180.59   15.71
   4 -12  -4  191.20   12.43
  -4 -12  -4  146.90    9.02
  -4 -12   4  179.65   11.68
  -4  12  -5    8.38    3.43
  -4  12   5    4.87    2.80
   4  12  -5    5.29    1.94
   4  12   5    4.66    2.77
  -4 -12  -5    2.99    1.89
   4 -12  -5   15.71    4.79
   4 -12   5    2.82    3.45
  -4 -12   5    5.50    2.98
  -4  12  -6  248.97   13.62
  -4  12   6  202.65   12.35
   4  12  -6  219.85   14.99
   4  12   6  248.87   14.50
  -4 -12  -6  206.14   11.12
   4 -12  -6  245.69   13.76
   4 -12   6  228.23   20.30
  -4 -12   6  259.85   18.10
  -4  12  -7   58.51    9.37
  -4  12   7   50.01    6.05
   4  12  -7   48.34    8.33
   4  12   7   72.79    9.43
  -4 -12  -7   42.64    8.33
   4 -12  -7   67.85    8.93
   4 -12   7   68.10    8.88
  -4 -12   7   54.59    6.10
  -4  12  -8  211.19   11.93
  -4  12   8  228.41   26.29
   4  12  -8  221.22   12.90
   4  12   8  207.21   24.66
  -4 -12  -8  183.67   10.27
   4 -12  -8  165.43   19.64
   4 -12   8  202.36   13.19
  -4 -12   8  203.29   12.71
  -4  12  -9    9.40    2.82
  -4  12   9    2.79    1.48
   4  12   9   10.87    4.54
  -4 -12  -9    3.56    1.45
   4 -12  -9    7.90    2.91
   4 -12   9   12.73    4.53
  -4 -12   9   10.61    3.85
  -4  12  10  125.38   17.27
   4  12  10  163.78   22.46
   4 -12 -10  109.09   21.71
   4 -12  10  148.23   13.07
  -4 -12  10  148.36   19.02
  -4  12  11    6.20    2.79
   4  12  11    7.46    2.96
   4 -12 -11   12.86    5.16
   4 -12  11    2.79    3.22
  -4 -12  11    1.86    3.04
  -4  12  12   40.96    6.56
   4  12  12   49.86    9.58
   4 -12 -12   40.71    6.85
   4 -12  12   45.53    7.05
  -4 -12  12   52.59    7.67
  -4  12  13    2.71    2.09
   4  12  13    1.93    2.49
   4 -12 -13    1.97    2.22
   4 -12  13    2.07    3.24
  -4  12  14    4.27    2.83
   4  12  14   15.37    5.07
   4 -12 -14    5.05    2.56
   4 -12  14   11.43    5.54
  -4 -12  14    7.40    4.46
  -4  12  15    5.96    3.86
   4  12  15    7.30    4.14
   4 -12 -15    0.77    2.14
   4 -12  15    0.26    3.46
  -4 -12  15   14.26    5.87
  -4  12  16    8.31    3.33
   4  12  16   -1.73    2.64
   4 -12 -16    6.45    3.15
   4 -12  16   12.23    5.83
  -4 -12  16    1.85    3.04
  -4  13   0   15.83    3.87
   4  13   0    7.33    2.89
   4 -13   0   16.76    4.75
  -4 -13   0   10.98    3.92
  -4  13  -1   12.48    4.90
  -4  13   1    7.89    3.65
   4  13  -1    6.56    3.10
   4  13   1    7.87    3.92
   4 -13  -1   11.93    5.69
   4 -13   1    5.72    3.92
  -4 -13  -1   15.87    4.61
  -4 -13   1    8.03    3.65
  -4  13  -2   10.26    3.65
  -4  13   2    5.55    2.22
   4  13  -2    7.58    3.52
   4  13   2    2.68    2.99
   4 -13  -2   -3.16    3.55
  -4 -13  -2    8.88    3.81
   4 -13   2   16.18    4.82
  -4 -13   2   14.15    4.34
  -4  13  -3   40.01    5.88
  -4  13   3   43.65    9.02
   4  13  -3   44.39    6.24
   4  13   3   38.95    8.74
   4 -13  -3   49.67    7.59
  -4 -13  -3   53.24    7.57
   4 -13   3   48.28    7.08
  -4 -13   3   44.64    6.34
  -4  13  -4   34.19    7.47
  -4  13   4   51.03    7.43
   4  13  -4   51.03    6.88
   4  13   4   31.88    6.49
   4 -13  -4   43.20    7.70
  -4 -13  -4   43.11    8.59
   4 -13   4   47.37    5.90
  -4 -13   4   34.04    6.46
  -4  13  -5   30.41    7.63
   4  13  -5   28.11    6.18
   4  13   5   44.21    7.69
  -4 -13  -5   22.03    4.86
   4 -13  -5   23.44    5.60
  -4 -13   5   48.70    6.10
  -4  13  -6   70.19   10.33
  -4  13   6  103.13    8.51
   4  13  -6   59.27   10.45
   4  13   6   97.42   10.78
  -4 -13  -6   60.81   10.45
   4 -13  -6   81.66    6.43
   4 -13   6   92.72    9.03
  -4 -13   6   91.26    7.12
  -4  13  -7    2.12    2.04
  -4  13   7    6.37    3.54
   4  13  -7   10.89    2.92
  -4 -13  -7    4.19    1.60
   4 -13  -7    7.51    4.00
   4 -13   7   15.86    6.34
  -4 -13   7    4.28    2.86
  -4  13  -8   55.18   11.00
  -4  13   8   68.73    8.35
   4  13   8   71.97    7.47
   4 -13  -8   76.40    7.97
   4 -13   8   71.48    8.00
  -4 -13   8   64.08    6.45
  -4  13  -9    5.05    1.61
  -4  13   9   15.95    5.18
   4  13   9   15.79    4.99
   4 -13  -9    9.01    4.19
   4 -13   9   18.13    5.66
  -4 -13   9    5.05    3.24
  -4  13  10   17.44    5.18
   4  13  10   22.05    6.82
   4 -13 -10   30.03    8.54
   4 -13  10   24.85    7.18
  -4 -13  10   23.13    6.79
  -4  13  11   41.98    7.17
   4  13  11   38.98    8.03
   4 -13 -11   47.57    8.48
   4 -13  11   50.14    7.89
  -4 -13  11   52.69    8.15
  -4  13  12   29.35    8.38
   4  13  12   26.70    7.06
   4 -13 -12   10.59    3.31
   4 -13  12   39.03    8.38
  -4 -13  12   27.56    8.21
  -4  13  13   49.65    9.41
   4  13  13   37.93    6.08
   4 -13 -13   22.52    6.22
   4 -13  13   54.81    7.83
  -4 -13  13   55.65    7.99
  -4  13  14    2.79    2.59
   4  13  14    6.78    2.89
   4 -13 -14    1.70    1.57
   4 -13  14    3.14    3.07
  -4 -13  14   11.69    6.60
  -4  13  15   61.67   14.88
   4  13  15   24.11    7.60
   4 -13 -15   38.90    9.97
   4 -13  15   42.68   11.58
  -4 -13  15   45.55   10.86
  -4  14   0   75.51    6.47
   4  14   0   63.27    9.60
   4 -14   0   64.03    8.77
  -4 -14   0   77.76    9.39
  -4  14  -1  104.74   12.49
  -4  14   1   96.51   16.19
   4  14  -1   93.13    6.65
   4  14   1  106.22   13.10
   4 -14  -1   98.99    7.47
   4 -14   1  137.37   10.48
  -4 -14  -1  103.96    6.77
  -4 -14   1  103.67    7.22
  -4  14  -2   30.72    5.66
  -4  14   2   20.62    5.64
   4  14  -2   26.76    7.37
   4  14   2   35.08    6.86
   4 -14  -2   33.28    5.88
  -4 -14  -2   22.02    5.48
   4 -14   2   27.90    8.02
  -4 -14   2   32.79    4.90
  -4  14  -3   93.44    9.96
  -4  14   3   86.62   10.87
   4  14  -3   73.12    8.86
   4  14   3   83.74    8.51
   4 -14  -3   88.85    7.03
  -4 -14  -3   94.91    6.39
   4 -14   3   90.69    7.61
  -4 -14   3   73.12    5.38
  -4  14  -4  127.08   12.21
  -4  14   4  160.27   15.42
   4  14  -4  149.87   14.02
   4  14   4  125.84   14.79
   4 -14  -4  106.05    7.53
  -4 -14  -4  142.77    9.40
   4 -14   4  159.02   18.55
  -4 -14   4  127.86    8.45
  -4  14  -5   36.35    7.99
  -4  14   5   52.69   10.43
   4  14  -5   41.68    8.25
   4  14   5   46.85    9.19
   4 -14  -5   55.34   10.90
  -4 -14  -5   33.59    7.77
   4 -14   5   42.31    9.98
  -4 -14   5   48.83    9.16
  -4  14  -6  103.72   11.53
  -4  14   6  120.92   10.86
   4  14   6  112.22   10.06
  -4 -14  -6   86.72    8.00
   4 -14  -6   95.93    8.65
  -4 -14   6  111.50    9.48
  -4  14  -7    4.57    2.00
  -4  14   7    9.94    5.05
   4  14  -7    5.86    2.52
   4  14   7   -1.46    2.93
   4 -14  -7    3.35    2.69
  -4 -14   7    2.84    2.52
  -4  14  -8  110.85    8.57
  -4  14   8  112.81    9.33
   4  14   8  127.84   13.47
   4 -14  -8   72.68   13.93
   4 -14   8  120.18   13.20
  -4 -14   8  123.30    9.70
  -4  14   9    3.80    2.94
   4  14   9   12.47    4.95
   4 -14  -9    4.61    4.10
   4 -14   9   14.63    4.09
  -4 -14   9    5.21    2.71
  -4  14  10   61.99   11.93
   4  14  10   73.84   12.29
   4 -14 -10   59.06   10.35
   4 -14  10   37.83    7.04
  -4 -14  10   66.38   10.79
  -4  14  11   20.09    6.71
   4  14  11    0.44    2.72
   4 -14 -11    3.28    2.58
   4 -14  11   -1.36    3.46
  -4 -14  11   16.28    5.91
  -4  14  12   32.18    7.50
   4  14  12   11.77    4.00
   4 -14 -12   11.72    3.77
   4 -14  12   20.13    4.86
  -4 -14  12   23.17    5.28
  -4  14  13    5.97    3.14
   4  14  13    4.92    2.93
   4 -14 -13    6.22    2.77
   4 -14  13    7.90    3.93
  -4 -14  13    2.30    3.25
  -4  15   0   58.00    6.60
   4  15   0   49.62   11.57
   4 -15   0   43.29   10.18
  -4 -15   0   58.98    7.01
  -4  15  -1    4.17    2.02
  -4  15   1    3.37    3.62
   4  15  -1    6.30    3.32
   4  15   1   -3.99    2.04
   4 -15  -1   -2.56    2.83
   4 -15   1    9.43    5.28
  -4 -15  -1    9.74    3.49
  -4 -15   1   -1.02    2.20
  -4  15  -2    7.22    2.10
   4  15  -2   14.10    4.88
   4  15   2   19.29    4.42
   4 -15  -2   12.92    4.81
  -4 -15  -2    5.91    2.29
   4 -15   2   15.45    5.23
  -4 -15   2   11.81    3.95
  -4  15  -3    1.48    1.97
  -4  15   3    2.59    2.55
   4  15  -3   -0.28    1.79
   4  15   3    1.76    2.06
   4 -15  -3    5.89    3.14
  -4 -15  -3    0.03    1.51
   4 -15   3   19.06   10.33
  -4 -15   3    2.56    2.74
  -4  15  -4   19.22    4.54
  -4  15   4   22.46    5.11
   4  15  -4   20.05    4.56
   4  15   4   19.95    5.03
   4 -15  -4   19.91    5.56
  -4 -15  -4   19.45    3.56
   4 -15   4   11.28    4.33
  -4  15  -5   26.44    7.54
  -4  15   5   10.25    3.61
   4  15  -5   14.65    4.65
   4  15   5   20.92    6.59
   4 -15  -5   11.79    4.40
  -4 -15  -5    6.03    1.76
   4 -15   5   16.02    6.58
  -4 -15   5   14.75    4.63
  -4  15  -6   49.92    8.35
  -4  15   6   53.31    8.09
   4  15  -6   60.07    7.21
   4  15   6   52.64    6.80
   4 -15  -6   63.54    6.79
   4 -15   6   77.05    8.79
  -4 -15   6   71.07    6.62
  -4  15  -7   18.44    3.87
  -4  15   7   19.84    5.37
   4  15   7   23.06    6.10
   4 -15  -7   17.78    5.54
   4 -15   7   21.19    6.14
  -4 -15   7    8.69    4.47
  -4  15   8   74.77   12.06
   4  15   8   75.33   13.33
   4 -15  -8   45.51   11.47
  -4 -15   8   71.00   12.49
  -4  15   9   11.65    3.84
   4  15   9   11.32    3.59
   4 -15  -9    4.56    2.62
   4 -15   9   19.16    5.18
  -4 -15   9   19.06    5.31
  -4  15  10   32.63    5.40
   4  15  10   11.06    3.93
   4 -15 -10   24.42    7.24
   4 -15  10   44.51    9.05
  -4 -15  10   38.77    6.01
  -4  15  11   12.95    4.82
   4  15  11    7.33    3.18
   4 -15 -11    3.27    2.53
   4 -15  11    9.98    5.48
  -4 -15  11    9.32    4.33
  -4  15  12    6.60    4.42
   4  15  12    7.16    4.44
   4 -15 -12    1.04    3.04
   4 -15  12   15.21    6.22
  -4 -15  12    3.23    3.02
  -4  16   0    3.11    1.36
   4  16   0   -1.17    2.21
   4 -16   0    3.35    3.10
  -4 -16   0    2.52    1.16
  -4  16  -1   24.61    7.01
  -4  16   1   37.17    6.00
   4  16  -1   31.40    8.76
   4  16   1   17.36    5.89
   4 -16  -1   15.87    5.07
   4 -16   1   15.91    5.18
  -4 -16  -1   16.44    4.41
  -4 -16   1   38.62    4.83
  -4  16  -2   17.47    5.43
  -4  16   2    6.84    2.60
   4  16  -2   10.75    3.69
   4  16   2    1.52    2.60
   4 -16  -2    7.44    3.16
  -4 -16  -2    5.90    2.95
   4 -16   2   12.74    4.59
  -4 -16   2   11.48    4.42
  -4  16  -3    4.02    1.13
  -4  16   3    8.40    4.22
   4  16  -3    0.50    1.85
   4  16   3   -4.45    2.59
   4 -16  -3    8.09    3.64
  -4 -16  -3    0.24    1.43
   4 -16   3    1.22    3.38
  -4 -16   3    2.04    2.39
  -4  16  -4    3.72    1.67
  -4  16   4    5.92    1.75
   4  16  -4    4.78    1.44
   4  16   4    7.14    3.11
   4 -16  -4    3.21    2.89
  -4 -16  -4    3.22    2.01
   4 -16   4    5.40    3.55
  -4 -16   4    8.68    4.27
  -4  16  -5    7.25    2.80
  -4  16   5    8.39    4.40
   4  16  -5    0.43    1.32
   4  16   5    9.25    3.77
   4 -16  -5    1.54    4.03
   4 -16   5    6.67    3.45
  -4 -16   5    7.97    3.06
  -4  16  -6    0.56    1.53
  -4  16   6    1.53    1.64
   4  16   6   -0.70    2.52
   4 -16  -6   13.11    5.48
   4 -16   6    4.92    2.43
  -4 -16   6    4.70    3.04
   4  16   7   10.73    4.34
   4 -16  -7   14.37    4.90
   4 -16   7   14.80    4.77
  -4 -16   7   11.33    4.14
  -4  16   8   11.10    4.26
   4  16   8    5.15    2.39
   4 -16  -8    3.43    1.97
   4 -16   8    2.53    3.27
  -4 -16   8    1.89    2.78
  -4  16   9   12.85    5.93
   4 -16  -9   15.89    5.32
  -4 -16   9   31.36    6.46
  -4  16  10    2.64    3.08
   4  16  10   -3.44    2.95
   4 -16 -10    2.09    2.34
   4 -16  10    5.26    3.93
  -4 -16  10    5.25    3.12
  -4  16  11   12.15    5.00
   4  16  11   19.44    7.01
   4 -16 -11    3.33    2.39
   4 -16  11    7.03    4.19
  -4 -16  11   14.70    4.37
  -4  17   0   30.40    8.37
   4  17   0   22.39    6.18
   4 -17   0   16.45    5.73
  -4 -17   0   18.27    4.94
  -4  17  -1   14.81    5.14
  -4  17   1   14.90    4.80
   4  17  -1   16.23    5.07
   4  17   1    8.29    2.68
   4 -17  -1    8.99    3.37
   4 -17   1    9.12    3.22
  -4 -17  -1    8.50    2.94
  -4 -17   1    7.96    3.20
  -4  17  -2   13.98    4.10
  -4  17   2   13.71    5.16
   4  17  -2   20.54    5.22
   4  17   2    8.82    3.92
   4 -17  -2   17.95    5.63
   4 -17   2   10.46    5.00
  -4 -17   2    5.84    2.24
  -4  17  -3   29.33    5.01
  -4  17   3   24.58    6.81
   4  17  -3   32.52    5.52
   4  17   3   37.12    8.88
   4 -17  -3   19.89    6.12
   4 -17   3   26.16    5.40
  -4 -17   3   37.46    5.23
  -4  17  -4   21.78    5.84
  -4  17   4   17.46    5.69
   4  17  -4   16.09    4.36
   4  17   4   16.72    4.96
   4 -17  -4   15.02    5.52
   4 -17   4   29.65    6.07
  -4 -17   4   15.71    4.54
  -4  17  -5   28.61    5.93
  -4  17   5   34.61    6.81
   4  17   5   32.68    6.18
   4 -17  -5   15.92    4.69
   4 -17   5   39.80    6.08
  -4 -17   5   23.48    6.80
  -4  17  -6   15.88    4.63
  -4  17   6    6.32    3.24
   4  17   6   10.05    4.60
   4 -17  -6    4.81    3.05
   4 -17   6   11.16    5.59
  -4 -17   6   14.41    4.99
  -4  17   7    5.11    2.97
   4  17   7   17.98    4.45
   4 -17  -7   15.73    5.32
   4 -17   7   12.22    4.52
  -4 -17   7    7.40    3.38
  -4  17   8    6.43    2.39
   4 -17  -8    8.53    3.12
  -4 -17   8    0.27    2.96
  -4  17   9   16.29    5.22
   4  17   9   18.09    6.15
   4 -17  -9    7.18    3.66
   4 -17   9   14.26    5.29
  -4 -17   9   16.16    5.77
  -4  18   0   -0.46    2.26
   4  18   0    6.30    3.25
   4 -18   0   12.25    4.78
  -4  18  -1    7.91    3.44
  -4  18   1   -0.22    2.23
   4  18  -1    3.90    3.35
   4  18   1    4.43    3.57
   4 -18  -1    2.85    2.80
   4 -18   1    8.47    3.44
  -4 -18   1   -0.46    1.93
  -4  18  -2    5.69    2.35
  -4  18   2   -1.91    2.31
   4  18  -2    3.15    2.17
   4  18   2    0.89    1.40
   4 -18  -2    5.14    2.88
   4 -18   2    2.86    3.30
  -4 -18   2    6.58    3.37
  -4  18  -3    5.07    2.97
  -4  18   3    6.95    3.12
   4  18  -3    4.03    2.12
   4  18   3    1.22    2.48
   4 -18  -3   12.17    5.08
   4 -18   3   13.00    4.71
  -4 -18   3    7.34    3.11
  -4  18  -4   13.72    4.76
  -4  18   4   19.90    4.78
   4  18   4   13.79    4.50
   4 -18  -4   12.93    5.71
   4 -18   4   13.07    4.82
  -4  18  -5    1.39    1.58
  -4  18   5   16.81    5.41
   4  18   5    3.50    1.69
   4 -18  -5    6.13    3.75
   4 -18   5   14.82    6.41
  -4 -18   5   14.77    4.75
  -4  18   6   14.06    5.40
   4  18   6    2.76    1.88
   4 -18  -6   10.08    3.75
   4 -18   6   17.70    5.97
  -4 -18   6   11.82    4.40
  -5   0   0    1.90    1.02
   5   0   0    1.04    1.21
   5   0   0    4.10    1.42
  -5   0   0    1.69    1.35
  -5   0  -1  994.13   14.70
  -5   0   1 1074.73   15.64
   5   0   1 1023.55   14.80
   5   0  -1 1080.85   15.54
  -5   0   1 1004.80   14.14
   5   0   1 1033.48   14.42
  -5   0  -1 1002.50   13.85
  -5   0  -2   44.45    6.68
   5   0   2   39.38    5.79
  -5   0   2   47.35    6.46
   5   0  -2   36.17    5.41
  -5   0   2   31.66    3.45
   5   0   2   39.67    4.88
  -5   0  -2   45.39    5.46
   5   0   3  209.04    9.60
  -5   0   3  205.44    8.47
   5   0  -3  196.54    7.33
   5   0  -3  199.70    7.69
  -5   0   3  194.91    7.29
   5   0   3  208.42    7.59
  -5   0  -3  208.40    7.84
  -5   0   4  248.31   13.91
   5   0  -4  237.13   13.15
   5   0  -4  239.74   13.60
  -5   0   4  228.91   12.79
   5   0   4  252.80   13.86
  -5   0  -4  249.30   13.65
  -5   0  -5  860.03   24.12
   5   0   5  800.08   22.42
  -5   0   5  832.56   23.30
   5   0  -5  810.85   22.55
   5   0   5  852.16   23.42
   5   0  -5  875.91   24.75
   5   0   5  881.44   24.31
  -5   0  -6    2.96    0.84
  -5   0   6    1.79    1.01
   5   0  -6    1.92    0.79
   5   0   6    3.35    1.21
   5   0  -6    9.32    3.10
   5   0   6    2.92    1.85
  -5   0  -7  118.77   10.41
  -5   0   7  125.42   11.95
   5   0  -7  115.25    8.38
   5   0   7  125.01    9.94
   5   0  -7  120.57    9.22
   5   0   7  131.10   10.82
  -5   0  -8    9.90    2.00
  -5   0   8    7.14    1.65
   5   0  -8    7.31    1.56
   5   0   8    8.19    1.65
   5   0  -8   16.14    3.04
   5   0   8    7.66    1.79
  -5   0  -9  138.12   14.15
  -5   0   9  148.83   14.41
   5   0  -9  135.14   12.09
   5   0  -9  125.35   18.11
   5   0   9  136.41   12.31
  -5   0 -10    8.04    2.33
  -5   0  10   10.72    3.18
   5   0 -10    6.53    2.27
   5   0 -10   17.13    5.08
   5   0  10    4.06    2.00
  -5   0 -11   65.99    8.74
  -5   0  11   60.99    8.49
   5   0 -11   37.12    5.56
   5   0 -11   68.22   11.20
   5   0  11   54.50    6.90
  -5   0  12   29.49    7.19
   5   0 -12   11.58    3.71
   5   0  12   21.94    6.22
   5   0 -12   28.56    7.15
   5   0  12   18.85    4.71
  -5   0  13   13.20    3.95
   5   0  13   10.21    3.23
   5   0  13   10.59    3.26
  -5   0  14    5.99    2.10
   5   0  14    3.00    1.60
   5   0 -14    3.80    1.70
   5   0  14    4.76    3.07
  -5   0  15   36.85    6.53
   5   0  15   46.47    6.47
   5   0 -15   50.22   10.17
   5   0  15   51.70    6.89
   5   0  16    4.61    2.58
   5   0 -16    5.88    2.23
   5   0  16    6.46    3.37
   5   0  17   24.81    7.51
   5   0 -17   37.57    6.23
   5   0  17   39.05    4.12
   5   0 -18   14.49    4.60
   5   0  18    7.69    3.50
   5   0 -19    6.74    2.42
   5   0  19    1.74    2.07
   5   0 -20    7.00    3.03
   5   0  20    2.18    1.98
  -5  -1   0 1466.29   21.43
  -5   1   0 1489.86   21.23
   5   1   0 1419.64   19.59
  -5  -1   0 1429.37   19.58
   5  -1   0 1448.05   20.13
  -5   1   0 1430.30   19.70
  -5  -1  -1  168.75   11.19
  -5  -1   1  183.84    8.53
   5   1  -1  166.64    6.35
  -5   1   1  172.20    6.82
   5  -1   1  167.79    6.55
   5   1  -1  160.32    6.08
   5   1   1  175.33    6.37
  -5  -1   1  172.49    6.35
  -5   1   1  156.42    5.87
   5  -1   1  167.82    6.43
  -5  -1  -1  165.27    5.93
  -5   1  -1  172.01    6.29
  -5  -1  -2  114.70    9.50
   5   1   2  120.12    5.72
   5  -1   2   96.78    4.21
   5   1  -2  105.96    4.34
  -5   1   2  109.67    8.55
   5   1  -2  100.96    4.36
   5  -1  -2  130.34    5.37
  -5  -1   2  117.35    4.92
  -5   1   2   99.47    4.06
   5   1   2  121.67    4.46
   5  -1   2  105.44    4.28
  -5  -1  -2  103.06    3.78
  -5   1  -2  122.10    4.61
  -5  -1  -3   29.45    4.67
  -5   1  -3   36.93    5.34
   5   1   3   26.83    4.04
  -5  -1   3   38.36    4.31
   5  -1   3   19.83    2.46
   5   1  -3   21.31    3.54
   5  -1  -3   22.51    4.28
   5  -1  -3   26.72    3.27
  -5  -1   3   31.39    4.84
  -5   1   3   21.12    2.62
   5   1   3   30.59    3.19
   5  -1   3   25.98    3.54
  -5   1  -3   31.11    3.36
  -5  -1  -3   23.39    2.41
  -5  -1  -4   50.17    7.28
  -5   1  -4   69.91    9.93
   5   1   4   51.53    7.74
  -5  -1   4   64.48    8.28
   5  -1   4   43.37    6.42
  -5   1   4   55.74    8.54
   5   1  -4   42.70    6.82
   5  -1  -4   52.65    6.42
   5   1   4   58.31    6.72
   5  -1  -4   65.53    7.53
  -5  -1   4   61.45    6.97
  -5   1   4   48.87    7.14
   5   1   4   59.32    6.52
   5  -1   4   40.18    4.74
  -5   1  -4   63.15    6.98
  -5  -1  -5   14.48    2.43
  -5   1  -5   19.58    3.45
   5  -1   5   15.20    2.51
  -5  -1   5   18.84    2.93
  -5   1   5   16.84    2.86
   5   1  -5   14.12    2.12
   5  -1  -5   15.55    2.70
   5   1   5   14.52    2.65
   5   1  -5   20.30    4.41
   5  -1  -5   18.63    2.81
   5  -1   5   15.02    2.28
   5   1   5   15.23    2.39
  -5   1  -5   15.90    2.11
  -5  -1  -6  167.90   11.89
  -5   1  -6  154.36    9.80
   5  -1   6  151.71    8.69
  -5  -1   6  163.78    9.34
   5   1  -6  159.22    8.96
   5  -1  -6  158.80    9.05
   5   1   6  154.89    8.71
   5   1  -6  174.26   10.80
   5  -1  -6  135.91    8.12
   5  -1   6  175.55   10.15
   5   1   6  167.64    9.46
  -5  -1  -7  260.19   10.87
  -5   1  -7  228.61   17.26
  -5  -1   7  222.22   16.18
  -5   1   7  244.13   28.36
   5   1  -7  224.70   15.88
   5  -1  -7  210.50   14.97
   5  -1   7  241.73   27.44
   5   1   7  238.36   17.36
   5   1  -7  262.47   10.40
   5  -1  -7  225.28   16.38
   5  -1   7  231.78   16.50
   5   1   7  230.12   16.31
  -5  -1  -8   78.63   10.42
  -5   1  -8   71.26   10.04
  -5  -1   8   66.51    9.55
  -5   1   8   86.51    7.57
   5   1  -8   71.15    9.88
   5  -1  -8   61.07    8.36
   5  -1   8   67.42   10.46
   5   1   8   61.40    8.76
   5   1  -8   89.99   12.96
   5  -1  -8   66.07    8.95
   5  -1   8   82.71    6.39
   5   1   8   71.19    9.55
  -5  -1  -9   69.87    9.63
  -5   1  -9   67.96    7.56
  -5  -1   9   75.58    8.88
  -5   1   9   63.20    8.03
   5   1  -9   55.46    6.53
   5  -1  -9   62.09    5.80
   5   1  -9   75.77   11.81
   5   1   9   62.54    7.46
   5  -1  -9   84.14    8.39
   5  -1   9   72.48    7.24
   5   1   9   71.95    7.02
  -5  -1 -10  233.23   15.96
  -5   1 -10  167.41   13.92
  -5  -1  10  182.85   15.24
  -5   1  10  219.18   11.99
   5   1 -10  206.05   10.59
   5   1 -10  230.49   12.86
   5  -1 -10  232.25   23.36
   5  -1  10  209.43   11.21
   5   1  10  182.35   14.06
  -5   1 -11   94.74   11.54
  -5  -1  11   88.06   11.12
  -5   1  11   73.95    8.57
   5   1 -11   51.10    7.13
   5   1  11   80.50   12.07
   5   1 -11   72.38   14.08
   5  -1 -11   99.72   13.90
   5  -1  11   74.87    8.36
   5   1  11   83.99   11.82
  -5   1 -12  377.66   20.16
  -5  -1  12  341.93   17.51
  -5   1  12  365.14   18.65
   5   1 -12  326.72   16.40
   5   1  12  366.24   18.87
   5   1 -12  342.91   19.97
   5  -1  12  354.62   18.21
   5   1  12  361.41   18.46
  -5   1  13  149.06   10.54
   5   1  13  139.45   12.35
   5  -1  13  151.32    8.98
   5   1 -13  144.60   15.83
   5  -1 -13  133.06   16.83
   5  -1  13  141.69    8.72
   5   1  13  151.25    9.12
  -5  -1  14  324.36   16.80
  -5   1  14  309.15   18.40
   5   1  14  333.07   17.61
   5  -1  14  312.84   16.55
   5  -1 -14  339.03   25.33
   5  -1  14  291.58   15.63
   5   1  14  313.87   16.70
  -5   1  15   17.78    4.36
   5   1  15   16.92    4.49
   5  -1  15   13.34    3.52
   5   1 -15   13.79    4.42
   5  -1 -15   12.98    4.61
   5  -1  15   19.60    4.81
   5   1  15   18.68    4.66
   5   1  16  123.14   10.07
   5  -1  16   94.13    9.22
   5   1 -16  102.23   14.48
   5  -1 -16  107.50   15.54
   5  -1  16   88.03    7.48
   5   1  16  112.46    9.55
   5   1  17    2.13    1.17
   5   1 -17    6.62    2.43
   5  -1 -17    2.95    1.74
   5  -1  17    2.73    2.26
   5   1 -18   39.84   10.97
   5  -1 -18   48.63   12.47
   5  -1  18   53.31    8.68
   5   1  18   74.71   11.74
   5   1 -19   23.47    4.71
   5  -1 -19    7.96    2.59
   5  -1  19    9.59    3.55
   5   1  19    5.81    3.12
   5   1 -20   17.67    5.80
   5  -1 -20    8.29    3.82
   5  -1  20    8.35    3.06
  -5  -2   0  678.23   10.44
  -5   2   0  652.83   10.42
   5  -2   0  607.14    9.62
   5   2   0  624.11    9.04
  -5  -2   0  627.11    8.92
  -5   2   0  620.43    9.26
  -5  -2  -1  172.21    9.78
  -5  -2   1  200.97   10.35
   5   2  -1  159.88    6.13
  -5   2  -1  172.65    6.83
  -5   2   1  150.80    7.91
   5  -2   1  149.64    6.02
   5  -2  -1  165.70    6.43
   5   2  -1  161.93    6.10
   5   2   1  146.72    5.29
  -5  -2   1  170.31    6.26
   5  -2  -1  168.82    6.62
  -5  -2  -1  161.19    5.71
  -5   2   1  151.47    5.78
  -5   2  -1  170.26    6.32
  -5  -2  -2  439.11    7.76
  -5  -2   2  410.75   44.27
   5   2  -2  440.46    7.04
  -5   2  -2  401.79   14.44
   5  -2   2  402.44   14.37
  -5   2   2  401.82   14.57
   5  -2  -2  398.00   14.24
   5   2  -2  408.45   43.94
  -5  -2   2  408.72   43.94
   5  -2  -2  411.17   44.31
   5  -2   2  444.55    7.29
  -5  -2  -2  418.58   44.88
  -5   2  -2  404.04   14.17
   5   2   3  359.35   15.05
  -5  -2   3  391.50   14.14
   5   2  -3  311.30   11.13
  -5   2   3  327.72   12.06
   5  -2  -3  359.89   12.88
   5   2  -3  313.48   11.36
  -5  -2   3  381.92   13.56
   5  -2  -3  384.52   13.90
   5   2   3  366.40   12.56
  -5   2   3  289.32   10.46
   5  -2   3  325.56   11.67
  -5   2  -3  396.02   13.93
  -5  -2   4   98.23   12.99
  -5   2  -4   91.14   10.11
   5  -2   4   91.27   10.96
   5   2  -4   88.28   10.48
   5  -2  -4   85.26   10.03
   5   2   4   76.91    8.40
   5   2  -4  104.73    7.22
  -5  -2   4   93.30   10.29
   5  -2  -4   92.12   10.50
   5   2   4   91.92    9.92
   5  -2   4   88.22   10.17
  -5   2  -4   94.28   10.32
  -5   2  -5 1256.74  153.01
  -5  -2   5 1247.97  151.91
   5  -2   5 1026.34   28.51
   5   2  -5 1193.12   32.78
  -5   2   5 1249.59  152.16
   5  -2  -5 1099.98   30.68
   5   2   5 1107.76   30.18
   5  -2  -5 1321.07  160.90
   5   2   5 1300.61  158.22
  -5   2  -5 1246.81  151.74
  -5  -2  -6  201.09   12.47
  -5   2  -6  164.63   10.01
  -5  -2   6  164.79    9.69
   5  -2   6  180.49   10.26
  -5   2   6  194.47   12.49
   5   2  -6  182.98   10.20
   5  -2  -6  149.51   10.61
   5   2  -6  208.74   11.95
   5   2   6  149.15    8.62
   5  -2  -6  157.49    9.36
   5  -2   6  202.90   11.50
   5   2   6  166.35    9.68
  -5  -2  -7  691.14   20.98
  -5   2  -7  584.88   18.51
  -5  -2   7  583.59   17.48
  -5   2   7  664.70   20.18
   5   2  -7  635.16   18.82
   5   2  -7  679.33   20.96
   5   2   7  568.27   16.89
   5  -2   7  649.07   19.54
   5   2   7  593.74   17.60
  -5  -2  -8  330.66   13.97
  -5   2  -8  325.60   12.34
  -5  -2   8  303.05    9.45
  -5   2   8  321.01   10.43
   5   2  -8  287.85    8.80
   5   2  -8  313.64   12.32
   5   2   8  275.13    8.55
   5  -2  -8  318.76   11.49
   5  -2   8  303.95    9.88
   5   2   8  300.55    9.52
  -5  -2  -9  400.98   17.51
  -5   2  -9  442.00   17.98
  -5  -2   9  431.26   17.37
  -5   2   9  421.09   17.51
   5   2  -9  369.13   14.82
   5   2  -9  401.33   16.95
   5  -2  -9  435.76   18.44
   5   2   9  396.61   16.05
   5  -2   9  388.94   16.99
   5   2   9  415.50   16.83
  -5   2 -10   50.58    7.57
  -5  -2  10   52.25    7.55
  -5   2  10   54.98    8.97
   5   2 -10   36.87    6.15
   5   2  10   48.72    6.64
   5   2 -10   45.54    8.44
   5  -2 -10   67.12   10.36
   5   2  10   46.87    5.87
   5  -2  10   43.14    5.94
   5   2  10   46.48    6.08
  -5   2 -11  111.85   13.38
  -5  -2  11  120.96   13.47
  -5   2  11  165.39   11.43
   5   2 -11  137.99    6.64
   5   2  11  127.84   10.59
   5   2 -11  164.20   13.11
   5  -2  11  143.41   10.70
  -5   2 -12    2.15    1.73
  -5  -2  12    2.70    1.29
  -5   2  12    4.82    2.00
   5   2 -12    1.40    0.61
   5   2  12    0.37    1.66
   5   2 -12   -2.41    2.33
   5  -2 -12    3.67    1.80
   5  -2  12   10.10    4.61
  -5   2 -13   49.88    5.92
  -5  -2  13   45.97   12.76
  -5   2  13   54.61    6.71
   5   2  13   53.64    5.30
   5   2 -13   49.81    7.07
   5  -2 -13   49.36    9.30
   5  -2  13   47.40   12.59
  -5   2  14    5.55    2.52
   5   2  14    2.27    2.11
   5  -2  14    3.23    1.85
   5   2 -14   12.09    4.90
   5  -2 -14    4.68    3.11
   5  -2  14    4.53    3.49
  -5   2  15   64.64   11.83
   5   2  15   57.13    8.79
   5  -2  15   68.47    4.79
   5   2 -15   86.02   12.46
   5  -2 -15   58.64   11.28
   5  -2  15   79.09    6.31
   5   2  15   57.76    7.51
  -5   2  16    1.30    1.20
   5   2  16    5.03    1.83
   5  -2  16    2.65    0.84
   5  -2 -16    6.74    2.41
   5  -2  16    5.76    3.54
   5   2  16    4.29    2.04
   5   2  17    8.25    3.59
   5   2 -17    6.92    3.04
   5  -2 -17   18.97    5.82
   5  -2  17    7.11    3.62
   5   2  17    6.63    2.21
   5   2  18    2.35    1.97
   5   2 -18    7.93    2.28
   5  -2 -18   -1.89    2.83
   5  -2  18    3.43    2.43
   5   2  18    4.40    2.01
   5   2 -19   30.82    7.37
   5  -2 -19   10.86    3.26
   5  -2  19   30.30    5.99
   5   2  19   19.84    3.95
   5   2 -20   11.28    3.41
   5  -2 -20    8.67    3.35
   5  -2  20   28.60    7.44
  -5  -3   0   80.45   10.27
   5   3   0   68.78    7.08
   5  -3   0   64.88    9.27
   5   3   0   66.23    6.92
  -5  -3   0   63.32    6.21
   5  -3   0   71.11    7.45
  -5   3   0   69.13    6.86
  -5  -3  -1  503.68   10.37
   5   3   1  524.13    9.72
   5   3  -1  468.06    7.39
  -5   3   1  486.56    8.81
   5  -3   1  477.92    7.94
   5   3   1  492.18    6.92
   5   3  -1  466.77    7.74
  -5  -3   1  510.05    7.56
  -5   3  -1  530.14    8.11
  -5  -3  -2   89.35    9.29
  -5  -3   2   89.62   10.54
   5   3   2   72.37    8.89
   5   3  -2   78.07    8.39
   5  -3   2   71.67    8.06
  -5   3   2   76.00   10.15
   5   3  -2   78.67   10.46
  -5  -3   2   66.74    6.60
   5  -3  -2   77.03    8.02
  -5   3   2   68.64    6.97
  -5  -3  -2   75.66    7.24
  -5   3  -2   70.88    7.08
  -5  -3  -3  233.35   14.34
  -5  -3   3  234.75   13.87
   5   3  -3  253.60   14.45
  -5   3  -3  240.78   13.54
   5  -3   3  231.88   14.39
  -5   3   3  258.59   14.68
   5   3  -3  259.53   14.45
  -5  -3   3  216.73   12.03
   5  -3  -3  238.63   13.55
   5  -3   3  245.36   13.72
  -5   3  -3  250.90   13.87
  -5  -3  -4    7.51    2.03
  -5  -3   4    9.22    1.45
  -5   3  -4    5.79    2.00
   5   3  -4    3.05    1.31
   5  -3   4    3.38    1.15
  -5   3   4   11.35    1.85
   5   3  -4    7.74    1.95
  -5  -3   4    3.92    0.90
   5  -3  -4    5.62    1.39
   5  -3   4    6.50    1.97
  -5   3  -4    8.21    1.33
  -5  -3   5  198.24   11.06
  -5   3  -5  199.14   11.25
   5   3  -5  179.79   10.51
   5  -3   5  172.74   11.26
  -5   3   5  179.38   10.88
   5   3  -5  193.35   11.08
   5  -3  -5  178.36   10.45
   5   3   5  186.80   10.14
   5  -3   5  196.42   11.42
   5   3   5  199.37   10.82
  -5   3  -5  188.53   10.55
  -5  -3  -6    2.83    0.81
  -5  -3   6    2.27    0.60
  -5   3  -6    1.57    1.63
   5  -3   6    3.98    1.36
   5   3  -6    3.41    1.43
  -5   3   6    2.38    1.68
   5  -3  -6   12.68    3.81
   5   3   6    2.70    0.67
   5  -3   6    6.26    1.51
   5   3   6    2.20    0.73
  -5  -3  -7   29.93    5.39
  -5   3  -7   47.67    7.80
  -5  -3   7   41.39    5.75
   5  -3   7   24.66    4.16
   5   3  -7   24.18    4.13
  -5   3   7   27.11    4.44
   5   3  -7   31.02    5.91
   5  -3  -7   46.77    6.82
   5   3   7   33.07    4.22
   5  -3   7   17.80    3.32
   5   3   7   44.73    6.02
  -5  -3  -8   49.00    7.51
  -5   3  -8   82.57   10.09
  -5  -3   8   75.65    8.58
  -5   3   8   44.49    5.73
   5   3  -8   44.68    6.36
   5   3  -8   55.74    7.96
   5  -3  -8   68.42    6.94
   5   3   8   66.20    6.02
   5  -3   8   50.45    6.61
  -5   3  -9  396.44   16.73
  -5  -3   9  360.05   14.55
  -5   3   9  448.85   18.66
   5   3  -9  410.45   16.39
   5   3   9  418.71   18.25
  -5  -3  -9  431.05   17.31
   5   3  -9  440.58   19.70
   5   3   9  338.76   13.78
   5  -3   9  414.06   17.27
  -5   3 -10  225.99   12.37
  -5  -3  10  196.75   32.92
  -5   3  10  201.81   13.78
   5   3 -10  177.42   13.58
   5   3  10  202.46   11.15
  -5  -3 -10  189.03   15.24
   5   3 -10  195.70   32.98
   5   3  10  179.03   13.69
   5  -3  10  213.39   11.67
  -5   3 -11   78.25    9.93
  -5  -3  11   70.02    8.21
  -5   3  11   98.56   13.06
   5   3 -11   84.10    9.00
   5   3  11   81.67   12.85
  -5  -3 -11   85.80   10.92
   5   3 -11   96.55   16.73
   5  -3 -11  108.99   12.52
   5  -3  11  101.21   11.38
  -5   3 -12  159.21    8.63
  -5  -3  12  149.66    7.53
  -5   3  12  148.32   12.49
   5   3 -12  124.48   17.30
   5   3  12  206.92   11.54
  -5  -3 -12  139.32    8.84
   5   3 -12  141.72   15.75
   5  -3 -12  183.65   13.81
   5  -3  12  141.32    8.34
  -5   3 -13   83.08    7.87
  -5   3  13   63.80    9.41
   5   3  13   80.03   22.29
  -5  -3 -13   78.86   10.64
   5   3 -13   70.63   14.20
   5  -3 -13   69.23   13.71
   5  -3  13   78.95   10.32
  -5   3  14  247.32   18.26
   5   3  14  263.44   16.54
   5  -3  14  235.57   14.50
  -5  -3 -14  224.92   16.05
   5   3 -14  232.61   23.32
   5  -3 -14  293.49   18.91
   5  -3  14  243.86   15.53
  -5   3  15    5.16    2.55
   5   3  15    2.44    1.79
   5  -3  15    7.27    1.96
  -5  -3 -15    4.91    1.34
   5   3 -15    5.26    2.50
   5  -3 -15   12.00    5.03
   5  -3  15    8.03    3.94
  -5   3  16   48.24    5.50
   5   3  16   59.99   10.77
  -5  -3 -16   38.03    8.47
   5  -3 -16   61.62   11.60
   5  -3  16   48.34    5.16
   5   3  17    3.50    1.81
   5  -3 -17    5.39    2.63
   5  -3  17    8.91    3.47
   5   3  18   43.68   11.60
   5   3 -18   40.30    8.34
   5  -3 -18   49.61   10.68
   5  -3  18   55.34    9.50
   5   3  18   59.40    9.09
   5   3 -19   13.82    4.25
   5  -3 -19    9.18    4.18
   5  -3  19   15.08    4.87
   5   3 -20    8.23    3.55
   5  -3 -20    6.23    2.21
   5  -3  20    6.17    3.66
   5   4   0  455.48   13.00
  -5   4   0  473.77   13.98
   5   4   0  447.60   12.46
  -5  -4   0  433.76   12.11
   5  -4   0  480.47   14.11
  -5  -4  -1   91.18   12.57
  -5  -4   1  104.31    7.92
   5   4  -1   72.12    9.62
  -5   4  -1   84.10   12.10
  -5   4   1   86.06   12.95
   5  -4   1   73.28    9.36
   5   4  -1   90.81   10.72
  -5  -4   1   81.24    8.89
  -5  -4  -1   68.52    7.44
   5  -4  -1   83.69    9.41
   5  -4   1   77.76    8.82
  -5   4  -1   83.27    9.19
  -5  -4  -1   75.55    8.28
  -5  -4  -2    2.36    0.71
  -5  -4   2    0.86    0.69
   5   4  -2    2.22    0.57
  -5   4  -2    4.32    1.93
  -5   4   2   -1.48    1.54
   5  -4   2    2.46    1.29
   5   4  -2    0.72    0.49
  -5  -4   2    1.19    0.84
  -5  -4  -2    1.88    0.38
   5  -4  -2    4.23    1.92
   5  -4   2    1.37    3.02
  -5  -4  -2    6.14    0.82
  -5   4  -2    3.67    1.29
  -5  -4  -3   11.69    2.16
  -5  -4   3    3.33    1.07
   5   4  -3    5.34    1.64
  -5   4  -3    4.97    1.41
   5  -4   3    3.28    1.30
  -5   4   3    2.53    0.95
   5   4  -3    4.46    1.09
  -5  -4   3   10.26    1.96
   5  -4  -3   12.23    2.73
  -5  -4   4   59.43    7.36
   5   4  -4   49.91    6.81
  -5   4  -4   56.90    7.91
   5  -4   4   43.34    6.74
  -5   4   4   63.30   10.07
   5   4  -4   61.04    9.79
  -5  -4   4   61.90    8.00
   5  -4  -4   65.37   10.37
   5  -4   4   59.15   10.13
  -5  -4  -5  205.28   17.09
  -5  -4   5  225.67   16.73
  -5   4  -5  217.31   15.59
   5   4  -5  169.99   12.87
   5  -4   5  154.53   11.22
   5   4  -5  195.28   14.15
   5  -4  -5  216.19   15.75
   5  -4   5  185.10   13.65
  -5  -4  -6  320.28   11.25
  -5  -4   6  328.44   10.35
  -5   4  -6  328.52   10.38
   5   4  -6  320.31    9.74
  -5   4   6  334.59   11.03
   5   4  -6  351.46   11.46
   5  -4  -6  343.16   11.38
   5   4   6  335.49    9.96
   5  -4   6  313.99   10.33
   5   4   6  297.41    9.13
  -5  -4   7  289.61    8.85
  -5   4  -7  275.86    8.84
   5   4  -7  261.31    8.13
  -5   4   7  279.94    9.71
   5   4   7  305.03   10.98
  -5  -4  -7  236.40   16.58
   5   4  -7  285.62    9.68
   5  -4  -7  292.70   12.01
   5   4   7  282.80    8.61
   5  -4   7  279.42    9.53
  -5  -4   8  298.28   12.00
  -5   4  -8  309.64   12.85
   5   4  -8  241.90   10.17
  -5   4   8  251.72   11.22
   5   4   8  326.39   14.18
  -5  -4  -8  230.30    9.38
   5   4  -8  290.67   12.59
   5   4   8  276.85   11.21
   5  -4   8  264.21   12.07
  -5  -4   9   52.16    6.79
  -5   4   9   56.32    7.89
   5   4  -9   36.73    5.65
   5   4   9   59.07   10.08
  -5  -4  -9   47.50    6.61
   5   4  -9   64.94   11.42
   5  -4  -9   55.57    7.50
   5   4   9   49.70    6.73
   5  -4   9   47.64    6.44
  -5  -4  10  155.16    7.20
  -5   4 -10  168.28    8.20
  -5   4  10  202.37   10.46
   5   4 -10  173.61    8.23
   5   4  10  168.68   12.52
  -5  -4 -10  195.32    9.86
   5   4 -10  209.65   13.63
   5  -4 -10  181.53   10.10
   5   4  10  151.68   10.14
   5  -4  10  196.30   10.43
  -5   4 -11   30.14    7.60
  -5   4  11   29.34    7.03
   5   4  11   30.22    7.52
  -5  -4 -11   30.80    8.65
   5   4 -11   44.79    8.57
   5  -4 -11   28.00    6.91
   5   4  11   16.83    4.02
   5  -4  11   33.59    9.43
  -5   4 -12  167.34    9.55
  -5   4  12  168.80   11.30
   5   4  12  171.34   10.99
  -5  -4 -12  169.74   10.73
   5   4 -12  186.90   17.26
   5  -4 -12  161.35   10.36
   5  -4  12  181.57   11.53
  -5   4 -13   52.02    8.19
  -5   4  13   87.84    8.16
   5   4  13   51.95    7.09
  -5  -4 -13   76.67   10.82
   5   4 -13   92.64   12.51
   5  -4 -13   65.33   10.30
   5  -4  13   85.69    6.07
  -5   4 -14    6.21    2.19
  -5   4  14    1.48    1.53
   5   4  14    4.78    3.00
  -5  -4 -14    5.08    1.71
   5   4 -14    4.04    2.66
   5  -4 -14    5.63    2.82
   5  -4  14    1.18    2.15
  -5   4  15    5.83    2.32
   5   4  15   11.21    3.21
   5  -4  15    9.20    2.23
  -5  -4 -15   12.87    3.24
   5   4 -15    4.76    3.07
   5  -4 -15   14.97    4.94
   5  -4  15   11.43    5.31
  -5   4  16   12.72    4.01
   5   4  16   11.78    4.23
  -5  -4 -16    6.81    1.76
   5   4 -16    8.40    3.23
   5  -4 -16    8.68    3.22
   5  -4  16    9.01    4.58
  -5   4  17    4.82    2.48
   5   4  17    1.88    1.88
  -5  -4 -17    4.84    1.57
   5   4 -17    8.61    3.84
   5  -4 -17   12.00    4.09
   5  -4  17   14.18    5.20
   5   4  18    0.77    1.79
   5  -4 -18    8.66    3.59
   5  -4  18   10.32    4.45
   5   4  19    6.90    2.63
   5   4 -19   24.55    7.18
   5  -4 -19    8.72    2.74
   5  -4  19   13.52    6.11
  -5  -5   0   32.20    5.32
  -5   5   0   37.38    5.82
  -5  -5   0   27.72    4.02
   5  -5   0   30.55    4.08
  -5  -5   0   28.26    3.37
  -5  -5  -1  835.37   23.57
  -5  -5   1  750.49   21.13
   5   5  -1  758.80   21.15
  -5   5   1  850.36   24.22
   5   5  -1  789.17   21.84
  -5  -5  -1  709.29   19.46
  -5  -5   1  680.51   18.90
   5  -5  -1  766.79   23.07
   5  -5   1  838.41   23.75
  -5  -5  -1  804.32   22.06
  -5  -5  -2  324.90   10.79
   5   5  -2  272.78   16.37
  -5   5  -2  253.60   14.40
  -5   5   2  243.91   14.00
   5   5  -2  295.05   36.06
  -5  -5   2  234.56   12.99
  -5  -5  -2  229.10   12.44
   5  -5  -2  253.99   14.52
   5  -5   2  298.50   36.63
  -5  -5  -2  283.21   15.37
  -5  -5  -3  245.19   17.58
  -5  -5   3  191.07   13.78
   5   5  -3  197.01   13.00
  -5   5  -3  168.90   10.44
  -5   5   3  212.11   12.40
  -5  -5   3  169.30    9.54
   5  -5  -3  173.63   10.20
   5  -5   3  216.39   12.37
  -5  -5   4  280.85   11.70
   5   5  -4  299.94   10.81
  -5   5  -4  261.28    8.58
  -5   5   4  313.10   10.65
   5   5  -4  332.73   10.66
   5  -5  -4  269.66   10.77
  -5  -5   5  207.42   15.10
   5   5  -5  198.67   14.56
  -5   5  -5  229.49   16.44
  -5   5   5  180.40   14.87
   5   5   5  237.72   17.34
   5   5  -5  223.61   16.07
   5  -5  -5  212.56   15.46
   5  -5   5  203.49   15.03
  -5  -5   6  246.73   27.99
  -5   5  -6  266.28    8.71
   5   5  -6  333.64   10.47
  -5   5   6  330.52   11.30
   5   5   6  269.05    9.62
  -5  -5  -6  243.60   27.52
   5  -5  -6  250.75   28.75
   5   5   6  255.71    7.57
   5  -5   6  350.69   11.70
  -5  -5   7   99.89   10.16
  -5   5  -7  104.57   10.92
   5   5  -7   88.84    9.02
  -5   5   7  111.20   13.49
   5   5   7   94.88    9.21
  -5  -5  -7   96.31    8.82
   5   5  -7  124.25   16.00
   5  -5   7  109.49   10.41
  -5  -5   8  284.70   14.32
   5   5  -8  314.45   15.80
  -5   5   8  313.18   16.55
   5   5   8  300.32   15.96
  -5  -5  -8  276.69   13.99
   5   5  -8  342.78   17.95
   5  -5  -8  330.76   20.91
   5   5   8  299.10   15.05
   5  -5   8  323.80   17.07
  -5   5  -9  109.80    9.05
  -5   5   9  150.68   12.19
   5   5  -9  137.27   10.56
   5   5   9  118.15   10.64
   5   5  -9  123.36    9.85
  -5  -5  -9  141.10   11.27
   5   5  -9  149.93   13.89
   5  -5  -9  104.83    8.96
   5   5   9  104.66    8.13
   5  -5   9  146.35   11.88
  -5   5 -10  146.10    9.84
  -5   5  10  141.57   13.89
   5   5  10  163.55    9.15
  -5  -5 -10  138.01    7.04
   5   5 -10  163.54   12.78
   5  -5 -10  142.81    8.04
   5   5  10  124.71   13.97
   5  -5  10  148.18    8.67
  -5   5 -11    3.03    1.23
  -5   5  11    4.04    2.22
   5   5  11    3.02    3.25
  -5  -5 -11    3.57    1.05
   5   5 -11   -2.77    2.30
   5  -5 -11    4.23    2.94
   5   5  11    2.20    1.12
   5  -5  11   -0.50    3.11
  -5   5 -12   20.08    4.37
  -5   5  12    3.89    2.24
   5   5  12   14.24    5.42
   5   5 -12   11.71    3.97
  -5  -5 -12    4.15    1.30
   5  -5 -12   11.22    4.69
   5  -5  12    9.36    3.99
  -5   5 -13   32.50    6.74
  -5   5  13   47.08    7.09
   5   5  13   29.94    6.36
  -5  -5 -13   33.05    7.75
   5   5 -13   46.02    7.88
   5  -5 -13   47.03    7.52
   5  -5  13   44.76    7.20
  -5   5 -14    4.58    1.34
  -5   5  14    7.28    2.02
   5   5  14    7.04    2.37
  -5  -5 -14    2.30    0.77
   5   5 -14   11.36    2.82
   5  -5 -14   -0.17    2.68
   5  -5  14    3.47    3.30
  -5   5  15    7.42    3.03
   5   5  15    6.20    3.21
  -5  -5 -15    3.41    1.05
   5   5 -15   15.27    4.15
   5  -5 -15    2.85    1.71
   5  -5  15   10.16    4.71
  -5   5  16   13.48    4.40
   5   5  16    6.75    2.69
  -5  -5 -16    5.41    1.95
   5   5 -16   14.94    4.79
   5  -5 -16    8.40    3.41
   5  -5  16    7.29    3.24
  -5   5  17   -0.82    1.54
   5   5  17    1.65    2.03
   5   5 -17    4.32    2.15
   5  -5 -17    7.05    3.37
   5  -5  17    7.00    3.47
   5   5  18    1.49    1.79
   5   5 -18    4.50    2.53
   5  -5 -18    6.62    3.14
   5  -5  18    5.81    3.07
   5   5  19    7.66    2.89
   5   5 -19   11.45    3.80
   5  -5 -19    3.59    2.07
   5  -5  19    4.62    2.31
  -5   6   0   47.62    8.77
   5   6   0   41.22    7.49
  -5  -6   0   44.18    5.64
   5  -6   0   58.25    8.86
  -5  -6   0   56.86    7.55
  -5   6  -1  161.31   11.88
  -5   6   1  159.56   11.97
   5   6   1  192.55   17.63
  -5  -6  -1  141.84   10.41
  -5  -6   1  161.22   11.51
   5  -6  -1  177.61   13.25
   5  -6   1  173.94   12.96
  -5  -6  -1  157.55   11.23
  -5  -6   1  170.35   13.02
  -5  -6   2   62.25    8.99
   5   6  -2   59.65    8.93
  -5   6  -2   72.12   10.80
  -5   6   2   84.42   12.20
   5   6   2   69.76    9.23
  -5  -6  -2   62.13    8.06
  -5  -6   2   69.22   10.28
   5  -6  -2   75.15   11.81
   5  -6   2   62.17    8.70
  -5  -6  -2   67.44    8.33
  -5  -6   2   80.95    7.30
   5   6  -3   46.68    6.86
  -5   6  -3   91.99   11.51
  -5   6   3   68.36   11.06
   5   6  -3   58.89    7.88
  -5  -6  -3   47.33    6.02
  -5  -6   3   77.00   10.85
   5  -6  -3  100.75   11.16
  -5  -6  -3   61.08    7.52
   5  -6   3   66.15    8.91
   5   6  -4   36.54    5.28
  -5   6  -4   51.61    9.16
  -5   6   4   51.88    8.32
   5   6   4   52.79    9.79
   5   6  -4   51.62    8.12
  -5  -6  -4   28.99    3.80
  -5  -6  -4   34.58    4.51
   5  -6  -4   58.04    8.20
   5  -6   4   53.07    8.10
   5   6  -5  253.79    9.99
  -5   6  -5  284.81    9.39
  -5   6   5  284.16    9.94
   5   6   5  287.05   10.20
   5   6  -5  253.37   28.99
   5   6  -5  293.85    9.77
  -5  -6  -5  214.95   15.08
   5  -6   5  272.25    9.45
   5   6   5  224.59   15.69
   5   6  -6   99.65    9.74
  -5   6  -6  116.61   10.66
  -5   6   6  108.15   11.40
   5   6   6  134.04   15.46
   5   6  -6   98.84    8.95
   5   6  -6  123.13   13.00
  -5  -6  -6   82.21    7.47
   5  -6   6  108.70   10.39
  -5   6  -7  190.05    9.04
   5   6  -7  161.26   40.92
  -5   6   7  189.42    9.09
   5   6   7  190.44    9.20
   5   6  -7  167.37    7.04
   5   6  -7  189.10   13.69
  -5  -6  -7  145.11   12.87
   5  -6  -7  167.31    8.04
   5   6   7  168.72    6.93
   5  -6   7  186.05    9.46
   5   6  -8  188.95   14.44
  -5   6   8  199.46   11.36
   5   6  -8  193.91   32.39
   5   6   8  194.95   33.91
   5   6  -8  225.57   15.15
  -5  -6  -8  176.97   13.67
   5  -6  -8  189.71   32.04
   5   6   8  160.17   12.13
   5  -6   8  208.85   13.61
  -5   6  -9  192.82    9.35
   5   6  -9  204.61    9.73
  -5   6   9  227.50   11.90
   5   6  -9  212.00   10.04
   5   6   9  194.83   10.44
   5   6  -9  262.72   18.89
  -5  -6  -9  228.65   11.01
   5  -6  -9  198.49   11.08
   5   6   9  171.26    8.13
   5  -6   9  252.27   17.67
  -5   6 -10  293.17   14.93
  -5   6  10  273.07   19.78
   5   6  10  281.00   15.53
   5   6 -10  310.20   19.75
  -5  -6 -10  279.92   14.57
   5  -6 -10  290.42   16.54
   5   6  10  258.01   13.04
   5  -6  10  288.73   20.09
  -5   6 -11   87.18    8.50
  -5   6  11   96.70   13.62
   5   6  11   73.43    7.38
   5   6 -11  107.82   15.39
  -5  -6 -11   91.60    8.11
   5  -6 -11   78.29    7.74
   5  -6  11   93.73   11.19
  -5   6 -12  108.26    6.06
  -5   6  12  113.66   10.06
   5   6  12  104.52    7.15
   5   6 -12  121.78   10.36
  -5  -6 -12  114.63    7.60
   5  -6 -12  125.77    8.54
   5  -6  12  120.11    8.35
  -5   6 -13  166.54   10.24
  -5   6  13  189.63   18.64
   5   6  13  166.35   14.96
   5   6 -13  197.59   17.39
  -5  -6 -13  156.92   10.42
   5  -6 -13  188.62   13.28
   5  -6  13  164.01   13.40
  -5   6  14    5.78    2.55
   5   6  14    5.27    2.47
   5   6 -14   10.27    3.57
  -5  -6 -14    4.34    1.21
   5  -6 -14    5.25    2.73
   5  -6  14    5.94    3.56
  -5   6  15   99.36    9.90
   5   6  15  109.01   13.02
   5   6 -15  108.54   16.11
  -5  -6 -15   96.04   10.10
   5  -6 -15   81.54   17.43
   5  -6  15  127.37   11.25
  -5   6  16    4.17    1.91
   5   6  16    9.21    3.75
   5   6 -16    5.60    1.65
   5  -6 -16   11.66    3.87
   5  -6  16    7.97    3.02
  -5   6  17   41.47    9.41
   5   6  17   38.17    8.90
   5   6 -17   51.63   11.02
   5  -6 -17   33.35    9.71
   5  -6  17   49.95    9.11
  -5   6  18    5.02    1.95
   5   6  18   13.25    4.01
   5   6 -18    7.78    3.36
   5  -6 -18   10.05    3.00
   5  -6  18   11.92    5.85
   5   6  19    8.90    3.08
   5   6 -19   10.93    4.62
   5  -6  19   23.55    6.95
  -5   7   0    2.88    1.21
   5   7   0    5.93    1.99
  -5  -7   0    1.63    0.53
   5  -7   0    7.23    2.83
  -5  -7   0    4.89    1.63
  -5   7  -1  269.43    9.27
   5   7   1  283.64    9.66
   5   7  -1  254.92    8.63
  -5  -7  -1  249.03   28.66
  -5  -7   1  263.03    8.23
   5  -7  -1  261.36    9.31
   5  -7   1  271.75    9.47
  -5  -7  -1  267.93    8.65
  -5  -7   1  280.09   10.05
  -5   7  -2  250.46   28.70
  -5   7   2  299.73   10.54
   5   7   2  274.27    9.84
   5   7  -2  300.14   13.51
  -5  -7  -2  254.84    8.11
  -5  -7   2  258.31    9.88
   5  -7  -2  273.90    9.71
   5  -7   2  303.17   10.33
  -5  -7  -2  285.20    9.15
  -5  -7   2  269.42    8.85
   5   7  -3   42.48    6.36
  -5   7  -3   67.18    9.79
  -5   7   3   58.44    9.94
   5   7  -3   55.52    7.83
   5   7   3   83.38   12.04
  -5  -7  -3   43.14    6.04
   5  -7  -3   96.14    9.65
  -5  -7  -3   59.63    7.44
   5  -7   3   63.99   10.35
  -5  -7   3   63.39    8.21
   5   7  -4  466.17   20.76
  -5   7  -4  524.88   21.42
  -5   7   4  532.53   22.11
   5   7   4  554.07   23.12
   5   7  -4  515.24   20.88
  -5  -7  -4  500.41   19.82
   5  -7   4  541.32   25.12
  -5  -7   4  501.59   21.53
   5   7  -5  149.90   13.98
  -5   7  -5  125.11   11.76
  -5   7   5  182.85    9.04
   5   7  -5  156.96   39.69
   5   7   5  144.78   13.57
   5   7  -5  163.11   10.07
  -5  -7  -5  146.23   13.03
   5  -7   5  153.89   39.33
   5   7  -6  402.81   20.32
  -5   7  -6  428.05   21.91
  -5   7   6  427.95   22.29
   5   7   6  447.52   23.31
   5   7  -6  402.63   20.39
   5   7  -6  426.64   21.87
  -5  -7  -6  349.60   17.50
   5  -7  -6  432.63   22.41
   5  -7   6  400.02   20.90
   5   7   6  429.95   21.48
   5   7  -7   22.88    6.14
  -5   7  -7   30.72    6.30
  -5   7   7   16.04    4.91
   5   7  -7   21.39    5.60
   5   7   7   18.90    5.56
   5   7  -7   30.99    5.77
  -5  -7  -7   17.89    4.93
   5  -7  -7   39.80    6.73
   5   7   7   18.40    4.77
   5  -7   7   29.60    5.59
  -5   7  -8  420.54   19.74
   5   7  -8  368.33   17.55
  -5   7   8  385.68   18.87
   5   7  -8  406.48   19.42
   5   7   8  420.77   20.54
   5   7  -8  393.93   19.87
  -5  -7  -8  340.56   16.00
   5  -7  -8  398.72   20.13
   5   7   8  373.19   17.16
   5  -7   8  408.34   19.91
  -5   7  -9   22.00    5.62
   5   7  -9   15.23    3.65
  -5   7   9   21.88    5.70
   5   7  -9   15.15    3.83
   5   7   9   15.23    5.15
   5   7  -9   29.53    7.56
  -5  -7  -9   15.19    3.88
   5  -7  -9   21.34    6.19
   5  -7   9   23.21    6.26
  -5   7 -10   42.63    9.51
  -5   7  10   35.61    8.90
   5   7  10   48.95    7.76
   5   7 -10   51.82    6.30
  -5  -7 -10   36.06    7.83
   5  -7 -10   47.59    5.85
   5   7  10   17.15    5.10
   5  -7  10   52.04    7.14
  -5   7 -11    2.92    1.71
  -5   7  11    2.90    2.29
   5   7  11    0.17    2.43
   5   7 -11   -1.58    2.32
  -5  -7 -11    0.56    0.81
   5  -7 -11    4.07    3.16
   5  -7  11    5.62    5.40
  -5   7 -12   25.10    5.92
  -5   7  12   10.94    3.86
   5   7  12   31.22    6.60
   5   7 -12   18.76    3.98
  -5  -7 -12   17.72    4.17
   5  -7 -12   13.92    3.53
   5  -7  12   30.86    7.21
  -5   7 -13   15.44    4.23
  -5   7  13   19.50    5.26
   5   7  13   21.14    6.20
   5   7 -13   18.81    5.67
  -5  -7 -13    8.90    2.91
   5  -7 -13   19.09    5.35
   5  -7  13   17.71    5.86
  -5   7  14    3.45    2.24
   5   7  14    7.26    3.12
   5   7 -14    8.67    3.28
  -5  -7 -14    4.41    1.43
   5  -7 -14    9.81    3.78
   5  -7  14    2.07    3.34
  -5   7  15   -0.90    1.95
   5   7  15    0.54    2.15
   5   7 -15    5.47    2.74
   5  -7 -15    4.59    2.82
   5  -7  15    1.68    2.72
  -5   7  16   15.41    4.60
   5   7  16   17.15    5.36
   5   7 -16   23.80    6.72
   5  -7 -16   19.23    5.43
   5  -7  16   17.84    6.43
  -5   7  17   15.24    4.40
   5   7  17   10.15    4.15
   5   7 -17    4.87    2.59
   5  -7 -17   -0.35    2.69
   5  -7  17   11.56    4.51
  -5   7  18    8.34    3.10
   5   7  18    8.75    3.72
   5   7 -18   16.03    5.56
   5  -7 -18    5.73    2.87
   5  -7  18   14.21    5.59
  -5   8   0  153.03   14.21
   5   8   0  139.98   13.86
  -5  -8   0  121.74   11.91
   5  -8   0  146.13   13.60
  -5  -8   0  137.10   12.80
  -5   8  -1   79.24   11.91
  -5   8   1   85.16    8.47
   5   8  -1   87.88   11.94
   5   8   1   86.15   11.51
  -5  -8  -1   80.14    8.32
  -5  -8   1   59.86    7.08
   5  -8  -1   91.43   11.29
   5  -8   1   81.07    8.46
  -5  -8  -1   97.44    9.51
  -5  -8   1   70.68    6.71
  -5   8  -2  156.82   40.66
   5   8   2  152.84   14.19
   5   8  -2  147.88   13.52
  -5  -8  -2  132.58   11.93
   5  -8  -2  147.85   14.02
   5  -8   2  159.44   40.53
  -5  -8  -2  143.78   12.83
  -5  -8   2  156.69   40.42
  -5   8  -3    7.14    1.63
  -5   8   3   -1.37    2.36
   5   8  -3    1.59    1.64
   5   8   3    8.88    3.08
  -5  -8  -3    1.01    0.47
  -5  -8  -3    5.60    1.37
   5  -8   3    4.14    2.71
  -5  -8   3    7.56    1.79
  -5   8  -4  185.03    8.50
  -5   8   4  219.10   11.66
   5   8  -4  223.54    9.70
  -5  -8  -4  203.70    8.31
   5  -8  -4  183.41    8.68
   5  -8   4  231.16   10.65
  -5  -8   4  177.33    8.15
   5   8   4  145.72   12.95
   5   8  -5   42.53    6.95
  -5   8  -5   74.53    9.34
  -5   8   5   89.60   17.94
   5   8  -5   59.60    7.85
   5   8   5   77.61   10.30
  -5  -8  -5   55.03    7.28
   5  -8  -5   85.95   15.11
   5  -8   5   64.02    9.55
   5   8   5   61.98    7.53
  -5  -8   5   72.40    9.29
   5   8  -6    5.69    1.71
  -5   8  -6   16.60    5.24
  -5   8   6    5.91    3.63
   5   8  -6    3.98    1.65
   5   8   6    6.78    3.49
  -5  -8  -6    4.12    1.38
   5  -8  -6    8.47    4.63
   5  -8   6   21.33    6.88
   5   8   6    4.63    1.62
  -5  -8   6    3.95    2.46
   5   8  -7    9.73    1.89
  -5   8  -7   15.71    4.12
  -5   8   7   18.52    4.98
   5   8  -7   13.61    2.80
   5   8   7    5.98    2.77
  -5  -8  -7    5.25    1.27
   5  -8  -7   14.43    4.61
   5  -8   7   13.49    5.11
  -5  -8   7   12.70    3.18
   5   8  -8   32.18    8.64
  -5   8  -8   47.31    9.65
  -5   8   8   57.72    9.85
   5   8  -8   42.59    6.72
   5   8   8   42.62    7.66
  -5  -8  -8   44.12    6.82
   5  -8  -8   57.47   10.77
   5   8   8   32.11    8.40
   5  -8   8   50.36    8.32
  -5   8  -9  139.48    7.62
   5   8  -9   99.24   14.27
  -5   8   9  122.76   18.38
   5   8  -9  104.01   14.74
   5   8   9  139.56    9.39
   5   8  -9  111.85   18.56
  -5  -8  -9  102.33   14.65
   5  -8  -9  138.29    8.66
   5   8   9  121.32   16.93
   5  -8   9  134.49    9.36
  -5   8 -10   35.76    8.00
  -5   8  10   31.18    7.34
   5   8  10   25.23    5.58
   5   8 -10   32.81    7.88
  -5  -8 -10   19.50    5.15
   5  -8 -10   36.98    7.83
   5  -8  10   30.63    6.85
  -5   8 -11  116.03    8.93
  -5   8  11   75.91   10.44
   5   8  11  128.01   18.35
   5   8 -11   97.61   12.94
  -5  -8 -11   81.43   21.17
   5  -8 -11  113.49    7.88
   5  -8  11   84.95    7.00
  -5   8 -12   10.92    2.87
  -5   8  12   12.83    4.26
   5   8  12    5.99    2.78
   5   8 -12   13.15    3.70
  -5  -8 -12    6.35    1.41
   5  -8 -12   19.54    5.65
   5  -8  12   14.39    6.07
  -5   8  13  158.16   19.16
   5   8  13  179.20   22.39
   5   8 -13  167.00   18.32
   5  -8 -13  189.32   15.52
   5  -8  13  152.61   12.72
  -5   8  14    4.01    1.79
   5   8  14   -1.32    2.37
   5   8 -14    6.41    1.84
   5  -8 -14    6.32    3.73
   5  -8  14   13.98    5.40
  -5   8  15  135.91   20.35
   5   8  15  161.02   29.48
   5   8 -15  144.29   24.38
   5  -8 -15  171.81   29.94
   5  -8  15  139.01   17.34
  -5   8  16    8.31    2.50
   5   8  16   10.46    3.80
   5   8 -16   11.27    3.59
   5  -8 -16    9.76    3.27
   5  -8  16   18.96    6.04
  -5   8  17   55.87   10.19
   5   8  17   90.81   19.95
   5  -8 -17   52.11   10.80
   5  -8  17   57.76    9.95
   5   8  18   16.50    5.04
   5  -8 -18    8.90    3.55
   5  -8  18    9.95    5.30
  -5  -8  18    7.41    4.20
  -5   9   0   70.22   12.36
   5   9   0   44.13    6.04
  -5  -9   0   35.29    5.19
   5  -9   0   43.12    6.12
  -5  -9   0   62.51    8.21
  -5   9  -1    8.20    2.72
  -5   9   1    4.94    2.74
   5   9  -1    5.90    3.17
   5   9   1    2.34    1.94
  -5  -9  -1    2.80    1.04
   5  -9  -1    1.69    2.93
   5  -9   1    6.10    3.41
  -5   9  -2  223.60   12.28
  -5   9   2  183.74   14.78
   5   9   2  229.11   12.67
   5   9  -2  194.19   33.80
  -5  -9  -2  161.68   12.44
   5  -9   2  188.69   15.33
  -5  -9  -2  187.19   14.46
  -5  -9   2  224.14   14.10
  -5   9  -3    4.72    2.23
  -5   9   3   -0.53    2.27
   5   9  -3    4.72    2.00
   5   9   3    5.58    4.53
  -5  -9  -3    0.05    0.60
  -5  -9  -3    3.62    1.44
   5  -9   3    6.84    3.37
  -5  -9   3    5.01    3.04
  -5   9  -4  349.16   18.64
  -5   9   4  294.19   16.03
   5   9  -4  306.50   15.99
   5   9   4  345.53   18.44
   5  -9  -4  345.47   18.25
  -5  -9  -4  289.11   14.66
   5  -9   4  288.32   18.09
  -5  -9   4  351.95   18.43
   5   9   4  280.68   14.69
  -5   9  -5   13.22    3.49
  -5   9   5   -3.46    2.45
   5   9  -5    3.76    1.96
   5   9   5   11.97    4.22
  -5  -9  -5    2.19    0.74
   5  -9  -5   16.27    4.78
   5  -9   5    4.81    3.47
   5   9   5    6.44    1.83
  -5  -9   5    9.02    3.44
   5   9  -6  223.52   12.30
  -5   9  -6  304.84   15.00
  -5   9   6  276.76   19.58
   5   9  -6  272.73   13.03
   5   9   6  303.17   15.25
  -5  -9  -6  256.00   11.98
   5  -9  -6  305.90   15.36
   5  -9   6  286.37   16.70
   5   9   6  273.00   13.16
  -5  -9   6  312.36   20.46
   5   9  -7  196.40   11.71
  -5   9  -7  201.93   10.81
  -5   9   7  252.36   14.16
   5   9  -7  240.42   12.33
   5   9   7  229.97   14.88
  -5  -9  -7  224.53   11.39
   5  -9  -7  203.99   16.78
   5  -9   7  241.79   13.60
   5   9   7  183.23    9.87
  -5  -9   7  209.97   11.74
   5   9  -8   37.09    7.64
  -5   9  -8  107.62   11.79
  -5   9   8   74.97   10.96
   5   9  -8   62.79    6.38
   5   9   8   99.46    9.84
  -5  -9  -8   63.70    5.38
   5  -9  -8   94.06   14.89
   5  -9   8   68.92    7.68
   5   9   8   64.86    6.48
  -5  -9   8  103.68    9.30
  -5   9  -9   33.50    6.58
  -5   9   9   31.15    7.34
   5   9  -9   21.52    4.66
   5   9   9   32.36    7.64
  -5  -9  -9   20.79    4.57
   5  -9  -9   31.92    7.88
   5  -9   9   20.23    5.18
  -5  -9   9   30.49    6.35
  -5   9 -10    2.37    1.52
  -5   9  10    4.38    1.79
   5   9  10    2.12    2.21
  -5  -9 -10    0.97    0.73
   5  -9 -10    3.45    2.51
   5  -9  10   11.87    4.60
  -5  -9  10    8.34    4.71
  -5   9 -11   10.95    3.46
  -5   9  11   16.84    4.82
   5   9  11    4.24    2.91
  -5  -9 -11   13.42    4.52
   5  -9 -11   11.81    4.15
   5  -9  11   23.42    6.12
  -5  -9  11   14.83    3.61
  -5   9 -12    0.97    0.55
  -5   9  12    1.94    1.46
   5   9  12   10.99    3.23
   5  -9 -12    1.61    2.66
   5  -9  12    5.26    3.37
  -5  -9  12    1.36    2.35
  -5   9  13   11.08    4.20
   5   9  13    4.51    2.55
   5  -9 -13   13.42    5.12
   5  -9  13   13.92    5.92
  -5  -9  13    9.56    4.59
  -5   9  14    9.14    3.90
   5   9  14   -2.95    2.35
   5  -9 -14    1.88    2.76
   5  -9  14   10.72    5.09
  -5  -9  14    5.77    3.49
  -5   9  15    1.37    1.08
   5   9  15    1.90    2.40
   5  -9 -15    3.74    3.31
   5  -9  15   12.62    5.94
  -5  -9  15   16.46    5.08
  -5   9  16    4.12    2.37
   5   9  16    0.42    2.50
   5  -9 -16    2.43    2.55
   5  -9  16    7.49    4.49
  -5  -9  16    2.60    4.01
  -5   9  17    2.50    1.37
   5   9  17   10.31    4.65
   5  -9 -17    6.53    2.27
   5  -9  17    8.96    3.87
  -5  -9  17   10.33    5.35
  -5  10   0  676.45   31.97
   5  10   0  674.60   31.83
  -5 -10   0  653.67   30.41
  -5  10  -1   38.95    6.59
  -5  10   1   39.32    7.00
   5  10  -1   32.70    7.50
   5  10   1   47.99    8.25
  -5 -10  -1   18.67    4.01
   5 -10   1   27.14    5.53
  -5 -10  -1   43.54    5.53
  -5 -10   1   35.96    4.68
  -5  10  -2  323.60   15.92
  -5  10   2  321.90   16.21
   5  10  -2  278.63   13.72
   5  10   2  303.12   15.17
  -5 -10  -2  233.88   11.80
   5 -10  -2  305.42   15.23
   5 -10   2  296.65   14.97
  -5 -10  -2  296.11   14.09
  -5 -10   2  335.36   16.16
  -5  10  -3   44.45    8.55
   5  10  -3   25.73    5.12
   5  10   3   27.93    5.99
   5 -10  -3   35.59    5.10
  -5 -10  -3   30.45    5.89
   5 -10   3   31.52    7.28
  -5 -10   3   29.45    5.58
  -5  10  -4  174.19   13.04
  -5  10   4  190.20   12.44
   5  10  -4  188.24   11.37
   5  10   4  187.27   12.07
   5 -10  -4  190.14   10.46
  -5 -10  -4  174.41    8.46
   5 -10   4  163.75   10.04
  -5 -10   4  186.01    9.77
   5  10   4  121.74   13.59
  -5  10  -5   32.52    9.82
  -5  10   5   33.54   10.16
   5  10  -5   26.30    6.34
   5  10   5   45.52    8.35
  -5 -10  -5   36.73    5.45
   5 -10  -5   48.73    8.03
   5 -10   5   26.45    7.01
  -5 -10   5   47.95    7.61
   5  10   5   16.51    4.43
  -5  10  -6   62.04    9.08
  -5  10   6   72.38   13.19
   5  10  -6   51.99    9.33
   5  10   6   89.38   15.56
  -5 -10  -6   39.85    7.53
   5 -10  -6   86.10   14.45
   5 -10   6   52.18    8.64
   5  10   6   29.29    6.83
  -5 -10   6   58.79    9.04
  -5  10  -7   24.68    6.29
  -5  10   7   18.53    4.72
   5  10  -7   18.71    4.41
   5  10   7    9.34    3.62
  -5 -10  -7   10.98    2.97
   5 -10  -7   17.97    4.83
   5 -10   7   19.95    6.43
  -5 -10   7   13.37    5.07
  -5  10  -8   72.98   11.07
  -5  10   8   75.99   13.89
   5  10  -8   64.24    9.05
   5  10   8  101.08   13.35
  -5 -10  -8   65.89    7.98
   5 -10  -8   85.37    7.09
   5 -10   8   84.83    7.55
  -5 -10   8   68.31    8.85
  -5  10  -9   12.64    4.31
  -5  10   9   15.68    4.81
   5  10  -9   13.43    4.01
   5  10   9    8.63    4.53
  -5 -10  -9    7.64    2.26
   5 -10  -9   16.70    4.49
   5 -10   9   19.01    5.09
  -5 -10   9   19.53    4.61
  -5  10 -10   83.51    6.52
  -5  10  10   67.98   10.65
   5  10  10   92.23   12.08
   5 -10 -10   64.08   14.11
   5 -10  10   66.90    8.92
  -5 -10  10   83.30    6.86
  -5  10 -11   27.08    5.50
  -5  10  11   21.68    5.72
   5  10  11   26.01    6.31
   5 -10 -11   25.91    5.46
   5 -10  11   23.83    5.95
  -5 -10  11   45.27    8.95
  -5  10  12   40.50    9.22
   5  10  12   36.10    6.90
   5 -10 -12   48.54    6.97
   5 -10  12   49.70    6.48
  -5 -10  12   39.43    7.32
  -5  10  13   10.29    3.68
   5  10  13   37.06    5.67
   5 -10 -13   12.23    4.37
   5 -10  13   30.35    8.52
  -5 -10  13   49.76    6.16
  -5  10  14   24.73    6.14
   5  10  14    6.63    4.17
   5 -10 -14   13.85    4.88
   5 -10  14    6.65    3.12
  -5 -10  14    9.94    4.09
  -5  10  15   25.32    7.64
   5  10  15   25.09    7.45
   5 -10 -15   17.09    4.78
   5 -10  15   38.88    7.18
  -5 -10  15   32.01    6.02
  -5  10  16    6.20    2.67
   5  10  16    3.29    2.76
   5 -10 -16    0.26    2.28
   5 -10  16    4.54    3.29
  -5 -10  16   11.37    5.11
  -5  10  17    8.52    3.35
   5  10  17    4.49    3.06
   5 -10 -17    0.45    2.13
   5 -10  17    3.62    4.28
  -5 -10  17   26.57    8.31
  -5  11   0   26.71    6.99
   5  11   0   12.86    3.92
   5 -11   0   17.80    5.29
  -5 -11   0   27.65    6.63
  -5  11  -1    1.67    2.11
  -5  11   1    1.52    1.57
   5  11  -1    6.96    2.68
   5  11   1    6.75    3.74
   5 -11  -1    6.74    3.46
  -5 -11  -1    3.15    1.49
  -5 -11   1    4.21    3.14
  -5  11  -2    5.33    2.94
  -5  11   2    3.33    2.39
   5  11  -2    4.97    2.80
   5  11   2   -1.04    2.20
   5 -11  -2    5.00    3.34
   5 -11   2    3.54    3.88
  -5 -11  -2   -2.13    1.54
  -5 -11   2   -0.04    1.33
  -5  11  -3   73.71   11.08
  -5  11   3   60.15    9.52
   5  11  -3   63.40   12.64
   5  11   3   84.14   13.01
   5 -11  -3   59.59   10.33
  -5 -11  -3   64.92   11.63
   5 -11   3   76.05   14.70
  -5 -11   3   54.77    8.26
  -5  11  -4    6.59    2.12
  -5  11   4    5.52    1.89
   5  11  -4    6.29    3.36
   5  11   4    8.45    3.92
   5 -11  -4   12.03    4.87
  -5 -11  -4    8.73    2.59
   5 -11   4   12.95    4.80
  -5 -11   4    8.36    3.30
   5  11   4    3.42    1.55
  -5  11  -5   78.31   12.70
  -5  11   5   75.74   10.46
   5  11  -5   86.32    9.24
   5  11   5   77.84    8.10
  -5 -11  -5   81.17    6.83
   5 -11  -5   74.97    7.81
   5 -11   5  103.23   13.15
  -5 -11   5   82.50    8.30
  -5  11  -6   62.51   10.85
  -5  11   6   60.65   11.02
   5  11  -6   67.21    9.25
  -5 -11  -6   67.80    8.20
   5 -11  -6   66.58    9.14
   5 -11   6   69.40   10.16
  -5 -11   6   59.15    8.18
  -5  11  -7  149.26   11.56
  -5  11   7  188.41   14.25
   5  11  -7  177.53   11.77
   5  11   7  156.44   16.19
  -5 -11  -7  172.64    9.23
   5 -11  -7  174.14   11.54
   5 -11   7  185.80   15.72
  -5 -11   7  142.06    9.19
  -5  11  -8   45.00    8.53
  -5  11   8   67.62   12.39
   5  11  -8   38.60    7.71
   5  11   8   52.50    9.37
  -5 -11  -8   37.51    7.76
   5 -11  -8   52.93    6.63
   5 -11   8   61.45    7.23
  -5 -11   8   58.89    6.65
  -5  11  -9  299.34   59.49
  -5  11   9  288.85   28.51
   5  11   9  279.03   17.93
   5 -11  -9  279.00   16.13
   5 -11   9  268.79   16.55
  -5 -11   9  315.55   62.89
  -5  11 -10    7.92    2.12
  -5  11  10   14.72    3.65
   5  11  10    6.21    3.24
   5 -11 -10   10.74    4.44
   5 -11  10   12.35    5.64
  -5 -11  10   11.03    4.78
  -5  11  11   31.82    6.68
   5  11  11   16.82    4.71
   5 -11 -11   19.67    4.11
   5 -11  11   17.67    5.31
  -5 -11  11   26.75    5.36
  -5  11  12    4.65    1.63
   5  11  12    6.17    2.90
   5 -11 -12    2.63    2.86
   5 -11  12    5.22    4.61
  -5 -11  12   -0.07    3.12
  -5  11  13   14.72    5.02
   5  11  13   20.29    5.34
   5 -11 -13   11.03    4.09
   5 -11  13   10.84    4.96
  -5 -11  13   20.46    5.91
  -5  11  14    4.60    2.50
   5  11  14    1.44    2.63
   5 -11 -14    5.95    3.40
   5 -11  14   12.23    5.12
  -5 -11  14    7.60    3.93
  -5  11  15    4.20    1.97
   5  11  15    2.56    2.75
   5 -11 -15    5.51    2.71
   5 -11  15    6.18    3.63
  -5 -11  15   -2.41    2.88
  -5  11  16    3.98    2.78
   5  11  16    4.73    2.71
   5 -11 -16   -2.29    2.11
   5 -11  16    5.50    3.43
  -5 -11  16    2.26    2.82
  -5  12   0  622.81   34.69
   5  12   0  662.29   36.77
   5 -12   0  630.58   35.30
  -5 -12   0  639.58   35.05
  -5  12  -1   12.03    4.38
  -5  12   1    7.37    3.01
   5  12  -1    7.34    3.62
   5  12   1    3.78    1.87
   5 -12  -1    9.87    4.19
   5 -12   1   21.21    6.40
  -5 -12  -1    9.70    3.92
  -5 -12   1    4.54    2.60
  -5  12  -2  305.21   17.91
  -5  12   2  317.04   18.68
   5  12  -2  311.92   18.10
   5  12   2  272.17   15.98
   5 -12  -2  281.48   16.59
  -5 -12  -2  267.77   15.03
  -5 -12   2  277.43   15.88
  -5  12  -3   63.73   10.97
  -5  12   3   53.99   11.15
   5  12  -3   58.00   10.68
   5  12   3   68.78   11.47
   5 -12  -3   66.85   10.31
  -5 -12  -3   70.35    8.92
   5 -12   3   54.88    7.59
  -5 -12   3   62.27    8.13
  -5  12  -4  254.78   14.97
  -5  12   4  260.66   19.51
   5  12  -4  231.20   13.88
   5  12   4  251.84   14.59
   5 -12  -4  275.31   24.56
  -5 -12  -4  229.03   12.25
   5 -12   4  253.42   21.85
  -5 -12   4  295.75   18.04
  -5  12  -5   87.51    8.59
  -5  12   5   94.53   14.35
   5  12  -5  105.82    7.82
   5  12   5   91.90   10.41
   5 -12  -5   80.94   23.94
  -5 -12  -5   87.05    5.24
   5 -12   5   98.40    8.18
  -5 -12   5   98.74   10.15
  -5  12  -6   34.99    7.62
  -5  12   6   40.17    8.82
   5  12  -6   26.06    5.48
   5  12   6   28.50    6.37
  -5 -12  -6   20.83    5.90
   5 -12  -6   46.19    7.78
   5 -12   6   51.09    6.81
  -5 -12   6   40.57    7.76
  -5  12  -7   12.66    3.41
  -5  12   7    3.57    2.64
   5  12  -7    3.49    1.21
   5  12   7   15.04    5.10
  -5 -12  -7    2.18    1.02
   5 -12  -7   17.26    5.35
   5 -12   7   10.51    5.88
  -5 -12   7   11.50    3.71
  -5  12  -8    7.79    2.60
  -5  12   8    4.82    3.10
   5  12   8    7.36    3.43
   5 -12  -8    8.05    2.70
   5 -12   8    5.44    2.93
  -5 -12   8    8.41    3.41
  -5  12  -9   26.36    5.75
  -5  12   9   19.63    5.56
   5  12   9   22.92    6.19
   5 -12  -9   25.58    6.01
   5 -12   9   23.27    5.71
  -5 -12   9   35.75    8.16
  -5  12 -10    6.83    1.66
  -5  12  10    6.18    2.24
   5  12  10    3.56    2.72
   5 -12 -10    7.35    2.96
   5 -12  10   23.11    5.95
  -5 -12  10    6.65    3.28
  -5  12  11    5.17    2.35
   5  12  11    9.82    3.99
   5 -12  11   12.47    5.03
  -5 -12  11    1.38    2.49
  -5  12  12    8.86    3.45
   5  12  12    5.91    3.16
   5 -12 -12   -1.17    2.62
   5 -12  12   19.00    7.21
  -5 -12  12    3.19    3.37
  -5  12  13    3.61    2.54
   5  12  13    6.09    2.92
   5 -12 -13   12.91    4.74
   5 -12  13   16.05    6.33
  -5 -12  13   12.89    5.12
  -5  12  14   -0.48    2.41
   5  12  14    5.00    3.42
   5 -12 -14    3.55    3.53
   5 -12  14   14.33    5.62
  -5 -12  14    0.23    2.73
  -5  12  15    5.71    2.59
   5  12  15    4.31    2.94
   5 -12 -15    2.52    2.30
   5 -12  15   -0.66    3.03
  -5 -12  15    9.03    4.77
  -5  13   0    8.83    3.03
   5  13   0   21.15    5.15
   5 -13   0   15.07    4.26
  -5 -13   0   28.36    5.52
  -5  13  -1   62.21    9.61
  -5  13   1   64.22    9.12
   5  13  -1   50.53    7.01
   5  13   1   43.16    7.83
   5 -13  -1   65.00    7.70
   5 -13   1   66.95    8.32
  -5 -13  -1   60.51    6.94
  -5 -13   1   70.65    9.16
  -5  13  -2  193.62   17.87
  -5  13   2  175.75   12.12
   5  13  -2  149.43   10.25
   5  13   2  170.97   13.40
   5 -13  -2  180.61   12.75
  -5 -13  -2  162.85   10.47
   5 -13   2  180.01   12.26
  -5 -13   2  198.80   12.78
  -5  13  -3   59.85    7.95
  -5  13   3   52.32    6.46
   5  13  -3   40.16    8.13
   5  13   3   61.12   10.91
   5 -13  -3   49.64    6.97
  -5 -13  -3   59.36    6.04
  -5 -13   3   49.70    5.69
  -5  13  -4    3.83    2.83
  -5  13   4   11.32    4.42
   5  13  -4    7.33    2.94
   5  13   4    5.60    2.40
   5 -13  -4    4.95    3.48
  -5 -13  -4    8.38    2.70
   5 -13   4    4.61    3.84
  -5 -13   4   12.36    4.60
  -5  13  -5   46.27    8.72
   5  13  -5   37.51    5.84
   5  13   5   43.03    7.25
   5 -13  -5   34.57    5.18
  -5 -13  -5   45.15    6.05
   5 -13   5   42.20   10.51
  -5 -13   5   37.42    6.49
  -5  13  -6   21.16    5.66
  -5  13   6   42.64    7.71
   5  13  -6   18.61    5.19
   5  13   6   13.91    4.64
  -5 -13  -6    9.14    3.19
   5 -13  -6   15.30    4.86
   5 -13   6   28.32    7.79
  -5 -13   6   24.05    6.10
  -5  13  -7  171.30   13.25
  -5  13   7  195.90   19.46
   5  13  -7  148.10   11.33
   5  13   7  175.28   20.45
   5 -13  -7  164.22   14.44
   5 -13   7  149.77   12.67
  -5 -13   7  153.46   12.40
  -5  13  -8    6.90    1.98
  -5  13   8   10.11    4.44
   5  13   8    5.88    3.16
   5 -13  -8   10.86    5.25
   5 -13   8   13.77    4.82
  -5 -13   8    8.33    3.03
  -5  13  -9   81.76    6.19
  -5  13   9   77.83    7.22
   5  13   9   62.81    6.67
   5 -13  -9   76.39    7.01
   5 -13   9   67.04   11.35
  -5 -13   9   86.26    7.64
  -5  13  10    5.81    2.13
   5  13  10   10.32    4.64
   5 -13 -10   12.04    4.45
   5 -13  10   17.94    5.80
  -5 -13  10   11.24    4.61
  -5  13  11   23.35    6.25
   5  13  11   27.97    7.52
   5 -13  11   27.27    7.26
  -5 -13  11   24.24    6.45
  -5  13  12    0.38    2.59
   5  13  12    4.23    2.97
   5 -13 -12    5.73    2.64
   5 -13  12   -0.06    3.28
  -5 -13  12    5.77    2.12
  -5  13  13   12.32    4.66
   5  13  13   24.27    6.46
   5 -13 -13    9.75    4.08
   5 -13  13   22.30    5.84
  -5 -13  13   35.29    7.53
  -5  13  14    8.70    3.25
   5  13  14    5.84    4.03
   5 -13 -14    4.35    2.64
   5 -13  14    9.33    4.11
  -5 -13  14    2.46    3.25
  -5  14   0  298.07   59.87
   5  14   0  300.76   61.37
   5 -14   0  293.95   58.86
  -5 -14   0  277.88   16.70
  -5  14  -1   32.80    8.32
  -5  14   1   44.62    7.93
   5  14   1   32.20    5.53
   5  14  -1   33.32    5.25
   5 -14  -1   41.06    7.93
   5 -14   1   53.90    9.06
  -5 -14  -1   40.65    6.27
  -5 -14   1   45.47    6.35
  -5  14  -2   74.40   12.97
  -5  14   2   94.04    7.48
   5  14  -2   82.68    9.05
   5  14   2   70.59    6.15
   5 -14  -2   90.35    8.27
  -5 -14  -2   88.52    6.07
   5 -14   2   77.58    7.97
  -5 -14   2   72.99    8.53
  -5  14  -3   48.27    9.37
  -5  14   3   50.78   10.28
   5  14  -3   47.40    9.18
   5  14   3   57.80    7.82
   5 -14  -3   53.68   11.58
  -5 -14  -3   48.14    8.22
   5 -14   3   45.99    9.91
  -5 -14   3   62.76    6.04
  -5  14  -4   39.44   10.25
  -5  14   4   65.47    8.64
   5  14  -4   36.77    7.55
   5  14   4   39.40    7.51
   5 -14  -4   43.11    8.63
  -5 -14  -4   67.47    5.77
   5 -14   4   44.54    8.07
  -5 -14   4   54.33    9.29
  -5  14  -5  115.21   11.02
  -5  14   5  110.10   11.92
   5  14  -5   98.56   10.77
   5  14   5   87.38   10.12
   5 -14  -5   94.67    9.65
  -5 -14   5   99.36    9.79
  -5  14  -6    9.24    3.70
  -5  14   6   16.45    5.47
   5  14  -6   14.32    4.76
   5  14   6    4.80    1.96
   5 -14  -6    8.64    3.84
   5 -14   6    6.06    2.79
  -5 -14   6    5.59    3.34
  -5  14  -7   42.78    5.85
  -5  14   7   40.10    6.00
   5  14   7   37.73    5.15
   5 -14  -7   66.21    7.42
   5 -14   7   57.62    9.55
  -5 -14   7   65.64    6.15
  -5  14  -8    8.61    2.91
  -5  14   8   10.91    4.26
   5  14   8   13.64    5.08
   5 -14  -8    7.33    3.23
   5 -14   8    4.32    2.40
  -5 -14   8   10.58    4.71
  -5  14   9    7.31    3.45
   5  14   9   12.91    5.09
   5 -14  -9    9.05    4.41
   5 -14   9    4.06    3.64
  -5 -14   9   14.30    5.07
  -5  14  10    0.35    2.45
   5  14  10   10.03    4.86
   5 -14 -10   11.01    4.88
   5 -14  10    5.02    3.74
  -5 -14  10   25.05    6.13
  -5  14  11    4.98    2.03
   5  14  11    0.43    1.39
   5 -14 -11   10.87    3.77
   5 -14  11    4.45    3.46
  -5 -14  11    4.06    3.18
  -5  14  12   11.98    3.93
   5  14  12   17.04    5.87
   5 -14 -12    9.04    3.16
   5 -14  12   10.32    3.88
  -5 -14  12   16.01    5.22
  -5  14  13   -0.97    2.87
   5  14  13    5.46    2.33
   5 -14 -13    5.65    2.83
   5 -14  13    7.50    5.03
  -5 -14  13    6.12    4.58
  -5  15   0    2.33    2.50
   5  15   0    0.52    2.21
   5 -15   0    1.06    3.55
  -5 -15   0    2.73    1.75
  -5  15  -1   36.62    7.23
  -5  15   1   54.62    9.58
   5  15  -1   51.14    7.52
   5  15   1   38.96    7.82
   5 -15  -1   57.85    8.39
   5 -15   1   53.28    6.50
  -5 -15  -1   55.39    5.26
  -5 -15   1   52.39    7.93
  -5  15  -2   23.46    5.43
  -5  15   2   24.00    5.90
   5  15  -2   13.90    4.52
   5  15   2   24.56    5.42
   5 -15  -2   23.70    5.39
  -5 -15  -2   20.03    4.05
   5 -15   2   24.50    6.34
  -5 -15   2   21.75    4.37
  -5  15  -3   12.78    4.27
  -5  15   3    8.88    4.43
   5  15  -3   23.45    4.58
   5  15   3   15.83    4.92
   5 -15  -3   14.81    4.80
  -5 -15  -3   18.33    3.74
   5 -15   3   24.64    5.33
  -5 -15   3   14.97    4.34
  -5  15  -4   44.24    7.98
  -5  15   4   41.15    5.98
   5  15  -4   36.41    7.05
   5  15   4   54.61    6.78
   5 -15  -4   39.41    8.38
   5 -15   4   29.77    8.20
  -5 -15   4   39.23    4.36
  -5  15  -5   22.82    5.80
  -5  15   5   15.19    5.01
   5  15  -5   18.59    5.41
   5  15   5   12.04    3.99
   5 -15  -5   15.61    5.08
   5 -15   5   23.83    7.41
  -5 -15   5   31.42    8.27
  -5  15  -6   14.65    4.22
  -5  15   6   27.29    6.79
   5  15   6   21.49    5.45
   5 -15  -6   34.54    8.20
  -5 -15   6   21.18    5.14
  -5  15  -7   16.81    4.84
  -5  15   7   25.78    6.70
   5  15   7   21.83    5.74
   5 -15  -7   16.47    5.49
   5 -15   7   20.69    5.89
  -5 -15   7   21.75    5.47
  -5  15  -8   12.27    3.26
  -5  15   8    8.32    3.06
   5  15   8    7.16    2.17
   5 -15  -8    5.25    2.80
   5 -15   8    3.31    2.57
  -5 -15   8   10.85    4.39
  -5  15   9    6.21    2.94
   5  15   9    6.60    3.65
   5 -15  -9   -1.58    2.70
   5 -15   9    8.63    3.69
  -5 -15   9    1.75    2.78
  -5  15  10    9.96    3.27
   5  15  10    7.77    2.46
   5 -15 -10    2.00    1.74
   5 -15  10    6.25    5.22
  -5 -15  10   13.85    5.27
  -5  15  11    8.73    3.29
   5  15  11    8.79    4.08
   5 -15 -11   14.91    5.86
   5 -15  11   23.56    6.76
  -5 -15  11   13.64    4.54
  -5  15  12    5.56    3.08
   5  15  12   20.52    6.02
   5 -15 -12    4.61    2.74
   5 -15  12    9.14    3.60
  -5 -15  12   25.44    6.81
  -5  16   0    2.67    2.17
   5  16   0    7.11    3.14
   5 -16   0   13.69    5.58
  -5 -16   0    6.04    2.42
  -5  16  -1    2.92    2.44
  -5  16   1    4.24    2.29
   5  16  -1    6.73    2.73
   5  16   1    6.25    2.97
   5 -16  -1    4.93    3.48
   5 -16   1    1.11    2.60
  -5 -16  -1    5.35    2.18
  -5 -16   1   -0.45    1.50
  -5  16  -2    8.23    3.51
  -5  16   2   15.97    5.38
   5  16  -2    7.84    2.62
   5  16   2    9.26    3.95
   5 -16  -2    6.07    4.06
  -5 -16  -2    4.64    1.59
   5 -16   2   10.52    4.07
  -5 -16   2    5.76    2.23
  -5  16  -3   15.45    4.48
  -5  16   3   16.92    5.83
   5  16  -3   16.96    4.54
   5  16   3   19.11    5.09
   5 -16  -3   11.15    4.14
   5 -16   3   12.95    5.32
  -5 -16   3   20.97    4.87
  -5  16  -4   11.66    3.38
  -5  16   4   12.26    3.73
   5  16  -4   17.11    5.05
   5  16   4   16.30    5.36
   5 -16  -4   13.03    3.73
   5 -16   4   22.75    7.38
  -5 -16   4   18.82    4.93
  -5  16  -5   27.15    6.97
  -5  16   5    6.57    4.14
   5  16  -5   21.23    5.10
   5  16   5   25.53    6.80
   5 -16   5   16.88    5.39
  -5 -16   5   19.25    5.27
  -5  16  -6   22.49    5.99
  -5  16   6   23.14    7.18
   5  16   6   22.04    6.80
   5 -16  -6   18.07    5.92
   5 -16   6   28.52    5.30
  -5 -16   6   15.47    5.58
  -5  16  -7   23.34    6.30
   5  16   7   23.21    6.78
   5 -16  -7   23.50    6.83
  -5 -16   7   28.90    5.17
  -5  16   8   26.18    5.72
   5  16   8   18.47    6.12
   5 -16  -8    7.31    2.66
   5 -16   8   25.88    6.65
  -5 -16   8   18.04    5.50
  -5  16   9    3.79    2.50
   5  16   9    9.29    3.55
   5 -16  -9    8.23    3.23
   5 -16   9   13.99    5.20
  -5 -16   9   16.05    5.46
  -5  16  10    6.63    3.73
   5  16  10   15.14    5.36
   5 -16 -10    8.54    3.35
   5 -16  10    4.66    4.01
  -5 -16  10    8.77    4.36
  -5  17   0    7.49    3.60
   5  17   0    7.16    2.47
   5 -17   0    8.31    3.66
  -5 -17   0   10.58    3.41
  -5  17  -1   82.82   11.58
  -5  17   1   87.16   13.23
   5  17  -1   84.50   11.25
   5  17   1   95.58   13.34
   5 -17  -1   80.93   10.52
   5 -17   1   85.05   12.89
  -5 -17   1   71.15    7.97
  -5  17   2   11.02    3.87
   5  17  -2   13.87    4.39
   5  17   2   11.66    4.66
   5 -17  -2    6.57    3.04
  -5 -17   2   13.21    4.08
  -5  17  -3   79.94   12.68
  -5  17   3   83.87   10.72
   5  17  -3   97.53   12.83
   5  17   3   97.37   14.56
   5 -17  -3   77.47   14.88
   5 -17   3   89.07   12.07
  -5 -17   3   73.99   13.31
  -5  17  -4   17.89    5.04
  -5  17   4   35.31    6.87
   5  17  -4   32.80    5.86
   5  17   4   15.73    5.16
   5 -17  -4   10.79    4.60
   5 -17   4   12.90    4.59
  -5 -17   4   18.84    5.39
  -5  17  -5   34.93    7.03
  -5  17   5   43.86    8.25
   5  17   5   37.28    7.46
   5 -17  -5   41.82    7.49
   5 -17   5   25.99    5.69
  -5 -17   5   28.52    6.70
  -5  17  -6    3.83    2.26
  -5  17   6   15.23    4.59
   5  17   6    8.74    4.79
   5 -17  -6    6.73    3.18
   5 -17   6   13.53    5.43
  -5 -17   6    6.56    3.21
  -5  17   7    5.96    3.19
   5  17   7    7.70    4.02
   5 -17  -7    9.84    4.46
   5 -17   7    8.37    4.10
  -5 -17   7    3.96    2.64
  -5  17   8    4.56    2.43
   5  17   8    4.81    2.75
   5 -17  -8   -0.87    2.62
   5 -17   8   11.21    6.00
  -5 -17   8    0.95    2.77
  -5  18   0    1.27    1.57
   5  18   0    7.45    3.25
   5 -18   0    1.68    1.63
  -5  18  -1    3.56    1.96
  -5  18   1    1.23    2.30
   5  18  -1    8.32    3.47
   5  18   1    8.91    3.52
   5 -18  -1    1.08    3.02
   5 -18   1    6.52    5.77
  -5  18  -2    5.82    2.05
  -5  18   2   10.70    4.20
   5  18  -2    4.51    2.18
   5  18   2    3.95    3.44
   5 -18  -2    3.31    2.93
   5 -18   2    9.73    4.11
  -5 -18   2    8.73    3.72
  -5  18  -3    3.05    2.74
  -5  18   3    5.92    6.49
   5  18  -3    2.48    1.79
   5  18   3    1.48    3.31
   5 -18  -3    3.99    3.10
   5 -18   3    7.54    3.83
  -5 -18   3    6.60    2.86
  -5  18  -4    6.68    3.03
  -5  18   4    1.09    2.79
   5  18   4    5.54    4.02
   5 -18  -4    8.08    5.36
   5 -18   4    5.96    3.33
  -5 -18   4   11.19    4.35
  -5  18  -5    6.67    2.29
  -5  18   5    9.32    4.50
   5  18   5   12.62    5.08
   5 -18  -5    5.55    3.95
   5 -18   5    6.29    3.40
  -5 -18   5    5.48    2.68
  -6   0   0 1676.71   23.77
   6   0   0 1690.08   23.38
  -6   0   0 1754.51   24.02
  -6   0  -1 1087.62   16.23
  -6   0   1 1119.15   16.64
   6   0  -1 1126.63   16.21
   6   0   1 1098.96   15.47
  -6   0   1 1086.64   15.47
  -6   0  -1 1085.91   15.09
  -6   0   2  127.90    7.77
   6   0  -2  118.73    6.94
   6   0  -2  129.21    7.65
  -6   0   2  121.08    6.99
   6   0   2  127.04    7.23
  -6   0  -2  131.75    8.25
  -6   0   3   64.99    8.32
   6   0  -3   67.09    8.35
   6   0  -3   68.08    7.81
  -6   0   3   63.25    7.10
   6   0   3   74.21    8.25
  -6   0  -3   70.04    8.35
  -6   0   4  165.15    9.60
   6   0  -4  163.23   10.59
   6   0   4  163.59    9.19
  -6   0  -4  170.62    9.47
  -6   0  -5  216.57   15.84
   6   0  -5  175.62   11.36
   6   0  -5  200.93   11.66
   6   0   5  192.03   10.69
  -6   0  -5  195.44   10.83
  -6   0  -6   19.47    3.99
  -6   0   6   17.96    3.09
   6   0  -6   16.06    2.69
   6   0   6   16.21    3.81
   6   0  -6   19.05    3.39
   6   0   6   20.00    3.65
  -6   0  -7  101.72    8.76
  -6   0   7  104.13    9.10
   6   0  -7   82.15    7.16
   6   0   7   89.42    7.37
   6   0  -7  106.78    8.99
   6   0   7   93.72    7.02
  -6   0  -8    6.69    1.76
  -6   0   8    6.04    1.59
   6   0  -8    6.82    1.97
   6   0   8    2.89    0.61
   6   0  -8    9.58    2.96
   6   0   8   10.35    2.39
  -6   0  -9   41.10    6.88
  -6   0   9   36.51    5.56
   6   0  -9   19.77    6.17
   6   0   9   20.67    6.25
   6   0  -9   35.87    6.42
   6   0   9   30.92    5.21
  -6   0 -10   23.52    6.45
  -6   0  10   18.95    5.19
   6   0 -10   20.18    6.01
   6   0  10   18.66    5.12
  -6   0 -11    4.56    1.68
  -6   0  11    4.30    1.76
   6   0 -11    1.78    1.49
   6   0  11    2.23    2.56
  -6   0 -12   12.99    3.52
  -6   0  12   15.76    4.09
   6   0 -12   15.14    4.49
   6   0  12    3.41    1.92
  -6   0  13    3.64    1.61
   6   0  13    3.34    1.23
   6   0 -13    7.62    3.50
   6   0  13    0.27    1.84
  -6   0  14    1.65    1.42
   6   0  14    4.50    2.12
   6   0 -14    2.35    1.79
   6   0  14    5.17    2.38
  -6   0  15   28.94    6.87
   6   0  15   35.71    6.24
   6   0  15   35.47    5.12
   6   0  16   19.66    4.40
   6   0 -16   11.15    3.99
   6   0  16    7.48    2.90
   6   0  17   16.70    4.57
   6   0 -17   29.13    6.54
   6   0  17   26.56    5.68
   6   0 -18    3.92    2.03
   6   0  18    7.13    3.03
   6   0 -19    6.26    3.31
   6   0  19   -0.60    1.88
   6   0 -20    2.07    1.66
  -6  -1   0   59.25    7.85
  -6   1   0   40.20    4.54
   6   1   0   41.23    5.85
   6  -1   0   38.78    5.45
   6   1   0   50.10    5.84
   6  -1   0   45.41    4.77
  -6  -1   0   46.10    4.64
  -6   1   0   45.34    4.67
  -6  -1  -1   34.64    5.38
  -6  -1   1   27.56    4.54
   6   1   1   24.51    3.72
  -6   1  -1   29.39    4.80
  -6   1   1   23.52    3.30
   6   1  -1   27.21    4.27
   6  -1   1   29.78    4.55
   6  -1  -1   22.04    3.22
   6   1  -1   24.85    3.22
   6   1   1   23.95    3.49
   6  -1  -1   28.66    5.22
  -6  -1   1   21.35    2.61
   6  -1   1   32.82    5.01
  -6   1   1   32.58    3.90
  -6  -1  -1   30.65    4.27
  -6   1  -1   25.16    3.07
  -6  -1  -2  490.54   14.52
  -6   1  -2  525.47   15.35
  -6   1   2  523.53   15.27
   6   1  -2  532.11   15.24
   6  -1  -2  479.08   13.83
   6   1  -2  521.48   14.92
  -6  -1   2  494.63   14.03
   6   1   2  527.85   14.68
  -6   1   2  502.20   14.24
   6  -1   2  538.39   15.14
  -6  -1  -2  538.92   14.93
  -6   1  -2  517.67   14.47
  -6  -1  -3  112.45    7.93
  -6   1  -3  130.60   10.15
  -6  -1   3  122.62    8.90
   6   1  -3  104.51    8.36
   6  -1  -3  108.03    6.60
   6   1  -3  110.12    6.65
  -6  -1   3  109.84    6.43
  -6   1   3  108.54    6.38
   6   1   3  111.74    6.30
   6  -1   3  114.89    6.70
  -6   1  -3  124.42    7.05
  -6  -1  -3  120.58    6.76
  -6  -1  -4  359.54   11.05
  -6   1  -4  275.10   15.49
  -6  -1   4  268.31   15.07
  -6   1   4  314.42    9.73
   6   1  -4  330.49    9.87
   6  -1  -4  250.14   14.08
   6   1  -4  327.79   10.02
   6  -1  -4  287.46   16.35
   6   1   4  279.92   15.28
   6  -1   4  343.20   10.11
  -6   1  -4  279.35   15.36
  -6  -1  -4  329.00    9.24
  -6   1  -5   88.22   10.49
  -6  -1   5   88.28   10.85
  -6   1   5  108.97   10.36
   6   1  -5   89.11    9.82
   6  -1  -5   72.02    9.34
   6   1   5   81.25    9.01
   6  -1  -5   73.56    8.46
   6   1   5   79.89    8.87
   6  -1   5   93.78   10.37
  -6   1  -5   78.70    8.67
  -6  -1  -6  651.44   19.91
  -6   1  -6  615.36   18.80
  -6  -1   6  607.37   18.82
  -6   1   6  640.27   19.47
   6   1  -6  626.04   18.77
   6   1   6  585.53   17.52
   6   1  -6  670.21   20.76
   6  -1  -6  606.55   18.89
   6   1   6  599.72   17.93
   6  -1   6  652.48   19.58
  -6  -1  -7   66.69   10.66
  -6   1  -7   70.67   11.37
  -6  -1   7   69.22   10.29
  -6   1   7   77.13   10.19
   6   1  -7   54.90    7.51
   6  -1   7   52.46    7.51
   6   1   7   59.73    8.05
   6   1  -7   61.49   10.77
   6  -1  -7   61.83    8.19
   6  -1   7   58.40    9.21
   6   1   7   67.67    8.97
  -6  -1  -8  110.35   10.97
  -6   1  -8  109.26   12.50
  -6  -1   8   87.20    8.05
  -6   1   8  114.17   13.89
   6   1  -8   84.98    8.99
   6   1   8   84.56    8.82
   6   1  -8   97.47   14.14
   6  -1  -8   97.70    9.49
   6  -1   8   99.76    9.64
   6   1   8  102.63    9.28
  -6  -1  -9   90.27   16.16
  -6   1  -9  113.97   12.10
  -6  -1   9  120.06   11.53
  -6   1   9   85.48   14.82
   6   1  -9   64.23    8.84
   6   1  -9   87.44   17.09
   6   1   9   90.63   16.21
   6  -1  -9  111.94    9.33
   6  -1   9   86.37   14.79
   6   1   9  110.25    8.81
  -6  -1 -10  253.94   14.96
  -6   1 -10  270.81   14.52
  -6  -1  10  262.81   13.61
  -6   1  10  269.86   14.30
   6   1 -10  231.36   11.85
   6   1 -10  268.77   16.48
   6  -1 -10  255.07   14.41
   6  -1  10  259.79   13.68
   6   1  10  281.36   14.59
  -6  -1 -11   21.11    5.19
  -6   1 -11   32.66    6.31
  -6  -1  11   30.41    5.83
  -6   1  11   22.89    4.83
   6   1 -11    8.81    2.33
   6   1 -11   19.99    4.66
   6  -1 -11   31.42    7.35
   6  -1  11   17.68    3.70
   6   1  11   23.72    4.56
  -6   1 -12   11.12    3.53
  -6  -1  12    7.03    2.93
  -6   1  12    1.49    1.74
   6   1 -12    2.01    1.15
   6   1  12    5.19    2.71
   6   1 -12    8.50    2.87
   6  -1 -12    5.78    2.55
   6  -1  12    2.63    2.45
   6   1  12    8.01    2.83
  -6   1 -13   43.60    8.06
  -6  -1  13   46.98    6.91
  -6   1  13   56.96    9.08
   6   1  13   46.21    7.98
   6   1 -13   66.08   10.35
   6  -1 -13   48.04    8.84
   6  -1  13   63.30    8.24
   6   1  13   39.59    5.28
  -6  -1  14   47.41    5.38
  -6   1  14   49.24    7.53
   6   1  14   55.14    6.88
   6  -1  14   54.46    8.68
   6   1 -14   53.29   10.49
   6  -1  14   58.77    6.15
   6   1  14   51.96    6.97
  -6   1  15    7.00    2.20
   6   1  15   10.04    3.25
   6  -1  15    4.27    1.59
   6   1 -15   17.71    4.64
   6  -1 -15    8.84    2.95
   6  -1  15    9.59    3.64
   6   1  15    9.04    3.03
   6   1  16   31.19    5.41
   6  -1  16   34.55    5.90
   6  -1 -16   37.98    8.81
   6  -1  16   34.04    6.44
   6   1  16   28.81    5.78
   6   1  17   -1.37    1.46
   6  -1  17    4.62    2.11
   6  -1 -17    4.31    2.99
   6  -1  17    5.63    2.57
   6   1  17   -2.05    1.54
   6   1 -18   41.19   11.07
   6  -1 -18   61.66   11.68
   6  -1  18   47.43    7.62
   6   1  18   41.17    6.72
   6   1 -19   -0.29    2.35
   6  -1 -19   10.39    3.41
   6  -1  19   -0.76    2.13
   6   1 -20   14.55    4.24
   6  -1 -20   15.90    4.53
   6  -1  20   10.49    3.84
  -6  -2   0   93.99   11.47
  -6   2   0   71.76    8.24
   6   2   0   68.97    7.63
  -6  -2   0   80.57    8.79
   6  -2   0   86.84    9.73
  -6   2   0   75.48    8.33
  -6  -2  -1  329.62   10.07
   6   2  -1  335.97    9.92
  -6   2  -1  322.59    9.95
  -6   2   1  320.09    9.90
   6   2  -1  297.27   36.32
   6   2   1  258.54   14.14
  -6  -2   1  314.69    9.10
  -6  -2  -1  329.26    9.24
   6  -2   1  320.96    9.57
  -6   2   1  321.05    9.43
  -6   2  -1  321.46    9.36
  -6  -2  -2  110.16    7.71
  -6  -2   2  137.42   10.94
   6   2  -2   83.59   10.18
  -6   2   2  100.24   13.99
   6   2  -2   93.06   10.41
   6   2   2  120.52    6.71
  -6  -2   2  127.63    7.28
  -6   2   2   85.40    9.39
   6  -2   2   85.95    9.57
  -6  -2  -2   94.37   10.21
  -6   2  -2  116.08    6.68
  -6  -2   3  387.53   11.47
   6   2  -3  357.47   10.74
  -6   2   3  356.45   10.83
   6   2  -3  377.43   11.24
  -6  -2   3  381.76   11.08
   6  -2  -3  424.09   12.62
   6   2   3  382.57   10.58
   6  -2   3  383.46   11.49
  -6   2  -3  400.85   11.44
  -6  -2  -3  383.56   10.57
  -6  -2   4  491.37   14.95
  -6   2  -4  460.14   13.48
   6   2  -4  440.43   12.62
  -6   2   4  437.38   13.00
   6   2   4  409.27   11.25
   6   2  -4  475.92   14.02
   6  -2  -4  467.83   13.89
   6   2   4  456.62   12.60
  -6   2  -4  470.09   13.31
  -6  -2  -5  214.77   15.65
  -6   2  -5  226.11   13.50
  -6  -2   5  247.32   15.42
   6   2  -5  209.67   11.68
  -6   2   5  231.00   13.22
   6   2   5  213.55   11.64
   6   2  -5  229.54   14.57
   6  -2  -5  246.97   14.28
   6   2   5  245.58   13.38
   6  -2   5  223.11   12.68
  -6   2  -5  237.63   13.17
  -6  -2  -6  222.69   19.62
  -6   2  -6  228.30   18.39
  -6  -2   6  218.25   15.59
  -6   2   6  219.15   15.88
   6   2  -6  196.06   15.03
   6   2  -6  211.48   15.36
   6  -2  -6  223.84   16.38
   6   2   6  227.23   15.97
   6  -2   6  207.12   14.96
  -6   2  -6  210.82   15.83
  -6  -2  -7   80.46    7.59
  -6   2  -7  102.07    9.59
  -6  -2   7   96.03    8.62
  -6   2   7   81.48    7.63
   6   2  -7   72.84    8.90
   6   2  -7   85.50   12.49
   6   2   7   79.79    6.68
   6  -2  -7   86.55    7.01
   6  -2   7   88.34   10.05
   6   2   7   88.44    6.67
  -6  -2  -8   92.87   10.27
  -6   2  -8  104.69   11.38
  -6  -2   8   93.50   10.46
  -6   2   8   98.82   13.42
   6   2  -8   75.02    7.93
   6   2  -8   83.12   12.86
   6   2   8   92.92   10.25
   6  -2  -8   94.64    9.12
   6  -2   8   84.46    8.10
   6   2   8   83.36    7.57
  -6  -2  -9    3.52    1.25
  -6   2  -9    5.23    1.85
  -6  -2   9    8.69    2.79
  -6   2   9    9.84    3.66
   6   2  -9    1.88    1.01
   6   2  -9    4.88    2.01
   6   2   9    5.24    1.80
   6  -2  -9    5.46    2.50
   6  -2   9    4.14    3.32
   6   2   9    3.70    1.73
  -6  -2 -10   13.17    3.09
  -6   2 -10   12.26    2.87
  -6  -2  10   14.27    2.84
  -6   2  10    7.62    2.46
   6   2 -10    8.00    2.11
   6   2 -10    5.96    1.73
   6  -2 -10   14.28    3.51
   6   2  10    3.61    0.92
   6  -2  10   14.19    3.42
   6   2  10   14.39    3.08
  -6   2 -11   16.59    4.47
  -6  -2  11   17.59    4.38
  -6   2  11   18.80    4.72
   6   2 -11    5.05    1.83
   6   2  11   18.41    5.79
   6   2 -11   13.04    4.33
   6  -2 -11   11.46    3.67
   6  -2  11   10.28    3.37
   6   2  11   17.41    4.49
  -6   2 -12   21.70    5.32
  -6  -2  12   20.89    4.50
  -6   2  12   43.65    9.20
   6   2 -12   13.83    4.61
   6   2  12   19.55    4.88
   6   2 -12   43.43   10.43
   6  -2 -12   32.44    8.36
   6  -2  12   33.22    8.30
   6   2  12    7.54    2.27
  -6   2 -13  109.39    8.85
  -6  -2  13  118.00    6.44
  -6   2  13  104.73   10.38
   6   2  13  119.94    7.51
   6   2 -13  118.64   16.61
   6  -2  13  105.63    6.57
   6   2  13  108.00    6.29
  -6   2 -14   74.03    9.48
  -6   2  14   84.58    6.62
   6   2  14   69.82   11.70
   6   2 -14   65.63   11.33
   6  -2 -14   89.13   10.58
   6  -2  14   80.27   12.34
   6   2  14   71.48    7.33
  -6   2  15   48.20    9.49
   6   2  15   52.32    9.52
   6  -2  15   40.81    7.90
   6   2 -15   51.02   12.65
   6  -2 -15   63.42   10.06
   6  -2  15   55.33   10.95
   6   2  15   48.06    8.25
  -6   2  16    9.23    2.85
   6   2  16    7.02    2.57
   6  -2  16    3.71    1.83
   6   2 -16    4.66    1.76
   6  -2 -16   17.63    4.42
   6  -2  16   14.65    4.94
   6   2  16   10.25    3.37
   6   2  17    6.39    2.98
   6  -2 -17    7.55    2.51
   6  -2  17   14.74    5.26
   6   2  17    5.44    2.22
   6   2 -18    7.52    2.60
   6  -2 -18   15.49    4.99
   6  -2  18    4.52    3.01
   6   2 -19    3.08    1.81
   6  -2 -19   11.38    3.78
   6  -2  19    3.93    2.67
  -6  -3   0  230.48   15.53
   6   3   0  199.42   11.50
  -6  -3   0  206.54   11.37
  -6   3   0  210.32   11.72
  -6  -3  -1   87.12   10.90
  -6  -3   1   68.73    8.44
   6   3  -1   70.76    7.90
  -6   3   1   86.70   12.26
   6   3   1   53.42    6.07
   6   3  -1   73.63    8.72
  -6  -3   1   72.06    8.24
  -6  -3  -1   77.12    8.59
   6  -3  -1   61.18    7.09
   6  -3   1   80.80    9.88
  -6   3  -1   63.76    7.20
  -6  -3  -2   18.86    3.23
  -6  -3   2    2.46    1.57
   6   3  -2    8.71    1.71
  -6   3  -2    1.76    1.56
  -6   3   2   14.82    2.51
   6   3   2    2.27    0.50
   6   3  -2   11.10    2.12
  -6  -3   2    5.68    1.56
   6  -3  -2    3.71    1.50
   6  -3   2   14.89    2.99
  -6  -3  -2   13.32    1.56
  -6   3  -2    8.23    2.15
  -6  -3  -3  244.92   16.61
   6   3  -3  238.71   13.54
  -6   3  -3  207.92   12.03
  -6   3   3  240.58   13.78
  -6  -3   3  196.66   11.03
   6  -3  -3  221.88   13.13
   6  -3   3  237.03   13.48
  -6   3  -3  207.66   11.59
  -6  -3  -4  248.24   15.43
  -6  -3   4  180.42   11.91
  -6   3  -4  180.01   10.45
   6   3  -4  210.29   12.12
   6   3  -4  231.96   13.37
   6  -3  -4  188.45   12.86
   6  -3   4  227.64   13.08
  -6   3  -4  169.83    9.55
  -6  -3   5  638.09   19.15
  -6   3  -5  695.25   21.17
   6   3  -5  619.40   18.52
  -6   3   5  609.89   18.84
   6   3  -5  668.83   20.41
   6  -3  -5  677.96   20.90
   6  -3   5  663.45   20.04
  -6  -3  -6  286.09   13.23
  -6  -3   6  275.40    8.75
  -6   3  -6  302.72    9.89
   6   3  -6  289.65    9.02
  -6   3   6  314.93   10.67
   6   3  -6  294.10    9.87
   6   3   6  237.84   16.64
   6  -3  -6  309.86   10.56
   6   3   6  301.53    9.01
   6  -3   6  291.61    9.55
  -6  -3  -7  250.92   16.87
  -6   3  -7  172.03    8.47
  -6  -3   7  171.80   10.26
   6   3  -7  231.94    9.58
  -6   3   7  243.82   10.86
   6   3  -7  252.79   12.36
   6  -3  -7  194.27    9.10
   6   3   7  139.64   12.34
   6  -3   7  225.31   10.11
   6   3   7  186.74    7.94
  -6  -3  -8   67.89    9.79
  -6   3  -8   71.56    8.04
  -6  -3   8   70.82    7.82
  -6   3   8   63.34    8.63
   6   3  -8   40.88    7.17
   6   3  -8   57.81    9.37
   6   3   8   67.85    6.76
   6  -3  -8   96.68   11.48
   6  -3   8   56.91    6.76
   6   3   8   74.61    7.56
  -6  -3  -9  378.07   24.76
  -6   3  -9  362.77   21.05
  -6  -3   9  335.49   17.01
  -6   3   9  373.21   19.66
   6   3  -9  354.81   17.95
   6   3  -9  378.87   19.82
   6  -3  -9  386.96   20.28
   6   3   9  326.39   17.17
   6  -3   9  410.61   21.19
   6   3   9  353.25   17.88
  -6   3 -10  130.19   10.69
  -6  -3  10  114.95   13.76
  -6   3  10  139.90   14.11
   6   3 -10  126.13   28.32
   6   3  10  137.31    7.80
   6   3 -10  144.02   13.92
   6  -3 -10  155.07    9.07
   6   3  10  114.15   12.46
   6  -3  10  145.25   14.62
   6   3  10  118.57   12.57
  -6   3 -11   53.43    9.44
  -6  -3  11   41.43    6.97
  -6   3  11   54.06    9.40
   6   3 -11   28.55    7.78
   6   3  11   54.69   10.83
   6   3 -11   60.81   10.33
   6   3  11   37.90    5.52
   6  -3  11   50.01    8.89
   6   3  11   45.67    6.73
  -6   3 -12   51.57    6.47
  -6  -3  12   34.64    7.49
  -6   3  12   75.30   10.20
   6   3  12   48.07    5.49
   6   3 -12   65.37   10.63
   6  -3 -12   59.72    7.07
   6  -3  12   76.45    7.09
   6   3  12   51.66    5.40
  -6   3 -13   24.56    5.62
  -6   3  13   24.48    5.80
   6   3  13   16.07    4.25
   6   3 -13   22.43    5.85
   6  -3 -13   33.20    7.93
   6  -3  13   20.76    5.00
   6   3  13   23.43    4.64
  -6   3 -14   15.62    4.53
  -6   3  14   13.91    4.13
   6   3  14   19.41    5.03
   6   3 -14   20.69    6.26
   6  -3 -14    4.51    4.01
   6  -3  14   15.87    5.14
   6   3  14   14.25    3.90
  -6   3  15    7.64    3.82
   6   3  15    5.90    2.16
   6  -3  15    5.85    2.26
   6   3 -15    7.04    3.01
   6  -3 -15   11.34    3.80
   6  -3  15    5.42    2.22
   6   3  15   10.32    2.91
  -6   3  16    1.46    1.49
   6   3  16    1.77    1.25
   6   3 -16    1.84    1.51
   6  -3 -16    4.85    2.73
   6  -3  16    1.08    2.61
   6   3  16   -1.01    1.23
   6   3  17    3.44    1.78
   6   3 -17   -1.25    2.73
   6  -3 -17    8.61    3.47
   6  -3  17    6.08    3.09
   6   3  18    5.64    1.76
   6   3 -18   10.12    2.79
   6  -3 -18    2.31    3.15
   6  -3  18    7.39    2.84
   6   3 -19    7.48    2.52
   6  -3 -19    3.50    2.17
   6  -3  19    6.89    3.96
  -6   4   0  755.16   21.65
   6   4   0  664.52   18.37
  -6  -4   0  692.67   19.13
   6  -4   0  757.92   22.88
  -6  -4  -1  439.04   13.38
  -6  -4   1  401.13   14.15
  -6   4  -1  371.27   11.23
  -6   4   1  384.09   11.77
   6   4   1  326.70    9.11
   6   4  -1  384.43   11.00
  -6  -4   1  347.20    9.91
  -6  -4  -1  375.64   10.45
   6  -4  -1  388.59   11.91
  -6  -4  -2  443.12   19.82
  -6  -4   2  471.47   13.78
   6   4  -2  408.65   11.82
  -6   4   2  389.53   11.95
   6   4  -2  421.04   12.19
  -6  -4   2  460.34   13.11
   6  -4  -2  469.43   13.94
  -6  -4  -2  411.09   11.21
   6  -4   2  438.92   12.98
  -6  -4  -3  551.56   17.93
  -6  -4   3  476.72   13.75
   6   4  -3  483.03   14.35
  -6   4  -3  475.25   14.05
  -6   4   3  516.86   17.14
   6   4  -3  506.04   14.53
  -6  -4   3  448.57   12.89
   6  -4  -3  463.43   13.79
   6  -4   3  532.80   15.48
  -6  -4  -4  425.52   20.13
  -6  -4   4  447.02   13.73
   6   4  -4  406.02   12.46
  -6   4  -4  445.61   14.09
  -6   4   4  427.90   13.82
   6   4  -4  453.93   14.14
   6  -4  -4  416.43   13.39
   6  -4   4  408.78   12.96
  -6  -4  -5  255.84   12.77
  -6  -4   5  241.37   28.53
  -6   4  -5  233.05   16.77
   6   4  -5  232.88   16.49
  -6   4   5  243.67   27.99
   6   4  -5  258.84    8.82
   6  -4  -5  248.80   28.57
   6  -4   5  215.96   15.61
  -6  -4  -6   21.55    3.37
  -6  -4   6   17.10    2.58
  -6   4  -6   18.92    3.64
   6   4  -6   15.57    2.44
  -6   4   6   24.78    4.35
   6   4  -6   22.27    4.02
   6  -4  -6   19.21    3.99
   6  -4   6   16.94    3.79
  -6  -4  -7  178.35   10.50
  -6  -4   7  156.85   40.03
  -6   4  -7  135.11   12.29
   6   4  -7  164.09    6.96
  -6   4   7  185.01   11.73
   6   4  -7  160.89   40.85
   6  -4  -7  191.01   15.46
   6   4   7  144.81   12.73
   6  -4   7  160.34   40.74
   6   4   7  156.47   39.51
  -6  -4   8   55.36    8.26
  -6   4  -8   54.11    8.63
  -6   4   8   64.85    9.97
   6   4  -8   47.18    6.82
   6   4  -8   59.21    9.35
   6  -4  -8   53.67    7.29
   6   4   8   52.90    7.06
   6  -4   8   55.54    7.60
   6   4   8   52.63    6.76
  -6  -4   9  113.91    9.95
  -6   4  -9  118.87    9.98
  -6   4   9  121.98   11.59
   6   4  -9  104.27    8.76
   6   4   9  116.62    9.73
   6   4  -9  122.17   17.40
   6  -4  -9  154.39   15.83
   6   4   9  125.80   10.38
   6  -4   9  111.71    9.18
  -6  -4  10   58.64    7.38
  -6   4 -10   79.62   10.04
  -6   4  10   80.57    9.39
   6   4 -10   71.57    8.30
   6   4  10   80.08   14.81
   6   4 -10   91.50   13.29
   6   4  10   64.78    7.35
   6  -4  10   86.63   14.80
   6   4  10   79.89    8.62
  -6  -4  11   86.18   12.20
  -6   4 -11   88.00   14.77
  -6   4  11  112.21   16.28
   6   4 -11   85.22   11.90
   6   4  11  121.86   18.54
   6   4 -11   98.33   17.38
   6  -4 -11  121.01   17.71
   6   4  11   84.73   11.95
   6  -4  11   79.23   16.69
   6   4  11   97.78   15.23
  -6  -4  12   95.72    7.63
  -6   4 -12  114.76   11.13
  -6   4  12  154.04   10.52
   6   4  12  119.35   14.19
   6   4 -12  151.58   19.55
   6  -4 -12  127.33   12.57
   6  -4  12  153.27    9.87
   6   4  12  107.17   10.90
  -6   4 -13   41.54    9.07
  -6   4  13   48.18    6.23
   6   4  13   42.65    7.25
   6   4 -13   47.89    6.81
   6  -4 -13   28.88    6.03
   6  -4  13   56.80    7.08
   6   4  13   39.56    7.31
  -6   4 -14   16.81    4.12
  -6   4  14   26.10    6.36
   6   4  14   12.27    4.11
   6   4 -14   45.60    8.60
   6  -4 -14   13.81    5.39
   6  -4  14   31.95    5.52
   6   4  14    6.82    1.52
  -6   4 -15    1.48    0.67
  -6   4  15   -0.08    1.76
   6   4  15    2.95    1.57
   6   4 -15    6.55    2.35
   6  -4 -15    2.46    2.16
   6  -4  15    9.65    5.98
   6   4  15    2.18    1.16
  -6   4  16   42.75    6.99
   6   4  16   44.20    9.94
   6   4 -16   57.88    9.62
   6  -4 -16   54.57    8.98
   6  -4  16   44.47    5.87
  -6   4  17   15.89    4.16
   6   4  17   25.02    6.33
   6   4 -17   22.68    6.06
   6  -4 -17   25.65    7.32
   6  -4  17   22.08    5.65
   6   4  18    5.74    2.34
   6   4 -18    4.71    2.55
   6  -4 -18    4.15    2.58
   6  -4  18    7.64    3.94
   6   4  19    2.65    1.64
   6   4 -19   10.76    4.09
   6  -4 -19    5.33    2.20
   6  -4  19   12.15    4.08
  -6  -5   0  492.23   19.32
   6   5   0  375.26   10.58
  -6  -5   0  409.52   11.52
  -6  -5  -1  353.21   12.80
  -6  -5   1  406.94   15.51
  -6   5  -1  385.04   12.35
  -6   5   1  388.29   12.57
   6   5  -1  379.44   11.56
  -6  -5   1  384.03   11.64
   6  -5  -1  408.19   13.12
   6  -5   1  378.81   12.25
  -6  -5  -1  354.41   10.58
  -6  -5   2  174.03   13.97
  -6   5  -2  145.05   10.77
  -6   5   2  145.85   11.17
   6   5  -2  139.72   11.97
  -6  -5   2  168.26   12.07
  -6  -5  -2  110.92    7.80
   6  -5  -2  166.21   12.33
  -6  -5  -2  127.94    9.00
  -6  -5  -3  181.60   14.96
  -6  -5   3  202.17   16.76
   6   5  -3  145.87   11.98
  -6   5  -3  165.12   12.21
  -6   5   3  175.07   13.08
   6   5  -3  171.79   13.44
  -6  -5   3  169.91   13.14
   6  -5  -3  190.71   14.25
   6  -5   3  176.84   13.19
  -6  -5  -4  271.46   14.46
  -6  -5   4  301.07   12.26
   6   5  -4  227.54   17.18
  -6   5  -4  281.16    9.52
  -6   5   4  264.13    9.63
   6   5  -4  267.52    8.84
   6  -5  -4  311.03   10.45
   6  -5   4  241.55   27.70
  -6  -5  -5  307.97   12.21
  -6  -5   5  349.63   10.93
   6   5  -5  312.10    9.75
  -6   5  -5  312.40   10.14
  -6   5   5  310.01   10.76
   6   5  -5  310.47   10.24
   6  -5  -5  325.43   11.55
   6  -5   5  301.07   10.37
  -6  -5  -6    3.73    1.50
  -6  -5   6    4.66    1.39
  -6   5  -6    6.16    2.43
   6   5  -6    1.26    0.82
  -6   5   6    4.06    1.55
   6   5  -6    2.92    1.11
   6  -5  -6    3.58    2.53
   6  -5   6    4.92    2.91
  -6  -5   7   73.22    7.96
  -6   5  -7   74.42    7.63
   6   5  -7   62.62    8.05
  -6   5   7   87.16   12.95
   6   5   7   73.19    7.48
   6   5  -7   91.38   10.27
   6  -5  -7   87.01   14.67
   6  -5   7   75.17    7.57
  -6  -5   8   99.32    8.76
  -6   5  -8   90.23   16.24
   6   5  -8   73.54    9.88
  -6   5   8   92.42   11.31
   6   5   8   95.01    8.92
   6   5  -8  104.33   12.08
   6   5   8   94.49    7.36
   6  -5   8   82.28   14.43
   6   5   8   86.22   14.43
  -6  -5   9  117.30   13.21
  -6   5  -9  139.98    8.16
   6   5  -9  120.29   13.17
  -6   5   9  150.64    8.61
   6   5   9  136.98    8.00
   6   5  -9  150.38   12.27
   6   5   9  118.18   12.70
   6  -5   9  142.45   17.59
   6   5   9  132.25    7.48
  -6  -5  10    9.59    2.40
  -6   5 -10    9.33    2.59
  -6   5  10    8.59    2.95
   6   5 -10    6.64    1.90
   6   5  10    6.28    2.83
   6   5 -10   19.02    5.98
   6  -5 -10    9.37    3.34
   6   5  10    8.26    2.07
   6  -5  10   11.64    4.54
  -6   5 -11   14.19    4.22
  -6   5  11   10.09    3.49
   6   5 -11    8.41    2.42
   6   5  11   12.82    4.82
   6   5 -11   10.24    2.85
   6   5 -11   21.71    5.13
   6  -5 -11   16.96    5.07
   6  -5  11   18.19    5.22
  -6   5 -12   15.49    3.72
  -6   5  12   15.21    5.06
   6   5  12   13.40    4.18
  -6  -5 -12   11.97    3.64
   6   5 -12   24.00    6.16
   6  -5 -12   10.88    4.87
   6  -5  12   10.26    4.98
  -6   5 -13   11.27    3.72
  -6   5  13    5.78    2.52
   6   5  13   15.73    4.41
  -6  -5 -13    9.81    2.98
   6   5 -13   16.40    3.99
   6  -5 -13   18.26    5.21
   6  -5  13    8.58    4.86
  -6   5 -14   26.87    7.16
  -6   5  14   27.77    6.77
   6   5  14   40.46    6.73
   6   5 -14   36.16    6.48
   6  -5 -14   39.95    7.59
   6  -5  14   23.24    6.24
  -6   5  15    3.52    1.46
   6   5  15    3.45    2.07
   6   5 -15   -0.49    2.74
   6  -5 -15    7.16    1.91
   6  -5  15    1.64    2.65
   6   5  16   21.78    5.05
   6   5 -16   18.41    5.06
   6  -5 -16   33.24    7.52
   6  -5  16   19.53    5.00
  -6   5  17   -0.34    1.52
   6   5  17    5.95    3.02
   6   5 -17    5.70    3.37
   6  -5 -17    5.55    2.04
   6  -5  17    4.66    3.01
   6   5  18    8.71    3.55
   6   5 -18    4.14    2.28
   6  -5 -18   11.35    3.16
   6  -5  18    3.80    2.12
   6   5  19    5.65    2.15
   6   5 -19    3.30    2.23
   6  -5 -19    3.11    1.69
   6  -5  19    2.05    2.75
  -6  -6   0   40.16    6.62
  -6   6   0   30.41    5.67
  -6  -6   0   31.63    4.87
   6  -6   0   41.49    6.69
  -6  -6   0   40.86    5.96
  -6  -6  -1  107.71    9.58
  -6  -6   1  111.07   12.12
  -6   6  -1  100.23   11.69
  -6   6   1   78.95    9.55
  -6  -6   1   96.91    8.62
  -6  -6  -1   87.78    6.76
   6  -6  -1  101.89    8.36
   6  -6   1   98.49    8.14
  -6  -6  -1   89.15    6.47
  -6  -6   1   99.44    9.32
  -6  -6  -2   17.70    3.37
  -6  -6   2   10.11    2.08
  -6   6  -2    7.73    1.83
  -6   6   2   14.82    3.66
   6   6  -2   16.02    2.82
  -6  -6   2    7.77    1.41
  -6  -6  -2    5.62    0.93
   6  -6  -2   10.42    3.73
   6  -6   2    8.42    1.95
  -6  -6  -2   16.04    2.33
  -6  -6  -3  120.66   11.02
  -6  -6   3  111.35    9.50
  -6   6  -3   98.78    7.75
  -6   6   3  115.00   13.63
   6   6  -3  102.56    8.19
   6  -6  -3  112.50    8.79
   6  -6   3  116.45   12.38
  -6  -6   4    8.46    1.71
   6   6  -4    6.52    1.18
  -6   6  -4    3.78    1.61
  -6   6   4   11.57    2.74
   6   6   4    3.44    2.38
   6   6  -4   12.97    2.60
   6  -6  -4    8.94    2.84
   6  -6   4   11.99    2.79
  -6  -6   5  259.25   14.14
   6   6  -5  230.91   10.73
  -6   6  -5  241.02   10.52
  -6   6   5  264.12   11.91
   6   6   5  225.65   10.45
   6   6  -5  267.79   11.52
   6  -6  -5  256.84   11.66
   6  -6   5  268.56   12.04
  -6  -6   6   44.65    6.25
   6   6  -6   15.74    2.47
  -6   6  -6   38.18    6.90
  -6   6   6   11.57    2.77
   6   6   6   41.82    6.59
   6   6  -6   26.36    4.38
   6  -6  -6   29.63    4.92
   6  -6   6   23.35    4.40
  -6  -6   7   96.06    8.98
  -6   6  -7  115.00    9.31
   6   6  -7   98.88    8.86
  -6   6   7  130.14   15.46
   6   6   7  103.07    8.83
   6   6  -7  146.10   13.80
   6  -6   7  136.61   11.30
  -6   6  -8   51.91    5.97
   6   6  -8   24.36    4.99
  -6   6   8   34.89    6.11
   6   6   8   49.39    7.80
   6   6  -8   36.19    6.08
   6   6   8   41.60    4.63
   6  -6   8   29.85    5.84
   6   6   8   34.21    4.05
  -6   6  -9  239.60   11.59
   6   6  -9  221.86   10.54
  -6   6   9  236.21   12.26
   6   6   9  228.70   12.24
   6   6  -9  227.56   10.66
   6   6  -9  271.30   19.89
   6  -6  -9  250.62   13.03
   6   6   9  220.88   10.26
   6  -6   9  273.72   14.51
  -6   6 -10   76.03   12.83
  -6   6  10   64.33   11.86
   6   6 -10   43.24    6.81
   6   6 -10   49.38    7.47
   6   6  10   65.17   12.66
  -6  -6 -10   51.72    7.73
   6   6 -10   70.74   11.76
   6  -6 -10   84.82   13.33
   6   6  10   68.60    9.67
   6  -6  10   60.81   12.49
  -6   6 -11   38.74    8.21
  -6   6  11   46.56   13.87
   6   6  11   46.48   13.03
  -6  -6 -11   34.41    7.02
   6   6 -11   51.73    8.64
   6  -6 -11   41.24    8.79
   6  -6  11   46.72   12.74
  -6   6 -12   88.00    8.38
  -6   6  12   85.01   10.89
   6   6  12   81.15   14.27
  -6  -6 -12   48.46    5.47
   6   6 -12   81.12   16.56
   6  -6 -12   97.68    8.69
   6  -6  12   89.09    7.65
  -6   6 -13    8.00    2.08
  -6   6  13    5.32    2.52
   6   6  13    8.05    3.91
  -6  -6 -13    2.21    0.85
   6   6 -13    6.94    2.72
   6  -6 -13    2.12    2.92
   6  -6  13    0.75    3.25
  -6   6 -14   26.85    6.12
  -6   6  14   31.49    6.06
   6   6  14   38.06    7.69
   6   6 -14   23.03    6.49
   6  -6 -14   42.61    8.79
   6  -6  14   25.38    5.91
  -6   6  15    5.39    2.42
   6   6  15   13.55    4.79
   6   6 -15    7.38    2.66
   6  -6 -15   14.88    5.25
   6  -6  15   23.88    6.61
  -6   6  16    9.34    4.20
   6   6  16   13.67    4.44
   6   6 -16    7.79    3.41
   6  -6 -16   11.73    3.52
   6  -6  16    4.37    3.19
  -6   6  17   32.81    7.02
   6   6  17   20.63    5.87
   6   6 -17   37.27    8.02
   6  -6 -17   21.80    6.23
   6  -6  17   31.80    5.38
   6   6  18   17.99    4.52
   6   6 -18    8.68    3.02
   6  -6 -18   12.29    3.67
   6  -6  18   14.12    5.52
   6   6  19   14.61    5.21
   6   6 -19   25.28    7.99
   6  -6 -19   17.91    6.14
   6  -6  19   16.22    5.39
  -6   7   0  273.03   12.17
   6   7   0  297.69   13.11
  -6  -7   0  250.91   10.84
   6  -7   0  280.11   12.33
  -6  -7   0  278.78   11.80
  -6   7  -1    2.09    1.89
   6   7   1    3.80    2.53
   6   7  -1   23.09    3.85
  -6  -7  -1   21.52    3.11
  -6  -7   1    9.34    1.65
   6  -7  -1   10.18    2.36
   6  -7   1   24.47    4.31
  -6  -7  -1   25.83    3.75
  -6  -7   1    6.89    1.55
  -6   7  -2  221.97    9.95
  -6   7   2  229.26   14.07
   6   7   2  210.49   11.27
   6   7  -2  192.50    9.42
  -6  -7  -2  167.32    7.36
  -6  -7   2  193.64   10.28
   6  -7  -2  206.80    9.49
   6  -7   2  196.76    9.26
  -6  -7  -2  197.27    8.05
  -6  -7   2  210.93    9.11
  -6   7  -3    1.37    1.76
  -6   7   3    1.31    2.15
   6   7   3    4.13    1.60
   6   7  -3    2.18    0.85
  -6  -7  -3    1.52    0.35
   6  -7  -3    5.84    2.76
  -6  -7  -3    2.51    0.68
   6  -7   3    5.60    2.03
  -6  -7   3    1.66    1.18
  -6   7  -4  201.54   10.48
  -6   7   4  174.06   11.36
   6   7  -4  177.18   10.22
   6   7  -4  165.93    8.18
   6  -7  -4  214.02    9.97
   6  -7   4  177.36   15.01
   6   7  -5    7.72    2.18
  -6   7  -5   19.12    5.74
  -6   7   5   21.42    6.49
   6   7   5   23.42    6.83
   6   7  -5   10.73    3.28
   6   7  -5    6.22    2.46
   6  -7  -5   17.96    5.86
   6  -7   5    6.76    2.48
   6   7  -6    1.63    0.66
  -6   7  -6    5.51    2.51
  -6   7   6    5.97    2.53
   6   7   6    5.08    2.30
   6   7  -6    2.26    1.54
   6   7  -6    4.18    1.95
   6  -7   6    7.16    3.09
  -6   7  -7   33.75    4.21
   6   7  -7   16.17    3.13
  -6   7   7   23.74    5.17
   6   7   7   35.98    6.80
   6   7  -7   17.11    3.48
   6   7  -7   19.01    4.07
   6  -7  -7   34.37    6.00
   6  -7   7   23.33    5.34
  -6   7  -8   71.33   10.31
   6   7  -8   49.81    7.09
  -6   7   8   77.67   12.49
   6   7  -8   70.88    7.69
   6   7   8   71.04    8.52
   6   7  -8   97.62   14.41
  -6  -7  -8   29.87    5.20
   6  -7  -8   74.25   12.78
   6  -7   8   79.51    9.36
   6   7   8   47.88    5.34
  -6   7  -9   80.36   13.45
   6   7  -9   44.11    7.19
  -6   7   9   78.94   13.01
   6   7  -9   67.01    9.46
   6   7   9   99.34   14.87
   6   7  -9   77.89   13.84
  -6  -7  -9   48.29    7.07
   6  -7  -9   90.59   16.67
   6   7   9   70.96   10.13
   6  -7   9   79.16   12.07
  -6   7 -10   32.60    7.63
  -6   7  10   20.89    5.02
   6   7 -10   18.02    3.75
   6   7  10   25.56    6.09
   6   7 -10   24.96    5.67
   6  -7 -10   44.64    9.49
   6  -7  10   22.24    5.59
  -6   7 -11    4.75    1.64
  -6   7  11    0.54    2.27
   6   7  11    7.04    3.07
   6   7 -11    4.80    2.55
  -6  -7 -11    2.29    0.79
   6  -7 -11    5.38    3.20
   6  -7  11    0.93    3.36
  -6   7 -12    7.51    2.32
  -6   7  12   -1.13    2.23
   6   7  12    5.68    3.00
  -6  -7 -12    2.59    0.91
   6   7 -12    3.41    1.68
   6  -7 -12   12.09    5.25
   6  -7  12    6.62    4.91
  -6   7 -13   11.30    2.91
  -6   7  13    3.91    1.55
   6   7  13   16.83    5.18
   6   7 -13    8.06    3.56
   6  -7 -13   22.16    6.06
   6  -7  13    9.98    3.37
  -6   7  14    6.49    2.38
   6   7  14   13.12    4.46
   6   7 -14   10.83    3.75
   6  -7 -14    6.16    3.30
   6  -7  14   11.87    5.13
  -6   7  15    3.80    1.75
   6   7  15    3.35    2.57
   6   7 -15    5.59    2.26
   6  -7 -15    3.85    2.95
   6  -7  15    7.00    4.72
  -6   7  16   17.04    5.29
   6   7  16    7.81    2.84
   6   7 -16    5.78    2.17
   6  -7 -16   21.53    5.49
   6  -7  16    6.21    3.30
  -6   7  17    4.24    2.82
   6   7  17    4.76    2.33
   6   7 -17   -0.07    2.55
   6  -7 -17   20.10    4.63
   6  -7  17    2.86    3.15
  -6   7  18    1.26    0.91
   6   7  18    5.47    2.62
   6   7 -18    8.32    2.81
   6  -7 -18    3.46    2.41
   6  -7  18    3.99    3.02
  -6   8   0   74.89    7.58
   6   8   0   84.44    9.48
  -6  -8   0   62.38    7.04
   6  -8   0   92.05   10.43
  -6  -8   0   83.93    7.80
  -6   8  -1   57.53    8.60
  -6   8   1   54.60   16.35
   6   8  -1   47.08    6.18
   6   8   1   44.02    8.40
  -6  -8  -1   42.98    5.86
  -6  -8   1   36.78    5.29
   6  -8  -1   41.89    6.40
   6  -8   1   56.85    6.75
  -6  -8  -1   57.52    6.33
  -6  -8   1   43.31    5.31
  -6   8  -2  122.43   10.08
  -6   8   2  118.24   15.40
   6   8  -2  103.10    8.56
   6   8   2  122.62   11.34
  -6  -8  -2   95.65    8.30
   6  -8  -2  122.51   10.36
   6  -8   2  122.32   10.27
  -6  -8  -2  119.87    9.25
  -6  -8   2  127.31   10.15
  -6   8  -3   24.08    6.60
  -6   8   3   32.66    5.66
   6   8  -3   26.05    5.66
   6   8   3   14.41    4.60
  -6  -8  -3   23.71    6.28
   6  -8  -3   32.81    6.06
  -6  -8  -3   30.21    4.90
   6  -8   3   35.86    6.16
  -6  -8   3   34.66    4.92
  -6   8  -4   46.15    6.40
  -6   8   4   51.64    8.86
   6   8   4   28.01    5.20
   6   8  -4   43.59    7.08
  -6  -8  -4   27.53    3.70
  -6  -8  -4   39.55    4.83
   6  -8  -4   42.92    6.15
   6  -8   4   37.53    5.71
  -6  -8   4   33.24    4.72
  -6   8  -5  139.41   11.20
  -6   8   5  159.53   15.77
   6   8   5  121.39   10.45
   6   8  -5  169.90   13.20
  -6  -8  -5  108.82    8.24
  -6  -8  -5  121.66    9.15
   6  -8   5  161.14   13.45
  -6  -8   5  157.97   15.16
   6   8  -6  168.92    9.01
  -6   8  -6  208.11   10.84
  -6   8   6  216.59   15.64
   6   8   6  221.38   11.67
   6   8  -6  201.76    9.89
   6  -8  -6  259.43   20.48
   6  -8   6  221.96   11.92
  -6  -8   6  212.46   11.04
   6   8  -7   80.33   11.84
  -6   8  -7   75.10   14.18
  -6   8   7  112.30   18.12
   6   8  -7   95.48   14.45
   6   8   7   71.24   10.93
   6   8  -7  126.49   33.61
  -6  -8  -7   39.51    5.58
   6  -8  -7   81.82   16.12
   6  -8   7  108.91   16.31
  -6   8  -8   94.90   16.48
   6   8  -8   45.62    7.74
  -6   8   8   91.08   13.72
   6   8  -8   65.78   10.17
   6   8   8  112.83   16.61
   6   8  -8  106.76   19.48
  -6  -8  -8   42.35    6.08
   6  -8  -8  102.02   14.98
   6  -8   8   78.17   12.02
   6   8   8   55.10    7.90
  -6   8  -9  249.33   14.09
  -6   8   9  308.45   18.22
   6   8  -9  281.77   15.45
   6   8   9  246.61   15.06
   6   8  -9  290.01   19.52
  -6  -8  -9  221.39   12.13
   6  -8  -9  247.54   15.05
   6  -8   9  305.42   18.06
  -6   8 -10   22.36    5.05
  -6   8  10   17.21    4.60
   6   8  10   17.79    5.08
   6   8 -10   14.15    3.49
  -6  -8 -10    6.11    1.77
   6  -8 -10   23.21    5.28
   6  -8  10   19.64    6.04
  -6   8 -11    4.43    1.56
  -6   8  11   13.33    5.28
   6   8  11    2.68    2.61
   6   8 -11    9.71    3.31
   6  -8 -11    6.93    3.49
   6  -8  11    7.90    4.10
  -6   8 -12   32.13    6.40
  -6   8  12   21.38    6.32
   6   8  12   32.16    6.84
   6   8 -12   37.01    7.37
   6  -8 -12   33.75    5.92
   6  -8  12   22.61    6.14
  -6   8  13   -0.04    2.20
   6   8  13    2.75    1.77
   6   8 -13    3.23    2.17
   6  -8 -13    3.36    2.70
   6  -8  13    2.95    3.40
  -6   8  14   12.37    4.18
   6   8  14   50.86    5.39
   6   8 -14   30.72   10.08
   6  -8 -14   15.75    5.17
   6  -8  14   19.26    5.80
  -6   8  15    2.09    2.10
   6   8  15    6.51    2.55
   6   8 -15    3.62    2.47
   6  -8 -15    6.25    4.16
   6  -8  15    4.90    3.53
  -6   8  16    6.58    2.63
   6   8  16    5.22    2.98
   6   8 -16   14.05    4.48
   6  -8 -16    6.32    2.75
   6  -8  16   -1.40    2.86
  -6   8  17   11.63    3.48
   6   8  17    9.80    3.74
   6   8 -17    9.55    3.59
   6  -8 -17    8.30    3.94
   6  -8  17   14.54    5.58
  -6   8  18    1.29    1.79
   6   8  18   -0.97    2.27
   6   8 -18    4.24    2.19
   6  -8 -18    0.00    2.43
   6  -8  18    1.61    3.18
  -6   9   0  730.02   37.29
   6   9   0  687.16   35.01
  -6  -9   0  581.94   29.22
   6  -9   0  671.13   34.73
  -6  -9   0  725.78   36.44
  -6   9  -1  112.79   14.69
  -6   9   1  141.02   17.81
   6   9  -1  138.13   14.38
   6   9   1   92.84    8.15
  -6  -9  -1   90.91   15.84
   6  -9  -1  132.02   13.77
   6  -9   1  120.23   10.14
  -6  -9  -1  125.93   10.73
  -6  -9   1  102.95    8.29
  -6   9  -2  359.73   20.12
   6   9   2  375.84   19.93
   6   9  -2  355.33   18.53
  -6  -9  -2  311.23   16.36
   6  -9  -2  382.77   20.05
   6  -9   2  369.06   19.48
  -6  -9  -2  353.97   17.91
  -6  -9   2  389.15   20.54
  -6   9  -3   74.54   12.48
  -6   9   3   59.89    7.34
   6   9   3   62.48    7.77
   6   9  -3   67.75    9.69
  -6  -9  -3   42.99    5.51
  -6  -9  -3   62.94    7.91
   6  -9   3   61.05    7.64
  -6  -9   3   67.58    7.83
  -6   9  -4  182.04   12.26
  -6   9   4  194.00   10.49
   6   9  -4  192.86    9.80
   6   9   4  166.20   11.58
  -6  -9  -4  133.21    7.04
  -6  -9  -4  181.34    8.51
   6  -9   4  199.40   14.75
  -6  -9   4  177.31    9.25
  -6   9  -5   65.13   11.33
  -6   9   5   49.03    8.80
   6   9  -5   47.07    5.43
  -6  -9  -5   28.39    5.28
  -6  -9  -5   43.58    5.03
   6  -9  -5   70.02    9.46
   6  -9   5   42.63    6.05
  -6  -9   5   70.04    8.35
  -6   9  -6   10.41    3.59
  -6   9   6    2.75    3.65
   6   9  -6    3.44    1.87
   6   9   6   12.26    4.82
  -6  -9  -6    2.52    0.83
   6  -9  -6   11.01    4.45
   6  -9   6    6.47    3.81
  -6  -9   6   12.62    4.52
   6   9  -7    3.85    1.71
  -6   9  -7    5.14    2.27
  -6   9   7    7.68    5.08
   6   9  -7    9.54    2.90
   6   9   7    5.63    4.10
  -6  -9  -7    1.88    0.71
   6  -9  -7   12.19    4.83
   6  -9   7   13.87    5.55
   6   9   7    1.59    0.71
  -6  -9   7    8.09    4.12
  -6   9  -8    7.59    2.81
  -6   9   8   10.54    3.64
   6   9  -8    9.19    2.78
   6   9   8    4.76    3.03
  -6  -9  -8    5.18    1.53
   6  -9  -8   19.20    5.28
   6  -9   8   10.64    3.40
  -6  -9   8   14.53    4.78
  -6   9  -9   29.03    5.74
  -6   9   9   24.93    6.03
   6   9  -9   18.78    4.05
   6   9   9   27.90    6.49
   6  -9  -9   39.87    7.35
   6  -9   9   22.61    6.34
  -6  -9   9   31.28    6.56
  -6   9 -10   52.59    5.40
  -6   9  10   52.43    7.83
   6   9  10   37.68    8.28
   6  -9 -10   46.52    9.77
   6  -9  10   59.44   10.22
  -6  -9  10   53.85    6.32
  -6   9 -11  103.40   11.15
  -6   9  11  102.20   10.04
   6   9  11  131.82   16.40
   6  -9 -11  110.01    8.63
   6  -9  11  108.31    8.87
  -6  -9  11  112.83    8.12
  -6   9 -12   14.90    3.69
  -6   9  12   24.76    7.19
   6   9  12   10.36    4.28
   6  -9 -12   16.96    5.22
   6  -9  12   25.34    6.54
  -6  -9  12   23.89    6.38
  -6   9  13   48.66    8.12
   6   9  13   56.71    6.50
   6  -9 -13   65.45    7.98
   6  -9  13   71.38    8.83
  -6  -9  13   43.58    8.03
  -6   9  14    6.57    3.15
   6   9  14   17.29    4.47
   6  -9 -14   13.50    5.41
   6  -9  14   15.07    5.71
  -6  -9  14    9.43    5.60
  -6   9  15   66.36   10.62
   6   9  15   64.30   13.15
   6  -9 -15   57.67    9.67
   6  -9  15   74.68   11.93
  -6  -9  15   65.57   10.59
  -6   9  16    8.73    2.77
   6   9  16    3.44    1.40
   6  -9 -16   10.61    3.37
   6  -9  16   16.54    5.66
  -6  -9  16   12.91    5.18
  -6   9  17   20.92    5.43
   6   9  17   11.08    4.61
   6  -9 -17    5.89    3.84
   6  -9  17   19.01    5.55
  -6  -9  17    9.80    4.04
  -6  10   0    1.39    2.39
   6  10   0    1.99    2.15
   6 -10   0   -2.31    3.09
  -6 -10   0    7.28    2.76
  -6  10  -1   21.63    4.51
  -6  10   1   18.66    4.57
   6  10   1   10.27    2.97
   6  10  -1   14.60    3.46
  -6 -10  -1   10.78    2.12
   6 -10  -1   25.67    6.23
   6 -10   1    8.97    2.40
  -6 -10  -1   18.20    3.71
  -6 -10   1   17.99    4.11
  -6  10  -2   60.33    9.03
  -6  10   2   64.54    9.98
   6  10   2   42.12    5.70
   6  10  -2   42.57    6.69
  -6 -10  -2   30.67    6.51
   6 -10   2   54.33    7.30
  -6 -10  -2   52.25    5.91
  -6 -10   2   42.83    5.17
  -6  10  -3   21.39    5.55
   6  10  -3   16.44    4.18
   6  10   3   11.32    4.02
  -6 -10  -3   13.60    3.76
   6 -10  -3   28.82    7.86
  -6 -10  -3   23.79    6.27
   6 -10   3   12.10    4.26
  -6 -10   3   21.64    5.36
  -6  10  -4  264.73   14.24
  -6  10   4  322.66   23.37
   6  10  -4  283.41   14.88
   6  10   4  272.52   15.04
  -6 -10  -4  266.65   13.40
   6 -10  -4  243.03   13.40
   6 -10   4  301.64   23.14
  -6 -10   4  303.79   18.22
  -6  10  -5  154.72    9.55
  -6  10   5  166.90   16.02
   6  10  -5  170.20   13.04
   6  10   5  174.33   14.07
  -6 -10  -5  151.50    7.75
   6 -10  -5  160.84   10.61
   6 -10   5  161.35   12.25
  -6 -10   5  151.20    9.68
  -6  10  -6  202.22   12.84
  -6  10   6  184.04   11.87
   6  10  -6  194.67   11.24
   6  10   6  210.82   12.90
  -6 -10  -6  168.78    9.80
   6 -10  -6  237.75   14.48
   6 -10   6  197.28   12.61
  -6 -10   6  194.66   11.62
  -6  10  -7   22.66    5.43
  -6  10   7   25.16    6.21
   6  10  -7   11.97    3.60
   6  10   7   12.37    4.54
   6 -10  -7   20.81    4.91
   6 -10   7   22.12    6.35
  -6 -10   7   15.65    3.82
  -6  10  -8  264.92   16.67
  -6  10   8  295.77   16.69
   6  10  -8  286.73   15.04
   6  10   8  242.92   14.46
   6 -10  -8  256.49   15.04
   6 -10   8  268.21   21.39
  -6 -10   8  272.77   15.64
  -6  10  -9   44.48    6.19
  -6  10   9   58.80   10.51
   6  10   9   37.75    8.20
   6 -10  -9   29.53    6.09
   6 -10   9   45.94    6.06
  -6 -10   9   44.13    5.58
  -6  10 -10  138.54    8.11
  -6  10  10  153.86   17.71
   6  10  10  146.85    9.83
   6 -10 -10  100.86   19.66
   6 -10  10  156.22   11.18
  -6 -10  10  149.66    9.85
  -6  10 -11   96.90    8.27
  -6  10  11  101.36    9.61
   6  10  11  111.76   10.22
   6 -10 -11  108.97    9.63
   6 -10  11   88.23    9.07
  -6 -10  11  117.16   10.17
  -6  10  12   21.53    4.72
   6  10  12    7.44    3.36
   6 -10 -12    6.43    3.25
   6 -10  12    7.97    3.64
  -6 -10  12   18.08    5.00
  -6  10  13   -0.04    2.52
   6  10  13    9.75    3.86
   6 -10 -13    3.07    3.09
   6 -10  13    8.83    5.32
  -6 -10  13    8.03    3.89
  -6  10  14    4.73    2.43
   6  10  14    8.46    2.99
   6 -10 -14    2.28    2.58
   6 -10  14    4.10    3.24
  -6  10  15   15.89    4.97
   6  10  15    3.33    2.37
   6 -10 -15   16.00    5.29
   6 -10  15   18.04    5.31
  -6 -10  15   12.41    4.50
  -6  10  16    6.10    3.04
   6  10  16    6.59    3.85
   6 -10 -16   -2.56    2.49
   6 -10  16   17.19    5.27
  -6 -10  16   12.43    5.26
  -6  11   0  113.02   13.80
   6  11   0  120.57    8.34
   6 -11   0  118.82   31.79
  -6 -11   0  109.63    9.33
  -6  11  -1   25.04    5.75
  -6  11   1   12.47    4.24
   6  11   1   19.02    4.70
   6  11  -1   17.81    4.56
   6 -11   1   12.70    4.58
  -6 -11  -1   15.21    4.30
  -6 -11   1   20.35    4.33
  -6  11  -2  185.64   17.45
  -6  11   2  211.68   13.20
   6  11  -2  199.06   17.49
   6  11   2  170.67   13.10
   6 -11  -2  165.77   11.15
   6 -11   2  198.24   13.08
  -6 -11  -2  189.21   10.79
  -6 -11   2  190.97   12.47
  -6  11  -3   71.55    6.92
  -6  11   3   48.89    7.18
   6  11  -3   49.29    6.22
   6  11   3   65.12    9.76
   6 -11  -3   76.91    8.54
  -6 -11  -3   49.23    4.47
   6 -11   3   61.24    8.57
  -6 -11   3   73.91    6.85
  -6  11  -4  202.06   12.02
  -6  11   4  235.52   14.20
   6  11  -4  222.89   13.17
   6  11   4  198.50   12.47
   6 -11  -4  193.94   14.31
  -6 -11  -4  217.32   12.09
   6 -11   4  247.04   22.42
  -6 -11   4  199.08   11.85
  -6  11  -5   64.03   10.75
  -6  11   5   51.44    7.59
   6  11  -5   50.60    7.98
   6  11   5   64.30   10.77
  -6 -11  -5   34.65    7.87
   6 -11  -5   57.93    8.56
   6 -11   5   59.80    9.66
  -6 -11   5   61.37    8.83
  -6  11  -6   61.68   11.82
  -6  11   6   75.92   12.19
   6  11  -6   69.72   11.28
   6  11   6   79.42   12.02
  -6 -11  -6   47.04    6.75
   6 -11  -6   85.89    8.39
   6 -11   6   75.62   10.22
  -6 -11   6   78.68   10.36
  -6  11  -7   43.10    6.80
  -6  11   7   30.53    6.46
   6  11  -7   32.10    5.73
   6  11   7   37.86    7.80
   6 -11  -7   50.73    6.94
   6 -11   7   50.06    6.38
  -6 -11   7   46.85    5.45
  -6  11  -8   40.95    6.71
  -6  11   8   32.16    5.86
   6  11  -8   36.21    5.97
   6  11   8   30.90    5.62
   6 -11  -8   28.67    7.02
   6 -11   8   46.32    8.20
  -6 -11   8   35.10    5.81
  -6  11  -9    2.07    0.76
  -6  11   9    5.60    4.26
   6  11   9    5.69    2.89
   6 -11  -9    9.51    3.91
   6 -11   9    5.66    4.32
  -6 -11   9    6.40    3.15
  -6  11  10   17.55    4.97
   6  11  10   26.42    5.87
   6 -11 -10   13.82    4.56
   6 -11  10   23.64    7.01
  -6 -11  10   26.01    5.59
  -6  11  11  127.70   12.07
   6  11  11  146.48   12.90
   6 -11 -11  150.69   13.64
   6 -11  11  134.93   12.15
  -6 -11  11  130.20   11.63
  -6  11  12   15.58    4.40
   6  11  12    2.60    2.58
   6 -11 -12   21.07    5.79
   6 -11  12   10.45    5.18
  -6 -11  12   17.38    5.83
  -6  11  13  120.72   19.66
   6  11  13  108.47   18.62
   6 -11 -13   87.87   20.63
   6 -11  13  139.21   34.10
  -6 -11  13  135.48   33.95
  -6  11  14    9.65    3.71
   6  11  14   14.87    5.22
   6 -11 -14    9.37    3.48
   6 -11  14    1.51    3.36
  -6 -11  14   23.89    7.16
  -6  11  15   44.19   10.16
   6  11  15   53.16   12.81
   6 -11 -15   41.57    9.04
   6 -11  15   55.98   12.48
  -6 -11  15   64.02   12.92
  -6  11  16    6.76    3.57
   6  11  16    8.62    3.93
   6 -11 -16    2.87    2.30
   6 -11  16    9.46    4.86
  -6 -11  16   16.20    5.67
  -6  12   0   21.50    5.47
   6  12   0   27.77    6.08
  -6 -12   0   31.59    6.26
  -6  12  -1   34.49    7.41
  -6  12   1   37.13    6.62
   6  12  -1   45.74    6.84
   6  12   1   32.41    6.92
   6 -12  -1   30.69    6.84
   6 -12   1   31.74    7.40
  -6 -12  -1   44.51    7.42
  -6 -12   1   25.30    5.08
  -6  12  -2   31.25    6.80
  -6  12   2   64.35    8.78
   6  12  -2   47.26    9.10
   6  12   2   18.38    4.49
   6 -12  -2   27.70    6.73
  -6 -12  -2   62.93    8.01
   6 -12   2   56.98    8.13
  -6 -12   2   32.29    6.92
  -6  12  -3   -2.37    2.05
  -6  12   3   -1.13    2.56
   6  12  -3    0.66    1.01
   6  12   3    8.95    4.50
   6 -12  -3   -2.09    2.90
  -6 -12  -3    1.19    1.10
   6 -12   3    8.60    4.39
  -6 -12   3    0.55    1.98
  -6  12  -4  168.46   12.06
   6  12  -4  161.24   13.04
   6  12   4  175.59   12.28
   6 -12  -4  166.25   11.67
  -6 -12  -4  154.66    9.98
   6 -12   4  157.06   11.44
  -6 -12   4  177.71   13.40
  -6  12  -5   33.57    6.43
  -6  12   5   18.01    4.92
   6  12  -5   21.35    4.91
   6  12   5   21.22    5.11
  -6 -12  -5    8.71    2.44
   6 -12  -5   38.08    8.26
   6 -12   5   25.09    6.51
  -6 -12   5   27.98    5.73
  -6  12  -6   41.66    5.85
  -6  12   6   42.51    8.09
   6  12  -6   43.82    6.76
   6  12   6   50.28    7.42
   6 -12  -6   57.71    9.39
   6 -12   6   22.06    6.16
  -6 -12   6   42.89    6.28
  -6  12  -7    4.61    2.82
  -6  12   7    8.47    2.82
   6  12  -7    2.88    1.66
   6  12   7    2.37    1.51
   6 -12  -7   12.81    5.19
   6 -12   7    9.07    5.31
  -6 -12   7    5.16    2.73
  -6  12  -8   42.53    8.60
  -6  12   8   21.53    5.81
   6  12   8   38.33    8.52
   6 -12  -8   28.04    5.90
   6 -12   8   33.83    6.63
  -6 -12   8   36.65    6.95
  -6  12  -9    3.38    1.38
  -6  12   9    3.88    2.78
   6  12   9    3.87    2.58
   6 -12  -9    9.01    3.43
   6 -12   9    3.36    3.44
  -6 -12   9   11.00    4.18
  -6  12 -10   -0.63    1.12
  -6  12  10    3.42    2.11
   6  12  10   14.32    4.46
   6 -12 -10    1.71    3.06
   6 -12  10    8.04    2.79
  -6 -12  10    7.04    4.26
  -6  12  11    0.57    2.69
   6  12  11    7.25    4.23
   6 -12 -11    4.62    2.88
   6 -12  11    8.03    5.18
  -6 -12  11    3.44    2.72
  -6  12  12   -1.93    2.68
   6  12  12   10.35    4.88
   6 -12 -12    2.90    2.78
   6 -12  12    5.34    3.76
  -6 -12  12    2.93    2.91
  -6  12  13    8.30    3.26
   6  12  13    6.20    2.86
   6 -12 -13    6.54    3.98
   6 -12  13    9.58    3.94
  -6 -12  13    5.89    2.73
  -6  12  14    1.49    2.80
   6  12  14    1.33    3.14
   6 -12 -14    0.98    2.61
   6 -12  14    3.98    3.45
  -6 -12  14   -1.09    2.92
  -6  12  15    1.51    1.73
   6  12  15   13.16    6.34
   6 -12 -15    0.24    2.54
   6 -12  15   -1.26    3.28
  -6 -12  15    5.52    4.30
  -6  13   0    4.71    3.02
   6  13   0    9.48    3.25
   6 -13   0    9.33    4.26
  -6 -13   0    4.38    2.06
  -6  13  -1   17.36    4.29
  -6  13   1   21.07    5.69
   6  13   1   21.35    5.18
   6  13  -1    8.27    3.52
   6 -13  -1   15.03    5.35
  -6 -13  -1   13.64    2.76
  -6 -13   1   16.26    3.65
  -6  13  -2   20.40    4.63
  -6  13   2   16.68    5.42
   6  13  -2   21.12    4.47
   6  13   2   11.39    4.03
   6 -13  -2   12.66    4.16
  -6 -13  -2   21.88    4.34
  -6 -13   2   25.30    5.09
  -6  13  -3   13.82    3.98
  -6  13   3   26.00    6.42
   6  13  -3   19.52    5.48
   6  13   3   18.87    5.50
   6 -13  -3   11.63    3.68
  -6 -13  -3   18.93    4.51
   6 -13   3   12.28    4.55
  -6 -13   3   12.94    3.91
  -6  13  -4   14.62    4.12
  -6  13   4   10.58    3.22
   6  13  -4   13.07    3.86
   6  13   4   26.80    7.60
   6 -13  -4   12.58    3.66
  -6 -13  -4   11.63    2.95
   6 -13   4   29.67    7.08
  -6 -13   4   27.11    6.38
  -6  13  -5    1.15    0.96
  -6  13   5    5.78    2.72
   6  13  -5   -0.04    1.37
   6  13   5    5.04    2.95
   6 -13  -5    3.63    2.87
   6 -13   5    8.34    4.22
  -6 -13   5    1.05    2.11
  -6  13  -6   24.94    5.57
  -6  13   6   34.00    8.61
   6  13  -6   33.16    6.48
   6  13   6   26.64    5.55
   6 -13  -6   27.10    6.23
   6 -13   6   34.16    7.42
  -6 -13   6   37.15    6.93
  -6  13  -7    7.41    2.10
  -6  13   7   10.44    4.07
   6  13  -7    5.39    1.89
   6  13   7    7.12    2.84
   6 -13  -7   11.74    3.93
   6 -13   7   20.41    5.76
  -6 -13   7    5.64    2.69
  -6  13  -8   17.77    3.78
  -6  13   8   11.75    4.61
   6  13   8   15.33    5.24
   6 -13  -8   18.16    4.34
   6 -13   8    9.94    4.36
  -6 -13   8    6.97    2.92
  -6  13  -9   27.93    7.39
  -6  13   9   33.28    5.32
   6  13   9   41.42    5.46
   6 -13  -9   26.54    6.95
   6 -13   9   30.95    8.47
  -6 -13   9   40.53    4.86
  -6  13  10   26.21    6.27
   6  13  10   36.44    8.42
   6 -13 -10   12.88    3.97
   6 -13  10   31.34    7.74
  -6 -13  10   50.65    7.78
  -6  13  11   55.31   11.76
   6  13  11   80.82   13.90
   6 -13 -11   52.79    8.75
   6 -13  11   53.34    9.76
  -6 -13  11   79.51   13.53
  -6  13  12    4.72    3.01
   6  13  12    8.22    3.20
   6 -13 -12    3.20    2.95
   6 -13  12   11.64    5.26
  -6 -13  12   11.34    4.87
  -6  13  13   24.94    5.88
   6  13  13   27.91    7.02
   6 -13 -13   24.28    6.76
   6 -13  13   28.85    6.65
  -6 -13  13   33.01    7.69
  -6  13  14    4.80    2.44
   6  13  14    6.44    3.21
   6 -13 -14    6.21    3.02
   6 -13  14    6.63    3.75
  -6 -13  14    3.96    2.98
  -6  14   0   31.87    6.60
   6  14   0   36.74    7.10
   6 -14   0   24.97    6.44
  -6 -14   0   32.69    5.87
  -6  14  -1  114.52   17.65
  -6  14   1  103.97   16.53
   6  14  -1  125.72   10.91
   6  14   1  110.27   13.76
   6 -14  -1  142.64   12.24
   6 -14   1  102.66   19.03
  -6 -14  -1  114.52   12.71
  -6 -14   1  114.05   13.73
  -6  14  -2   33.15    6.32
  -6  14   2   22.23    6.21
   6  14  -2   24.23    6.83
   6  14   2   32.55    6.73
   6 -14  -2   27.80    8.40
  -6 -14  -2   21.49    4.77
   6 -14   2   35.91    7.23
  -6 -14   2   33.29    6.09
  -6  14  -3   28.52    5.92
  -6  14   3   17.30    4.80
   6  14  -3   15.81    4.69
   6  14   3   22.21    6.22
   6 -14  -3   19.98    6.42
  -6 -14  -3   15.09    3.65
  -6 -14   3   16.86    4.22
  -6  14  -4   66.18    9.55
  -6  14   4   54.62    9.78
   6  14  -4   54.95    7.26
   6  14   4   47.04    7.87
   6 -14  -4   43.72    8.33
  -6 -14   4   53.92    6.64
  -6  14  -5   16.47    5.50
  -6  14   5   26.67    6.11
   6  14  -5   19.61    4.70
   6  14   5    6.55    2.96
   6 -14  -5   16.31    4.95
   6 -14   5   14.59    4.99
  -6 -14   5   16.74    4.70
  -6  14  -6   28.34    8.31
  -6  14   6   17.78    5.35
   6  14  -6   22.23    6.37
   6  14   6   38.74    5.83
   6 -14  -6   16.87    5.47
   6 -14   6   20.84    6.11
  -6 -14   6   42.91    5.17
  -6  14  -7   13.49    4.15
  -6  14   7   11.26    4.67
   6  14   7   10.95    5.31
   6 -14  -7   19.16    6.38
   6 -14   7    5.69    2.71
  -6 -14   7   18.15    5.39
  -6  14  -8   20.05    4.69
  -6  14   8   21.24    5.21
   6 -14  -8   36.91    8.14
   6 -14   8   10.66    4.60
  -6 -14   8   31.56    6.66
  -6  14   9   25.66    6.69
   6  14   9   35.20    6.95
   6 -14   9   30.83    8.49
  -6 -14   9   48.36    8.25
  -6  14  10   11.04    4.41
   6  14  10   14.49    4.99
   6 -14 -10   10.55    4.57
   6 -14  10   13.02    5.90
  -6 -14  10    6.55    2.87
  -6  14  11   45.96    9.19
   6  14  11   38.54    9.29
   6 -14 -11   15.12    5.25
   6 -14  11   31.05    7.86
  -6 -14  11   43.29    7.62
  -6  14  12    7.31    4.16
   6  14  12   24.98    5.93
   6 -14 -12   12.02    5.17
   6 -14  12    5.94    4.78
  -6 -14  12   10.92    5.12
  -6  14  13   29.72    8.79
   6  14  13   18.93    6.00
   6 -14 -13   24.38    6.72
   6 -14  13   20.71    5.84
  -6 -14  13   16.71    5.46
  -6  15   0  113.66   16.09
   6  15   0  106.53   14.30
   6 -15   0  105.65    9.14
  -6 -15   0   99.96    7.65
  -6  15  -1   45.08    9.51
  -6  15   1   34.61    6.17
   6  15  -1   30.99    8.83
   6  15   1   39.99    5.86
   6 -15  -1   39.33    5.25
   6 -15   1   37.34    5.45
  -6 -15  -1   42.81    4.33
  -6 -15   1   43.29    4.51
  -6  15  -2   52.40    5.62
  -6  15   2   51.62    7.31
   6  15  -2   54.52    6.28
   6  15   2   54.30    7.73
   6 -15  -2   46.55    8.05
   6 -15   2   48.37    5.67
  -6 -15   2   43.55    4.18
  -6  15  -3   31.78    5.61
  -6  15   3   35.14    5.62
   6  15  -3   21.72    6.13
   6  15   3   29.64    7.67
   6 -15  -3   35.85    7.49
   6 -15   3   29.47    8.81
  -6 -15   3   42.54    4.47
  -6  15  -4   21.82    6.32
  -6  15   4   11.33    4.48
   6  15  -4   26.75    7.06
   6  15   4   28.46    7.96
   6 -15  -4   18.39    6.54
  -6 -15   4   18.04    5.06
  -6  15  -5   39.09    7.54
  -6  15   5   27.25    7.11
   6  15  -5   19.10    4.76
   6  15   5   23.86    5.94
   6 -15  -5   15.26    5.37
   6 -15   5   23.38    6.51
  -6 -15   5   17.96    4.82
  -6  15  -6    7.60    2.67
   6  15   6    7.72    3.86
   6 -15  -6    7.41    3.53
   6 -15   6   19.15    5.97
  -6 -15   6    9.89    3.40
  -6  15  -7   14.73    4.12
  -6  15   7    8.64    4.00
   6  15   7   25.17    6.50
   6 -15  -7   15.66    5.25
   6 -15   7   15.03    5.40
  -6 -15   7   20.27    5.96
  -6  15  -8   10.31    3.02
  -6  15   8   19.60    7.45
   6  15   8    8.31    3.39
   6 -15  -8   11.75    4.82
   6 -15   8    8.38    3.27
  -6 -15   8   15.88    4.83
  -6  15   9   42.79    8.11
   6 -15   9   36.85    7.49
  -6 -15   9   42.30    7.39
  -6  15  10   28.42    6.43
   6  15  10   29.10    7.06
   6 -15  10   10.40    4.45
  -6 -15  10   40.28    8.71
  -6  15  11   24.25    6.86
   6 -15  11   29.22    7.88
  -6 -15  11   33.54    8.67
  -6  16   0   15.37    4.83
   6  16   0   14.58    4.35
   6 -16   0   13.53    4.46
  -6 -16   0   10.78    3.04
  -6  16  -1   89.49   14.02
  -6  16   1   69.21   12.36
   6  16  -1   65.08   11.33
   6  16   1   80.73   14.16
   6 -16  -1   63.43   15.97
   6 -16   1   59.70   14.84
  -6 -16   1   54.48   10.31
  -6  16  -2    3.63    2.11
  -6  16   2    6.84    3.21
   6  16  -2    3.68    2.08
   6  16   2    6.43    2.79
   6 -16  -2    3.59    3.35
   6 -16   2   21.82    7.46
  -6 -16   2    2.67    1.85
  -6  16  -3   35.39    6.76
  -6  16   3   38.06    8.89
   6  16  -3   35.30    7.10
   6  16   3   35.78    6.32
   6 -16  -3   38.73    8.30
   6 -16   3   39.67    7.46
  -6 -16   3   54.01    8.62
  -6  16  -4    7.03    2.59
  -6  16   4    2.93    2.60
   6  16  -4   -0.37    1.61
   6  16   4    5.88    2.10
   6 -16  -4    4.24    3.01
   6 -16   4    5.88    3.63
  -6 -16   4    4.18    2.94
  -6  16  -5   12.22    3.98
  -6  16   5   17.61    5.29
   6  16   5    4.93    2.05
   6 -16  -5    5.23    4.24
  -6 -16   5   14.72    4.98
  -6  16  -6    3.19    1.97
  -6  16   6    3.44    1.81
   6  16   6    5.88    3.10
   6 -16  -6    2.31    2.15
   6 -16   6   14.08    6.51
  -6 -16   6    5.37    2.96
  -6  16  -7    4.35    1.83
  -6  16   7   11.32    4.80
   6  16   7    0.74    2.96
   6 -16  -7    2.11    2.66
   6 -16   7    1.57    3.72
  -6 -16   7    2.50    3.26
  -6  16   8   19.64    5.42
   6  16   8   22.89    6.01
   6 -16  -8    7.91    4.26
   6 -16   8   13.94    4.65
  -6 -16   8    7.70    3.04
  -6  16   9   19.28    5.77
   6  16   9   14.30    5.43
   6 -16  -9   10.96    4.10
   6 -16   9   10.61    3.89
  -6 -16   9   23.41    5.90
  -6  17   0   14.74    4.79
   6  17   0   39.47    6.38
   6 -17   0   26.38    5.42
  -6  17  -1   17.36    4.93
  -6  17   1   13.46    5.03
   6  17  -1    5.60    1.78
   6  17   1    8.82    4.26
   6 -17  -1   11.97    4.17
   6 -17   1   16.79    5.40
  -6  17  -2   19.70    5.38
  -6  17   2   19.19    5.60
   6  17  -2   12.71    4.06
   6  17   2    3.36    2.56
   6 -17  -2   13.24    4.80
   6 -17   2   14.35    5.79
  -6 -17   2   21.55    4.59
  -6  17  -3   13.77    3.92
  -6  17   3   11.40    3.45
   6  17  -3    9.16    3.12
   6  17   3   -0.14    2.44
   6 -17  -3    5.08    4.24
   6 -17   3    5.11    3.56
  -6 -17   3    7.27    3.22
  -6  17  -4   11.28    3.35
  -6  17   4   12.67    4.34
   6  17  -4    1.71    1.63
   6  17   4    6.68    3.01
   6 -17  -4    9.69    4.44
   6 -17   4   10.61    3.84
  -6 -17   4   19.11    5.80
  -6  17  -5   16.73    4.40
  -6  17   5   38.60    9.86
   6  17   5   30.77    7.23
   6 -17  -5   20.57    5.38
   6 -17   5   19.13    5.45
  -6 -17   5   21.51    4.67
  -6  17  -6    3.42    2.43
  -6  17   6   12.80    4.87
   6  17   6    4.62    2.82
   6 -17  -6    4.96    3.04
   6 -17   6    1.79    3.23
  -6 -17   6    2.07    2.52
  -6  17   7    8.48    3.72
   6  17   7    6.70    4.22
   6 -17  -7   11.27    4.63
  -6 -17   7   11.01    4.61
  -6  18   0    4.79    3.23
   6  18   0    7.49    3.68
   6 -18   0    6.27    4.84
  -6  18  -1    3.44    2.49
  -6  18   1   18.09    6.83
   6  18  -1    6.91    3.62
   6  18   1   14.85    4.91
   6 -18  -1    9.38    4.67
   6 -18   1   14.83    4.65
  -6  18  -2   15.90    4.71
  -6  18   2   14.00    5.58
   6  18  -2   14.09    5.32
   6  18   2   12.14    4.79
   6 -18  -2    5.21    3.26
   6 -18   2    8.38    3.92
  -6  18  -3    1.90    1.29
  -6  18   3    5.66    3.13
   6  18  -3    3.25    1.83
   6  18   3    3.27    1.69
   6 -18  -3   14.70    5.33
   6 -18   3    6.93    3.59
  -6  18  -4    6.56    1.87
  -6  18   4   10.47    4.25
   6  18   4    2.48    2.77
   6 -18  -4   12.89    4.52
   6 -18   4    7.79    4.89
  -6 -18   4    1.17    2.02
  -7   0   0    1.37    1.45
   7   0   0    0.95    1.26
  -7   0   0    0.61    0.56
  -7   0  -1  403.71   12.74
  -7   0   1  393.54   12.03
   7   0  -1  398.13   12.28
   7   0   1  398.68   11.52
  -7   0   1  390.61   11.29
  -7   0  -1  386.14   11.03
   7   0  -2  701.41   19.93
  -7   0   2  637.78   17.94
   7   0   2  716.63   19.95
  -7   0  -2  679.45   18.81
  -7   0   3  484.10   14.38
   7   0  -3  481.47   14.23
   7   0   3  470.56   13.33
  -7   0  -3  475.18   13.31
  -7   0  -4    3.50    0.87
  -7   0   4    3.59    1.22
   7   0  -4    1.84    1.85
   7   0   4    5.68    1.52
  -7   0  -4    6.71    1.30
  -7   0  -5  470.25   14.73
  -7   0   5  459.75   14.44
   7   0  -5  466.00   14.83
   7   0   5  473.42   14.98
  -7   0  -5  449.93   13.51
  -7   0  -6  350.61   11.42
  -7   0   6  326.91   11.15
   7   0   6  306.72    9.38
   7   0  -6  342.68   11.59
   7   0   6  334.58   10.34
  -7   0  -7  264.79   16.29
  -7   0   7  245.30   10.58
   7   0   7  256.38   10.50
   7   0  -7  264.07   11.76
   7   0   7  256.72   11.19
  -7   0  -8  155.51   15.41
  -7   0   8  148.93   15.73
   7   0   8  118.11   10.38
   7   0  -8  145.02   11.72
   7   0   8  147.39   11.46
  -7   0  -9  143.77   13.61
  -7   0   9  143.44   12.26
   7   0  -9  150.72   12.34
   7   0   9  144.19   11.83
  -7   0 -10    4.30    1.25
  -7   0  10    5.24    2.02
   7   0 -10    5.24    2.00
   7   0  10    3.76    1.96
  -7   0 -11   54.42    9.90
  -7   0  11   49.37    8.47
   7   0 -11   43.82    9.33
   7   0  11   42.32    6.51
  -7   0 -12    8.10    2.82
  -7   0  12    0.50    1.22
   7   0 -12    1.02    2.91
   7   0  12    0.82    1.89
  -7   0 -13   18.16    3.99
  -7   0  13   11.94    3.80
   7   0 -13   14.81    3.70
   7   0  13    7.14    3.34
  -7   0  14   17.13    4.25
   7   0  14   14.02    3.76
   7   0 -14   25.26    6.91
   7   0  14   17.31    4.38
   7   0  15   23.42    5.31
   7   0 -15   31.27    6.10
   7   0  15   31.10    6.00
   7   0  16    4.16    2.42
   7   0 -16    5.51    1.98
   7   0  16    2.45    2.05
   7   0  17    4.02    1.78
   7   0  17    8.04    3.88
   7   0 -18   14.65    5.62
   7   0 -19    3.86    3.00
  -7  -1   0  131.18    9.95
  -7   1   0  109.08    6.89
   7   1   0  126.79    7.41
   7  -1   0  106.72    6.48
  -7  -1   0  112.05    6.98
  -7   1   0  103.92    6.17
  -7  -1  -1  565.14   16.46
  -7  -1   1  569.45   16.54
  -7   1  -1  497.62   14.73
  -7   1   1  565.79   16.61
   7   1  -1  566.66   16.19
   7   1   1  578.35   16.25
   7  -1  -1  591.58   16.96
  -7  -1   1  557.81   15.67
   7  -1   1  570.15   16.17
  -7   1   1  564.73   15.98
  -7  -1  -1  566.92   15.77
  -7   1  -1  577.75   16.24
  -7  -1  -2  815.72   23.18
  -7   1  -2  788.93   22.99
  -7  -1   2  783.78   22.30
  -7   1   2  799.60   22.77
   7  -1  -2  794.62   22.43
   7   1   2  784.23   21.70
  -7  -1   2  730.93   20.43
   7  -1   2  817.33   22.80
  -7  -1  -2  783.58   21.58
  -7   1  -2  741.31   20.56
  -7  -1  -3  149.42   11.04
  -7  -1   3  124.34   10.31
   7   1  -3  124.45    7.57
   7  -1  -3  118.90    7.27
  -7  -1   3   95.70   10.53
   7   1   3  103.58    5.99
   7  -1   3  133.76    8.13
  -7   1  -3  110.67    7.22
  -7  -1  -3  126.55    7.09
  -7  -1   4   90.13    9.48
  -7   1   4  101.13    9.43
   7   1  -4   84.73    6.71
   7  -1  -4   77.88    9.42
   7   1   4   77.35    8.94
   7  -1   4   92.69    8.44
  -7   1  -4   70.48    8.78
  -7  -1  -4   84.43    7.00
  -7  -1  -5   10.86    2.05
  -7   1  -5   17.19    3.01
  -7  -1   5   17.96    2.94
  -7   1   5   14.85    2.96
   7   1  -5    7.18    1.97
   7  -1  -5   26.09    4.82
   7   1   5   21.46    3.64
   7  -1   5   11.51    2.39
  -7   1  -5   15.45    2.27
  -7  -1  -6   31.36    5.49
  -7   1  -6   39.07    6.65
  -7  -1   6   42.82    6.46
  -7   1   6   35.71    5.02
   7   1   6   35.75    5.30
   7   1  -6   34.85    6.05
   7  -1  -6   32.15    4.66
   7   1   6   39.07    5.77
   7  -1   6   37.63    5.32
  -7   1  -6   34.69    4.65
  -7  -1  -7    2.26    0.96
  -7   1  -7    6.79    1.79
  -7  -1   7    4.05    1.18
  -7   1   7    5.09    1.68
   7  -1   7    1.38    0.56
   7   1   7    3.21    0.66
   7   1  -7    6.67    2.38
   7  -1  -7    4.86    3.04
   7   1   7    1.85    1.38
   7  -1   7    6.64    2.35
  -7  -1  -8   13.83    4.16
  -7   1  -8    5.16    1.84
  -7  -1   8    5.12    1.83
  -7   1   8   13.25    3.98
   7   1   8    3.88    1.36
   7   1  -8    8.68    3.13
   7  -1  -8   14.15    4.91
   7  -1   8    5.21    1.92
   7   1   8    9.98    3.27
  -7  -1  -9  111.50   10.07
  -7   1  -9   92.15    8.28
  -7  -1   9   90.19   15.72
  -7   1   9  101.57    8.39
   7   1   9   69.31   10.54
   7   1  -9  107.02   14.93
   7  -1  -9  102.31    8.93
   7  -1   9  100.14   11.65
   7   1   9   78.18   10.77
  -7  -1 -10   30.43    6.24
  -7   1 -10   21.53    4.39
  -7  -1  10   23.32    4.74
  -7   1  10   30.82    5.95
   7   1  10   11.63    2.65
   7   1 -10   25.90    7.04
   7  -1 -10   24.98    5.79
   7  -1  10   24.85    4.80
   7   1  10   21.82    4.74
  -7  -1 -11  141.39   10.50
  -7   1 -11  101.51   16.53
  -7  -1  11  101.25   16.18
  -7   1  11  144.83   11.72
   7   1 -11  175.15   16.22
   7  -1 -11   98.46   17.95
   7  -1  11  138.06    7.79
   7   1  11  101.91   15.11
  -7  -1 -12   33.66    7.88
  -7   1 -12   11.38    3.57
  -7  -1  12   13.26    3.67
  -7   1  12   35.54    7.55
   7   1 -12   22.13    7.05
   7  -1 -12   14.96    4.60
   7  -1  12   28.00    5.84
  -7   1 -13  138.65   12.90
  -7  -1  13  153.19   11.70
  -7   1  13  192.19   13.83
   7   1  13  139.94   13.67
   7   1 -13  204.85   24.94
   7  -1 -13  168.14   21.82
   7  -1  13  172.10   11.29
   7   1  13  151.60   10.36
  -7   1 -14   77.58    7.17
  -7  -1  14   70.45    7.83
  -7   1  14  101.62    6.70
   7   1  14   82.74   10.63
   7   1 -14  107.34   14.72
   7  -1 -14   88.78   12.15
   7  -1  14   93.21    6.15
   7   1  14   82.45    5.59
  -7   1  15  116.99   10.34
   7   1  15   97.50   10.19
   7  -1  15  106.64    8.64
   7   1 -15  102.35   16.46
   7  -1 -15   90.44   13.34
   7  -1  15  112.70    9.89
   7   1  15   92.77   11.26
   7   1  16   21.15    5.49
   7  -1  16   42.71    4.48
   7   1 -16   42.33    7.12
   7  -1  16   35.22    4.01
   7   1  16   23.77    6.38
   7   1  17   20.64    5.21
   7  -1  17   29.69    6.78
   7   1 -17   43.58   10.66
   7  -1 -17   27.00    8.34
   7  -1  17   24.14    5.92
   7   1  17   28.87    6.83
   7   1  18    7.85    2.14
   7  -1 -18    7.75    2.55
   7  -1  18    5.01    2.36
   7   1 -19   13.99    5.49
   7  -1 -19    4.16    1.82
  -7  -2   0  127.18    8.86
  -7   2   0  117.39    7.33
   7   2   0  120.90    6.99
   7  -2   0  126.97    7.56
  -7  -2   0  109.20    6.22
  -7   2   0  112.27    6.48
  -7  -2  -1  185.77   13.96
  -7   2   1  158.22    9.45
   7   2  -1  161.08    9.24
   7   2   1  132.21    7.48
  -7  -2   1  145.68    8.22
   7  -2  -1  141.55    8.40
   7  -2   1  172.18    9.94
  -7  -2  -1  177.15    9.87
  -7   2  -1  134.60    7.82
  -7  -2  -2  289.62   19.25
  -7  -2   2  227.07   15.88
  -7   2   2  256.93   14.77
   7   2  -2  248.52   14.37
   7   2   2  198.09   10.95
  -7  -2   2  193.17   10.84
   7  -2  -2  201.05   11.55
  -7  -2  -2  244.90   13.44
  -7   2  -2  197.33   11.09
  -7  -2  -3  368.31   16.37
  -7  -2   3  396.77   13.30
  -7   2  -3  371.77   12.02
  -7   2   3  335.36   11.18
   7   2  -3  373.62   11.93
   7   2   3  349.93   10.45
  -7  -2   3  361.03   11.28
   7  -2   3  362.89   11.46
  -7   2  -3  362.75   11.12
  -7  -2  -3  353.54   10.47
  -7  -2  -4  222.13   18.70
  -7  -2   4  155.93   12.47
  -7   2  -4  154.17   11.40
  -7   2   4  195.62   14.35
   7   2  -4  216.00   15.64
   7  -2  -4  152.78   12.01
   7   2   4  151.17   10.66
   7  -2   4  226.10   16.29
  -7   2  -4  144.80   11.03
  -7  -2  -4  213.31   15.10
  -7   2  -5  201.18   16.58
  -7  -2   5  205.72   15.71
  -7   2   5  233.66   16.93
   7   2  -5  228.54   16.30
   7   2   5  171.30   12.18
   7   2  -5  247.59   28.36
   7  -2  -5  204.64   15.19
   7   2   5  194.84   13.73
   7  -2   5  251.78   29.06
  -7   2  -5  186.88   13.34
  -7  -2  -6  321.92   14.91
  -7   2  -6  268.97   11.78
  -7  -2   6  271.17   11.47
  -7   2   6  300.35   13.57
   7   2  -6  284.57   11.77
   7   2   6  236.78   16.61
   7   2  -6  310.57   13.36
   7  -2  -6  279.58   12.22
   7   2   6  265.14    8.05
   7  -2   6  299.20    9.70
  -7  -2  -7  369.35   18.04
  -7   2  -7  389.93   20.24
  -7  -2   7  354.63   14.62
  -7   2   7  344.17   14.98
   7   2  -7  329.62   13.52
   7   2  -7  354.74   15.20
   7   2   7  326.11   13.15
   7  -2  -7  406.73   17.34
   7   2   7  381.71   15.29
   7  -2   7  362.15   15.07
  -7  -2  -8  289.36   18.91
  -7   2  -8  251.67   14.98
  -7  -2   8  247.76   14.94
  -7   2   8  291.10   15.46
   7   2  -8  259.32   13.29
   7   2  -8  288.63   15.38
   7   2   8  209.19   10.73
   7  -2  -8  248.56   13.54
   7   2   8  233.87   11.99
   7  -2   8  281.21   14.69
  -7  -2  -9  191.15   33.85
  -7   2  -9  175.43   13.68
  -7  -2   9  169.89    9.34
  -7   2   9  193.27   12.74
   7   2  -9  155.84    7.62
   7   2  -9  161.97   16.18
   7   2   9  165.64   13.33
   7  -2  -9  176.10   10.03
   7  -2   9  179.17    9.16
   7   2   9  176.70   13.56
  -7  -2 -10   44.13    7.74
  -7   2 -10   36.00    5.48
  -7  -2  10   27.10    5.48
  -7   2  10   49.91    7.85
   7   2 -10   20.01    5.23
   7   2 -10   34.68    8.33
   7   2  10   26.12    4.81
   7  -2 -10   24.29    5.22
   7  -2  10   42.48    5.28
   7   2  10   32.52    5.71
  -7  -2 -11  138.79   10.05
  -7   2 -11  139.61   12.33
  -7  -2  11  125.76   32.75
  -7   2  11  122.79   20.35
   7   2 -11  107.81   15.21
   7   2 -11  133.22   15.77
   7  -2 -11  119.84   17.31
   7   2  11  100.11   14.39
   7  -2  11  142.80    8.41
   7   2  11  125.61   31.63
  -7   2 -12   42.13    8.85
  -7   2  12   29.65    6.55
   7   2  12   41.54   10.35
   7   2 -12   33.50    8.79
   7  -2 -12   49.10    6.24
   7  -2  12   27.93    5.80
   7   2  12   41.74    8.25
  -7   2 -13   57.97    7.91
  -7  -2  13   43.76    6.01
  -7   2  13   58.04    7.71
   7   2  13   54.59    7.77
   7   2 -13   43.10   10.35
   7  -2 -13   51.75    8.18
   7  -2  13   52.98    5.79
   7   2  13   62.38    7.60
  -7   2 -14   16.13    4.30
  -7   2  14   23.89    5.74
   7   2  14   16.50    4.92
   7   2 -14   24.58    6.43
   7  -2  14   26.61    6.32
   7   2  14   17.32    4.44
  -7   2  15   33.87    6.40
   7   2  15   48.72    7.78
   7   2 -15   47.28    8.52
   7  -2  15   39.64    6.73
   7   2  15   42.71    6.77
   7   2  16   23.77    6.16
   7  -2  16   25.32    7.95
   7   2 -16   13.33    4.79
   7  -2 -16   32.17    7.79
   7  -2  16   25.25    6.36
   7   2  16   11.98    3.40
   7   2  17    3.46    1.93
   7   2 -17    8.85    2.45
   7  -2 -17   20.72    6.02
   7  -2  17   14.27    5.05
   7   2  18    4.13    2.42
   7   2 -18    8.70    3.07
   7  -2 -18    6.18    2.43
   7  -2  18    6.50    2.35
   7   2 -19   13.77    4.65
   7  -2 -19    7.87    3.01
   7  -2  19    8.12    3.49
  -7   3   0  581.64   18.28
   7   3   0  548.86   15.41
  -7  -3   0  568.84   15.83
   7  -3   0  630.49   18.16
  -7  -3  -1  123.62    8.68
  -7  -3   1  132.40   10.16
  -7   3  -1  122.53    8.70
  -7   3   1  124.60   10.16
   7   3   1  109.91    6.55
   7   3  -1   98.61   12.74
  -7  -3   1  109.72    6.64
   7  -3  -1  128.08    7.82
  -7  -3  -1  118.93    6.64
   7  -3   1  121.77    7.45
  -7  -3  -2  445.51   15.71
  -7  -3   2  410.15   17.76
  -7   3  -2  410.64   13.04
  -7   3   2  442.66   14.21
   7   3  -2  422.30   13.03
  -7  -3   2  393.32   12.05
   7  -3   2  451.87   14.07
  -7  -3  -2  446.97   13.13
  -7  -3  -3   82.06    8.09
  -7  -3   3   74.33   10.42
  -7   3  -3   65.29    8.46
   7   3   3   47.67    5.89
   7   3  -3   74.71   10.56
  -7  -3   3   71.20    9.08
   7  -3  -3   67.97    8.76
   7  -3   3   84.10    6.91
  -7  -3  -3   72.38    8.84
  -7  -3  -4  145.01   14.39
  -7  -3   4  116.53   10.40
  -7   3  -4  129.75    9.79
  -7   3   4  114.71   10.28
   7   3  -4  119.52   11.99
   7  -3  -4  120.72    9.58
   7  -3   4  116.46    8.88
  -7  -3  -5   28.83    4.74
  -7  -3   5   22.58    3.62
  -7   3  -5   21.46    3.64
   7   3  -5   18.86    2.97
  -7   3   5   32.57    5.65
   7   3  -5   32.71    6.27
   7  -3  -5   23.96    3.99
   7  -3   5   32.21    5.14
  -7  -3  -6  226.07   14.22
  -7  -3   6  215.37   11.49
  -7   3  -6  221.50    9.76
   7   3  -6  200.79    8.50
  -7   3   6  216.14    9.88
   7   3  -6  220.42   10.32
   7   3   6  177.32    7.05
   7  -3  -6  227.04   10.36
   7   3   6  213.89    8.48
   7  -3   6  213.60    9.47
  -7  -3  -7   46.91    6.99
  -7   3  -7   61.71    8.46
  -7  -3   7   51.23    6.87
  -7   3   7   41.38    5.57
   7   3  -7   38.43    4.88
   7   3  -7   42.75    7.87
   7   3   7   34.87    4.28
   7  -3  -7   48.43    6.39
   7   3   7   48.88    6.50
   7  -3   7   47.67    7.47
  -7  -3  -8  417.96   25.23
  -7   3  -8  406.43   23.99
  -7  -3   8  369.66   19.45
  -7   3   8  400.78   20.87
   7   3  -8  356.03   18.05
   7   3  -8  407.65   21.19
   7   3   8  312.55   15.73
   7  -3  -8  404.14   23.01
   7  -3   8  388.99   20.08
   7   3   8  385.73   19.46
  -7  -3  -9  124.84   14.49
  -7   3  -9  132.99    9.40
  -7  -3   9  121.72   14.84
  -7   3   9  139.48   15.22
   7   3  -9   99.75   11.74
   7   3  -9  120.02   20.00
   7  -3  -9  144.74    8.76
   7   3   9  107.82   11.38
   7  -3   9  132.67    7.28
   7   3   9  127.28    6.22
  -7  -3 -10  193.25   12.68
  -7   3 -10  190.38   13.91
  -7  -3  10  169.36   11.02
  -7   3  10  186.66   16.17
   7   3 -10  150.99    7.83
   7   3 -10  179.01   17.75
   7  -3 -10  189.78   10.86
   7   3  10  152.47    9.94
   7  -3  10  183.49   10.11
   7   3  10  170.97    9.39
  -7   3 -11   15.48    3.29
  -7  -3  11   12.88    3.48
  -7   3  11   31.17    6.51
   7   3 -11   16.31    3.99
   7   3  11   13.47    4.72
   7   3 -11   32.55    7.58
   7  -3 -11   18.23    4.64
   7   3  11    7.58    2.16
   7  -3  11   31.59    7.40
   7   3  11    9.84    2.99
  -7   3 -12  140.60    9.36
  -7  -3  12  126.11    8.98
  -7   3  12  157.69   13.10
   7   3  12  143.35    8.98
   7   3 -12  163.50   12.63
   7  -3 -12  149.19    9.54
   7  -3  12  156.36    9.07
   7   3  12  153.29    8.41
  -7   3 -13   61.57    8.67
  -7   3  13   59.28    8.43
   7   3  13   57.35    9.35
   7   3 -13   43.10    9.94
   7  -3  13   50.32    5.79
   7   3  13   62.74    7.15
  -7   3 -14  153.12   11.54
  -7   3  14  143.36   14.27
   7   3  14  159.27    9.80
   7   3 -14  134.09   20.14
   7  -3 -14  136.84   23.39
   7  -3  14  143.96   13.45
   7   3  14  142.04    8.77
  -7   3 -15   18.48    4.43
  -7   3  15   39.08    7.36
   7   3  15   23.00    5.45
   7   3 -15   46.78    6.52
   7  -3 -15   25.25    5.52
   7  -3  15   32.21    5.89
   7   3  15    9.07    2.53
  -7   3  16   22.84    6.58
   7   3  16   16.15    5.32
   7  -3  16   28.70    7.06
   7   3 -16   23.52    6.61
   7  -3 -16   26.76    7.72
   7  -3  16   36.55    4.90
   7   3 -17   19.51    6.79
   7  -3 -17   14.97    5.20
   7  -3  17   12.49    4.15
   7   3  18   37.59    6.65
   7   3 -18   41.08    9.40
   7  -3 -18   25.59    6.40
   7  -3  18   33.67    7.05
   7   3 -19    8.98    4.10
   7  -3 -19   11.63    4.49
   7  -3  19    9.35    4.03
  -7  -4   0  256.20   14.61
  -7   4   0  215.10   15.66
   7   4   0  239.98   17.33
  -7  -4   0  213.66   15.09
   7  -4   0  225.02   16.30
  -7  -4  -1  247.40   30.64
  -7  -4   1  212.63   17.23
  -7   4   1  215.15   15.71
   7   4   1  186.01   13.36
   7   4  -1  215.75   16.19
  -7  -4   1  182.63   12.97
  -7  -4  -1  207.78   14.60
   7  -4   1  245.21   28.10
  -7  -4  -2   89.10   10.37
  -7  -4   2   58.54    8.63
  -7   4  -2   58.77    9.23
  -7   4   2   69.46   11.52
   7   4  -2   64.48   10.15
  -7  -4   2   53.89    7.95
   7  -4  -2   52.90    7.13
  -7  -4  -2   63.60    7.79
   7  -4   2   64.92    8.49
  -7  -4  -3  173.35   14.99
  -7  -4   3  167.20   13.91
  -7   4  -3  151.87   13.47
  -7   4   3  147.79   12.29
   7   4  -3  161.09   12.85
  -7  -4   3  137.17    9.95
   7  -4  -3  164.90   12.39
   7  -4   3  149.91   12.45
  -7  -4  -4  304.14   15.54
  -7  -4   4  364.92   11.59
  -7   4  -4  362.78   11.85
  -7   4   4  362.56   12.15
   7   4  -4  361.76   12.91
   7  -4  -4  362.93   12.06
   7  -4   4  359.42   11.98
  -7  -4  -5  126.82   13.95
  -7  -4   5   92.48   11.49
  -7   4  -5   95.22   13.77
   7   4  -5   89.78    9.07
  -7   4   5  112.95   12.62
   7   4  -5  103.50   12.21
   7  -4  -5   85.68    8.46
   7  -4   5  110.84   10.78
  -7  -4   6   80.43    9.17
  -7   4  -6   63.03    6.53
   7   4  -6   31.70    4.54
  -7   4   6   50.71    8.14
   7   4  -6   42.62    7.86
   7  -4  -6   83.65   10.67
   7  -4   6   40.26    5.46
  -7  -4  -7   60.64    9.55
  -7  -4   7   51.82    7.42
  -7   4  -7   59.52    9.19
   7   4  -7   35.62    5.58
  -7   4   7   40.82    5.74
   7   4  -7   49.57    8.55
   7  -4  -7   75.39   11.08
   7  -4   7   54.85    7.51
  -7  -4  -8  109.00   10.51
  -7  -4   8  114.43   11.71
  -7   4  -8  140.68   13.76
   7   4  -8   89.56   15.79
  -7   4   8  136.13   13.88
   7   4  -8  121.36   16.61
   7  -4  -8  127.67   10.55
   7   4   8  121.44    9.15
   7   4   8  128.79    9.93
   7  -4   8  114.00    9.72
  -7  -4  -9   89.44   13.53
  -7  -4   9  123.18   14.54
  -7   4  -9  136.96   10.18
  -7   4   9  105.55   12.95
   7   4  -9   70.48    9.28
   7   4  -9  109.30   17.73
   7  -4  -9  142.84    8.38
   7   4   9  124.17   13.49
   7  -4   9   94.57   10.58
   7   4   9  132.43    7.39
  -7  -4  10  182.76   11.03
  -7   4 -10  209.29   13.78
  -7   4  10  180.78   10.36
   7   4 -10  149.57    7.92
   7   4  10  229.79   12.99
   7   4 -10  171.15   18.39
   7  -4 -10  189.97   10.78
   7   4  10  164.57    9.74
   7  -4  10  164.20   14.89
   7   4  10  185.18    9.47
  -7  -4  11   75.49    7.97
  -7   4 -11  103.08   12.45
  -7   4  11   85.05    9.57
   7   4  11   96.96   13.32
   7   4 -11  102.46   15.86
   7  -4 -11  103.44   10.12
   7  -4  11   92.39    9.48
   7   4  11   91.61    8.45
  -7   4 -12   79.33   12.39
  -7  -4  12   50.38    7.26
  -7   4  12   66.45   10.13
   7   4  12   64.08   12.58
   7   4 -12   87.02   12.36
   7  -4  12   70.78   10.94
   7   4  12   66.19    8.87
  -7   4 -13   54.60    9.41
  -7   4  13   46.52    5.26
   7   4  13   53.20    6.64
   7   4 -13   30.01    7.50
   7  -4 -13   48.77    8.56
   7  -4  13   57.70    7.12
   7   4  13   58.76    5.70
  -7   4 -14    8.19    2.03
  -7   4  14   13.12    3.93
   7   4  14    7.80    2.62
   7   4 -14    9.24    4.51
   7  -4 -14   15.94    4.87
   7  -4  14   10.62    4.32
  -7   4 -15   44.72   10.68
  -7   4  15   54.37    7.74
   7   4  15   61.37    6.30
   7   4 -15   50.91    7.77
   7  -4 -15   61.16   11.00
   7  -4  15   55.73    6.05
  -7   4  16   50.31    7.47
   7   4  16   41.21    6.33
   7   4 -16   39.62    9.21
   7  -4 -16   43.42    9.72
   7  -4  16   29.94    6.45
   7   4  17   39.56    8.20
   7   4 -17   22.20    6.23
   7  -4 -17   29.30    7.33
   7  -4  17   36.71    6.27
   7   4  18   21.58    4.44
   7   4 -18    9.75    2.92
   7  -4 -18   11.20    3.42
   7  -4  18    8.94    3.13
   7   4  19   15.76    5.04
   7   4 -19    6.03    3.13
   7  -4 -19   14.77    4.49
   7  -4  19   12.34    5.17
  -7  -5   0  765.79   23.97
  -7   5   0  712.15   21.97
   7   5   0  657.96   19.45
  -7  -5   0  639.50   19.02
   7  -5   0  746.00   22.83
  -7  -5  -1  111.14   11.06
  -7  -5   1  130.53   12.83
  -7   5  -1  121.09   11.85
  -7   5   1   87.89   10.72
   7   5  -1   84.99    7.42
  -7  -5   1  103.83    8.37
  -7  -5  -1   87.87    6.68
   7  -5  -1  116.94   14.50
   7  -5   1   88.02    7.21
  -7  -5  -1   75.77    8.80
  -7  -5  -2  290.80   14.72
  -7  -5   2  255.30   12.99
  -7   5  -2  242.19   27.79
  -7   5   2  264.87    9.45
   7   5  -2  272.11    8.68
  -7  -5   2  226.67   16.08
   7  -5  -2  243.48   27.97
  -7  -5  -2  258.02    7.61
   7  -5   2  271.17    9.41
  -7  -5  -2  239.92   16.76
  -7  -5  -3   24.74    3.82
  -7  -5   3   48.62    7.59
  -7   5  -3   42.34    6.66
  -7   5   3   23.78    4.08
   7   5  -3   26.70    4.47
  -7  -5   3   38.37    4.99
   7  -5  -3   39.07    5.58
   7  -5   3   28.27    4.83
  -7  -5  -4  372.30   18.20
  -7  -5   4  369.94   18.54
  -7   5  -4  355.47   15.10
  -7   5   4  344.83   14.79
   7   5  -4  364.58   15.19
   7  -5  -4  345.96   14.86
   7  -5   4  344.82   14.73
  -7  -5  -5   18.73    3.33
  -7  -5   5   23.29    3.40
  -7   5  -5   23.28    4.14
   7   5  -5   10.22    1.87
  -7   5   5   25.39    4.14
   7   5  -5   16.08    3.62
   7  -5  -5   18.20    3.36
   7  -5   5   12.92    4.08
  -7  -5  -6  170.27   15.75
  -7  -5   6  165.60   15.35
  -7   5  -6  167.83   14.64
   7   5  -6  131.31   11.50
  -7   5   6  149.36   12.76
   7   5  -6  165.91   16.96
   7  -5  -6  163.39   13.04
   7  -5   6  153.59   12.38
  -7  -5  -7   57.69    9.25
  -7  -5   7   68.60    9.95
  -7   5  -7   59.86    8.37
   7   5  -7   35.56    5.27
  -7   5   7   43.68    7.33
   7   5  -7   54.14    8.95
   7  -5  -7   75.78   12.27
   7  -5   7   49.24    7.12
  -7  -5   8  131.45    9.33
  -7   5  -8  130.51    9.15
   7   5  -8   91.05   11.11
  -7   5   8  142.61   16.01
   7   5   8  147.97   11.32
   7   5  -8  146.80   16.10
   7  -5  -8  166.21   15.26
   7  -5   8  149.60    9.18
  -7  -5   9   93.15   14.24
  -7   5  -9  109.14   17.80
  -7   5   9   75.23   13.58
   7   5  -9   49.81    9.04
   7   5   9  128.86   32.81
   7   5  -9   81.34   13.84
   7  -5  -9  110.61   15.98
   7   5   9   97.06   13.60
   7  -5   9   86.00   13.85
   7   5   9   98.43   13.80
  -7  -5  10  105.88   10.04
  -7   5 -10  137.79    9.14
  -7   5  10  142.25   14.30
   7   5 -10   99.27    8.49
   7   5  10  126.34    8.75
   7   5 -10  139.29   15.14
   7   5  10   97.48    8.38
   7  -5  10  136.59    8.85
   7   5  10  112.39    9.84
  -7  -5  11   75.72    9.60
  -7   5 -11   98.98   10.71
  -7   5  11   71.92   12.56
   7   5  11   93.07    7.94
   7   5 -11   96.20   14.15
   7  -5  11   73.47    9.55
   7   5  11   88.40    4.89
  -7   5 -12   44.80    6.83
  -7   5  12   70.92    9.38
   7   5  12   51.28    8.53
   7   5 -12   54.61    7.57
   7  -5 -12   61.10    7.14
   7  -5  12   55.17    7.46
   7   5  12   39.50    6.80
  -7   5 -13   26.18    6.34
  -7   5  13   22.34    6.07
   7   5  13   22.20    6.43
   7   5 -13   24.14    6.30
   7  -5 -13   32.70    5.36
   7  -5  13   14.26    4.31
  -7   5 -14    4.39    1.79
  -7   5  14    5.31    2.55
   7   5  14    4.21    2.35
   7   5 -14   -0.36    2.66
   7  -5 -14   -0.45    2.77
   7  -5  14    4.23    3.04
  -7   5  15    5.06    2.56
   7   5  15    7.09    3.22
   7   5 -15    6.30    2.24
   7  -5 -15   16.14    5.55
   7  -5  15    6.01    3.06
  -7   5  16    6.78    3.05
   7   5  16    3.04    2.19
   7   5 -16    4.01    2.80
   7  -5 -16    3.61    1.91
   7  -5  16   10.64    5.19
  -7   5  17    6.44    1.94
   7   5  17    5.72    1.83
   7   5 -17    7.11    2.79
   7  -5 -17    8.64    3.46
   7  -5  17   14.47    4.96
   7   5  18    3.62    2.19
   7   5 -18   -1.05    2.73
   7  -5 -18    4.82    3.31
   7  -5  18    1.11    2.54
  -7  -6   0   61.64    7.70
  -7  -6   0   41.76    4.91
   7  -6   0   62.48    6.54
  -7  -6   0   53.70    6.38
  -7  -6  -1  137.34   15.80
  -7  -6   1  124.42   14.21
  -7   6  -1  120.92   15.56
  -7   6   1  116.69   16.41
   7   6  -1  103.91   10.34
  -7  -6   1   88.11    7.97
  -7  -6  -1   91.09    8.29
   7  -6  -1  106.54   14.13
   7  -6   1  119.75   12.98
  -7  -6  -1  119.41   11.17
  -7  -6  -2   46.69    6.63
  -7  -6   2   44.17    6.70
  -7   6  -2   39.32    6.31
  -7   6   2   28.68    5.74
   7   6  -2   46.66    6.85
  -7  -6   2   42.75    5.91
  -7  -6  -2   28.04    3.26
   7  -6  -2   37.69    5.22
   7  -6   2   33.53    4.79
  -7  -6  -2   38.17    4.83
  -7  -6  -3   57.48    8.74
  -7  -6   3   46.51    6.65
  -7   6  -3   28.56    4.69
  -7   6   3   41.99    6.52
   7   6  -3   62.53    8.26
   7  -6  -3   45.03    7.07
   7  -6   3   42.90    8.42
  -7  -6  -4    7.94    1.99
  -7  -6   4    3.85    1.51
  -7   6  -4   -0.23    1.63
  -7   6   4    9.04    3.54
   7   6  -4    8.85    2.15
   7  -6  -4    5.82    2.38
   7  -6   4    3.93    2.38
  -7  -6  -5  156.66   16.92
  -7  -6   5  171.64   15.09
  -7   6  -5  139.40   11.11
  -7   6   5  166.65   18.15
   7   6  -5  179.99   19.77
   7  -6  -5  150.24   12.03
   7  -6   5  147.51   14.85
  -7  -6   6   66.34    9.33
  -7   6  -6   88.65   16.67
   7   6  -6   37.72    5.48
  -7   6   6   75.78   12.62
   7   6   6   80.80   15.23
   7   6  -6   73.90   11.44
   7  -6  -6   75.82    9.84
   7  -6   6   57.05    9.70
  -7  -6   7   56.87    7.66
  -7   6  -7   57.26    6.61
   7   6  -7   33.52    5.40
  -7   6   7   65.99    8.99
   7   6   7   60.18    7.68
   7   6  -7   60.59    9.42
   7  -6  -7   61.98    8.04
   7  -6   7   54.03   10.57
  -7  -6   8   20.99    4.35
  -7   6  -8   28.34    5.82
   7   6  -8   13.26    2.71
  -7   6   8   14.57    4.12
   7   6   8   16.02    3.83
   7   6  -8   21.39    5.63
   7  -6  -8   19.73    4.77
   7  -6   8   18.11    4.25
  -7  -6   9   17.99    4.58
  -7   6  -9   25.26    6.72
   7   6  -9   15.40    4.02
  -7   6   9   21.80    5.92
   7   6   9   20.99    5.99
   7   6  -9   30.70    7.96
   7  -6   9   39.26    7.68
  -7   6 -10   61.98    8.84
  -7   6  10   65.96    9.69
   7   6  10   54.82    8.60
   7   6 -10   61.64    8.73
   7  -6  10   50.67    6.17
   7   6  10   38.62    7.36
  -7   6 -11   40.85    6.82
  -7   6  11   24.74    5.70
   7   6  11   35.21    7.31
   7   6 -11   43.73    7.57
   7  -6 -11   32.99    7.15
   7  -6  11   43.89    7.22
  -7   6 -12   55.01    9.80
  -7   6  12   66.94    9.88
   7   6  12   65.96    7.33
   7   6 -12   66.96   10.71
   7  -6 -12   71.38    8.86
   7  -6  12   63.08    7.57
  -7   6 -13   32.88    7.30
  -7   6  13   56.40   11.04
   7   6  13   41.32    9.67
   7   6 -13   58.84   10.11
   7  -6 -13   49.86    9.12
   7  -6  13   62.77    9.31
  -7   6 -14   64.01    8.85
  -7   6  14   73.02   10.76
   7   6  14   86.31    8.16
   7   6 -14   94.33   10.48
   7  -6 -14   97.06    9.51
   7  -6  14   92.20    8.87
  -7   6  15   27.55    7.57
   7   6  15   15.10    4.85
   7   6 -15   20.84    5.85
   7  -6 -15   10.30    3.86
   7  -6  15   17.01    5.00
  -7   6  16   16.16    4.72
   7   6  16    9.66    4.01
   7   6 -16    9.42    3.60
   7  -6  16    4.44    3.04
  -7   6  17    7.47    3.39
   7   6  17    9.70    3.03
   7   6 -17    5.02    3.12
   7  -6 -17   11.68    3.99
   7  -6  17    5.41    3.26
   7   6  18    2.29    1.81
   7   6 -18    7.60    3.25
   7  -6 -18    5.76    2.36
   7  -6  18    3.71    3.03
  -7  -7   0   35.00    5.85
  -7   7   0   35.43    6.85
  -7  -7   0   26.66    3.63
   7  -7   0   32.37    5.35
  -7  -7   0   29.47    3.76
  -7  -7  -1  114.86   11.94
  -7  -7   1   99.06   10.42
  -7   7  -1  108.15   10.44
  -7   7   1  101.71   10.10
  -7  -7   1   91.53    9.24
  -7  -7  -1   91.22    9.02
   7  -7  -1  124.79   17.25
   7  -7   1   95.30    9.47
  -7  -7  -1  106.34    9.55
  -7  -7   1   93.94    9.80
  -7  -7   2   17.12    3.34
  -7   7  -2   17.16    3.13
  -7   7   2    8.14    3.26
  -7  -7   2   12.18    1.86
  -7  -7  -2    3.48    0.70
   7  -7  -2   15.01    3.21
   7  -7   2   14.11    4.28
  -7  -7  -2    7.06    1.18
  -7  -7   2   18.89    3.00
  -7  -7   3   19.28    5.44
  -7   7  -3   14.52    4.40
  -7   7   3   23.09    6.59
   7   7   3   18.28    5.56
   7   7  -3   36.27    5.46
   7  -7  -3    5.21    2.09
   7  -7   3   35.80    7.62
  -7  -7   4  318.20   16.44
  -7   7  -4  326.55   17.24
  -7   7   4  309.53   16.64
   7   7  -4  338.21   17.45
   7  -7  -4  307.52   20.30
   7  -7   4  316.44   19.25
  -7  -7   5  267.84   16.50
  -7   7  -5  254.27   13.65
  -7   7   5  252.83   13.95
   7   7   5  265.68   14.68
   7   7  -5  238.35   14.48
   7  -7  -5  256.77   14.00
   7  -7   5  252.46   20.11
  -7  -7   6  155.90   11.68
  -7   7  -6  176.76   12.46
  -7   7   6  183.96   21.15
   7   7   6  174.87    9.76
   7   7  -6  177.59   13.30
   7  -7  -6  170.08    9.28
   7  -7   6  168.64   10.06
  -7   7  -7   50.21    5.99
   7   7  -7   31.21    6.34
  -7   7   7   60.08    8.77
   7   7   7   62.79   10.78
   7   7  -7   62.94    8.37
   7  -7  -7   48.70    6.45
   7  -7   7   47.04    6.48
  -7   7  -8  107.03   15.77
   7   7  -8   70.08   11.00
  -7   7   8   96.51   14.39
   7   7   8  104.35   18.51
   7   7  -8   96.60   13.64
   7   7  -8  132.64   14.43
   7  -7   8   98.15   14.72
  -7   7  -9   12.33    3.84
  -7   7   9   22.14    5.90
   7   7   9    8.82    2.86
   7   7  -9   17.96    3.93
   7   7  -9   16.38    4.36
   7  -7  -9    7.49    2.65
   7  -7   9   14.04    5.36
  -7   7 -10   63.08   10.75
  -7   7  10   59.51    9.28
   7   7  10   63.90   10.66
   7   7 -10   48.48    6.85
   7   7 -10   59.34   11.05
   7  -7 -10   68.02    9.56
   7  -7  10   63.42    8.95
  -7   7 -11    7.01    2.46
  -7   7  11    4.51    3.24
   7   7  11   13.67    3.97
   7   7 -11    3.75    2.26
   7  -7 -11    6.40    3.39
   7  -7  11    8.84    4.21
  -7   7 -12   11.74    3.08
  -7   7  12   22.30    6.03
   7   7  12    3.53    2.87
   7   7 -12   12.73    4.03
   7  -7 -12   12.99    4.20
   7  -7  12   11.90    5.54
  -7   7 -13    2.05    1.03
  -7   7  13    9.06    3.13
   7   7  13    0.97    2.53
   7   7 -13   12.12    3.85
   7  -7 -13   -3.06    3.40
   7  -7  13    4.34    3.15
  -7   7  14    4.83    3.12
   7   7  14    6.28    2.72
   7   7 -14   11.95    4.24
   7  -7 -14    6.18    2.99
   7  -7  14   14.15    5.55
  -7   7  15    6.83    4.00
   7   7  15    4.24    2.95
   7   7 -15   -0.99    2.64
   7  -7 -15    7.16    3.28
   7  -7  15    4.25    2.29
  -7   7  16    4.89    2.17
   7   7  16    4.67    3.31
   7   7 -16    8.76    3.08
   7  -7 -16   14.53    5.17
   7  -7  16    8.53    3.66
  -7   7  17    1.82    1.89
   7   7  17    8.71    3.82
   7   7 -17    8.55    2.63
   7  -7 -17    6.54    2.38
   7  -7  17    4.88    3.17
   7   7  18    6.36    2.71
   7   7 -18   -1.37    2.62
   7  -7 -18    4.80    2.66
   7  -7  18   11.70    5.03
  -7   8   0  147.16   15.41
   7   8   0  127.83   10.62
  -7  -8   0  109.65    9.47
   7  -8   0  149.55   12.46
  -7  -8   0  141.71   10.95
  -7   8  -1   96.52   13.97
  -7   8   1   87.77   17.28
   7   8  -1   67.23    8.78
   7   8   1   89.89   16.45
  -7  -8  -1   60.39    8.06
  -7  -8   1   63.13    8.71
   7  -8  -1   90.25   15.82
   7  -8   1   88.10   18.32
  -7  -8  -1   74.73    9.12
  -7  -8   1   97.34    9.46
  -7   8  -2  129.58   15.28
  -7   8   2  133.27   12.12
   7   8   2  133.81   13.83
   7   8  -2  122.46   10.06
  -7  -8  -2  102.60    8.54
   7  -8  -2  120.11   10.22
   7  -8   2  123.00   10.39
  -7  -8  -2  126.85   10.29
  -7  -8   2  124.00   11.41
  -7   8  -3  193.53   32.85
  -7   8   3  220.19   12.41
   7   8   3  210.88   12.01
   7   8  -3  216.99   11.81
  -7  -8  -3  165.79   12.68
   7  -8  -3  189.88   32.19
  -7  -8  -3  208.00   10.47
   7  -8   3  213.52   12.01
  -7  -8   3  177.20   13.99
  -7   8  -4   87.84    9.89
  -7   8   4   99.00   12.93
   7   8   4  101.49   15.26
   7   8  -4   99.57   11.51
   7  -8  -4   84.66    9.73
   7  -8   4   97.85   11.82
  -7  -8   4  110.00   13.51
  -7   8  -5  191.19    9.90
  -7   8   5  228.52   12.33
   7   8   5  205.44   10.98
   7   8  -5  203.70   12.45
   7  -8  -5  211.46   13.25
   7  -8   5  213.85   11.51
  -7   8  -6  146.02    8.39
  -7   8   6  164.93   10.27
   7   8   6  160.43    9.64
   7   8  -6  140.25   10.86
   7   8  -6  162.41   11.70
   7  -8  -6  161.54    9.62
   7  -8   6  167.22   14.34
  -7   8  -7   52.92    8.66
  -7   8   7   71.91   13.59
   7   8   7   48.58    9.22
   7   8  -7   48.11    7.06
   7   8  -7   57.63   11.39
   7  -8   7   49.23    8.60
  -7   8  -8   36.79    7.15
  -7   8   8   53.60    7.17
   7   8  -8   29.95    6.57
   7   8   8   33.03    7.41
   7   8  -8   51.66    7.25
   7  -8  -8   34.23    7.12
   7  -8   8   39.86    8.85
  -7   8  -9   14.29    3.34
  -7   8   9   30.71    6.81
   7   8  -9   14.86    3.09
   7   8   9   23.35    6.36
   7   8  -9   16.19    4.55
   7  -8  -9   17.22    4.58
   7  -8   9   21.83    6.74
  -7   8 -10    6.15    2.33
  -7   8  10   21.28    5.52
   7   8  10    4.97    2.61
   7   8 -10   23.09    4.78
   7  -8 -10    9.81    4.74
   7  -8  10   19.14    6.27
  -7   8 -11    6.43    2.21
  -7   8  11   12.10    3.89
   7   8  11    4.93    3.97
   7   8 -11   14.44    3.92
   7  -8 -11   15.56    4.78
   7  -8  11   13.12    4.71
  -7   8 -12  116.49   11.15
  -7   8  12  135.60   11.41
   7   8  12  112.46   15.49
   7   8 -12  131.10   18.09
   7  -8 -12  145.03   13.01
   7  -8  12  138.15   12.42
  -7   8 -13   46.84    8.42
  -7   8  13   99.56    9.78
   7   8  13   79.48   10.14
   7   8 -13   81.61   10.83
   7  -8 -13   88.46    9.48
   7  -8  13   87.15    8.91
  -7   8  14   21.66    5.83
   7   8  14   25.34    6.40
   7   8 -14   29.04    6.70
   7  -8 -14    7.57    3.32
   7  -8  14   24.07    6.22
  -7   8  15   19.19    5.84
   7   8  15   42.32    8.72
   7   8 -15   60.97   12.33
   7  -8 -15   38.08    7.76
   7  -8  15   39.79    7.27
  -7   8  16   39.34    8.73
   7   8  16   37.64    8.28
   7   8 -16   43.40   11.00
   7  -8 -16   35.96    7.09
   7  -8  16   30.69    5.99
  -7   8  17    8.69    3.36
   7   8  17    0.36    2.33
   7   8 -17   11.98    4.02
   7  -8 -17    0.56    1.34
   7  -8  17   10.32    5.05
  -7   9   0    4.70    2.01
   7   9   0    1.56    1.93
  -7  -9   0    1.51    0.59
   7  -9   0    3.36    3.32
  -7  -9   0    2.47    1.84
  -7   9  -1   70.56   10.77
  -7   9   1   60.61    9.15
   7   9   1   66.97   10.52
   7   9  -1   61.35    7.50
  -7  -9  -1   40.39    5.36
   7  -9  -1   57.61    7.34
   7  -9   1   63.00   10.77
  -7  -9  -1   62.50    7.80
  -7  -9   1   63.80    8.48
  -7   9  -2   22.36    4.70
   7   9   2   13.75    3.57
   7   9  -2   17.14    3.79
  -7  -9  -2    9.92    1.87
   7  -9  -2   17.33    4.28
   7  -9   2   17.91    3.97
  -7  -9  -2   34.04    4.38
  -7  -9   2   16.83    3.53
  -7   9  -3  319.26   15.84
  -7   9   3  346.06   17.41
   7   9   3  326.21   18.15
   7   9  -3  332.01   16.12
   7  -9  -3  338.19   16.80
  -7  -9  -3  329.97   15.21
   7  -9   3  326.12   23.43
  -7  -9   3  329.01   15.82
  -7   9  -4   28.07    7.83
  -7   9   4   23.86    6.46
   7   9   4   29.95    7.71
   7   9  -4   12.47    3.67
  -7  -9  -4    4.95    1.24
  -7  -9  -4    7.53    2.05
   7  -9  -4   29.78    7.88
   7  -9   4   14.88    4.94
  -7  -9   4   28.26    6.79
  -7   9  -5  243.71   18.03
  -7   9   5  276.33   15.44
   7   9  -5  249.52   13.17
   7  -9   5  274.66   25.18
  -7  -9   5  276.21   15.36
  -7   9  -6   62.39    7.88
  -7   9   6   40.13    9.59
   7   9   6   64.78    6.80
   7   9  -6   22.20    4.82
   7  -9   6   44.17    9.75
  -7  -9   6   64.79    7.04
  -7   9  -7  307.72   17.54
  -7   9   7  270.11   18.32
   7   9  -7  255.05   14.38
   7   9   7  296.50   17.79
   7  -9  -7  316.10   18.33
   7  -9   7  277.69   16.44
  -7  -9   7  340.65   22.71
  -7   9  -8   12.61    3.89
  -7   9   8   24.65    5.52
   7   9  -8   16.41    3.59
   7   9   8    3.28    3.07
   7  -9  -8   -0.73    2.71
   7  -9   8   15.98    4.04
  -7  -9   8   15.67    3.92
  -7   9  -9   78.63   14.35
  -7   9   9   85.79    8.71
   7   9  -9   83.64    5.47
   7   9   9  114.28    9.24
   7  -9  -9   86.81    7.09
   7  -9   9   78.16   13.01
  -7   9 -10   17.02    4.29
  -7   9  10   -0.83    2.66
   7   9  10   14.17    4.85
   7  -9 -10   16.71    6.65
   7  -9  10   11.93    4.63
  -7   9 -11  144.23   12.25
  -7   9  11  155.30   17.94
   7   9  11  139.48   11.99
   7   9 -11  155.82   16.15
   7  -9 -11  173.11   15.03
   7  -9  11  147.54   12.58
  -7   9 -12   13.72    3.91
  -7   9  12   28.34    6.24
   7   9  12   21.28    4.54
   7   9 -12   28.09    5.46
   7  -9 -12   30.58    6.59
   7  -9  12   15.16    5.65
  -7   9  13   24.86    6.60
   7   9  13   14.19    4.69
   7   9 -13   31.86    7.34
   7  -9 -13   35.16    5.49
   7  -9  13   16.81    5.21
  -7   9  14    2.79    2.21
   7   9  14    3.37    2.67
   7   9 -14    5.15    2.31
   7  -9 -14    1.37    3.02
   7  -9  14    6.01    3.55
  -7   9  15   -1.61    2.31
   7   9  15    1.22    2.60
   7  -9 -15    0.33    2.38
   7  -9  15    2.58    2.98
  -7   9  16    0.75    1.30
   7   9  16   10.10    4.79
   7  -9 -16    0.77    2.50
   7  -9  16    8.77    5.12
  -7   9  17    3.96    2.12
   7   9  17   12.44    5.15
   7  -9 -17    1.82    2.67
   7  -9  17   12.84    6.50
  -7  -9  17    7.64    4.40
  -7  10   0  545.37   28.31
   7  10   0  512.09   27.49
   7 -10   0  520.73   28.85
  -7 -10   0  519.65   26.03
  -7  10  -1  238.65   18.91
  -7  10   1  253.57   18.14
   7  10   1  225.48   12.67
   7  10  -1  220.78   12.30
   7 -10  -1  243.62   20.01
   7 -10   1  224.75   20.96
  -7 -10  -1  212.16   10.93
  -7 -10   1  253.11   15.20
  -7  10  -2  315.93   16.88
  -7  10   2  372.02   23.51
   7  10   2  307.15   16.70
   7  10  -2  350.48   18.43
   7 -10  -2  340.05   18.13
   7 -10   2  345.74   18.78
  -7 -10  -2  344.01   17.46
  -7 -10   2  346.73   23.70
  -7  10  -3  104.30    9.50
  -7  10   3  111.52   17.44
   7  10  -3  121.12    9.86
   7  10   3  105.41   13.92
   7 -10  -3  106.04   14.19
  -7 -10  -3  107.14    9.26
   7 -10   3  111.74   10.44
  -7 -10   3  109.84   10.93
  -7  10  -4   89.92    8.44
  -7  10   4  107.01   12.59
   7  10   4   90.96    9.01
   7  10  -4  106.46   11.65
  -7 -10  -4   81.54    6.59
   7 -10   4  100.25    9.93
  -7 -10   4  101.18    9.81
  -7  10  -5    2.92    1.96
  -7  10   5   21.86    5.52
   7  10  -5   15.47    4.02
   7  10   5    8.49    4.11
  -7 -10  -5    5.37    1.61
   7 -10  -5   13.06    4.55
   7 -10   5   22.47    6.40
  -7 -10   5   13.25    5.01
  -7  10  -6   67.49   10.68
  -7  10   6   65.28    8.87
   7  10  -6   68.90    9.84
   7 -10  -6   60.74    8.90
   7 -10   6   71.28   12.61
  -7 -10   6   58.53    8.00
  -7  10  -7   23.99    5.37
  -7  10   7   30.60    7.11
   7  10  -7   20.08    4.56
   7  10   7   16.55    5.08
   7 -10  -7   24.74    5.74
   7 -10   7   31.38    7.20
  -7 -10   7   26.56    5.94
  -7  10  -8   11.92    4.77
  -7  10   8    7.99    3.60
   7  10  -8    3.17    1.47
   7  10   8    5.78    3.13
   7 -10  -8   12.85    5.27
   7 -10   8   11.94    4.83
  -7 -10   8    1.45    2.28
  -7  10  -9   61.79    9.09
  -7  10   9   59.05    9.45
   7  10   9   52.90    7.67
   7 -10  -9   61.59    8.95
   7 -10   9   45.48    7.68
  -7 -10   9   46.87    6.89
  -7  10 -10    7.67    2.33
  -7  10  10    9.95    3.01
   7  10  10   10.00    2.85
   7 -10 -10    5.89    3.37
   7 -10  10    7.09    3.76
  -7 -10  10    5.36    2.76
  -7  10 -11   58.94   11.13
  -7  10  11   85.69   13.82
   7  10  11   80.83    9.71
   7 -10 -11   72.26    7.60
   7 -10  11   82.97    8.40
  -7 -10  11   86.61    8.63
  -7  10  12    5.33    3.43
   7  10  12    8.44    3.32
   7 -10 -12    3.45    3.21
   7 -10  12    4.98    3.34
  -7 -10  12    5.11    3.17
  -7  10  13   35.12    7.78
   7  10  13   26.26    7.00
   7 -10 -13   22.75    6.08
   7 -10  13   19.62    5.90
  -7 -10  13   28.05    6.40
  -7  10  14   19.41    6.23
   7  10  14    8.50    3.39
   7 -10 -14    4.69    2.78
   7 -10  14   12.70    5.40
  -7 -10  14    4.41    2.91
  -7  10  15   13.66    4.45
   7  10  15   11.11    3.98
   7 -10 -15    5.17    3.76
   7 -10  15   19.78    6.32
  -7 -10  15   11.36    4.81
  -7  10  16   14.18    5.27
   7  10  16   10.07    4.73
   7 -10 -16    5.67    3.72
   7 -10  16   24.69    7.13
  -7 -10  16    7.47    3.51
  -7  11   0   26.48    6.96
   7  11   0   14.04    4.87
   7 -11   0   15.35    4.44
  -7 -11   0   23.51    5.06
  -7  11  -1   54.77    7.94
  -7  11   1   41.08    9.10
   7  11   1   41.98    9.20
   7  11  -1   45.98   13.13
   7 -11  -1   71.81    8.04
   7 -11   1   59.01    7.91
  -7 -11  -1   50.93    6.19
  -7 -11   1   45.41   11.96
  -7  11  -2   23.68    5.34
  -7  11   2   22.34    5.64
   7  11  -2   22.16    5.68
   7  11   2    9.25    3.39
   7 -11  -2   18.06    5.50
   7 -11   2   19.07    5.16
  -7 -11  -2   19.97    3.99
  -7 -11   2   15.53    3.51
  -7  11  -3   10.75    4.13
   7  11  -3    6.03    2.50
   7  11   3   11.70    5.39
  -7 -11  -3    5.24    1.97
   7 -11   3   12.24    5.98
  -7 -11   3    7.23    3.16
  -7  11  -4   46.87    8.52
  -7  11   4   23.53    5.61
   7  11  -4   31.80    6.26
   7  11   4   47.97    7.61
  -7 -11  -4   25.96    4.86
   7 -11  -4   40.89    6.43
   7 -11   4   21.53    5.75
  -7 -11   4   50.91    6.69
  -7  11  -5   60.04    9.44
  -7  11   5   52.44    8.81
   7  11  -5   62.74    9.95
   7  11   5   64.91   10.95
   7 -11  -5   60.89    8.84
   7 -11   5   68.17   11.77
  -7 -11   5   49.42    6.95
  -7  11  -6    9.96    3.71
  -7  11   6    8.93    4.63
   7  11  -6    7.07    2.88
   7  11   6   19.03    5.06
   7 -11  -6   20.56    5.32
   7 -11   6    4.63    4.14
  -7 -11   6   13.00    4.86
  -7  11  -7  125.29    9.59
  -7  11   7  102.95   11.51
   7  11  -7   92.47    8.35
   7  11   7  132.61   14.37
   7 -11  -7   94.66   15.86
   7 -11   7  106.78    8.81
  -7 -11   7  119.08    7.83
  -7  11  -8   62.94   12.04
  -7  11   8   70.92    8.01
   7  11  -8   45.99    7.82
   7  11   8   83.86    6.95
   7 -11  -8   56.87   12.20
   7 -11   8   66.40    6.19
  -7 -11   8   85.18    7.98
  -7  11  -9   66.22    8.11
  -7  11   9   50.33    9.72
   7  11   9   87.36    9.67
   7 -11  -9   46.11   11.81
   7 -11   9   51.18    9.60
  -7 -11   9   60.29    5.97
  -7  11 -10    3.38    1.34
  -7  11  10   21.03    4.78
   7  11  10    1.84    2.51
   7 -11 -10    7.78    2.66
   7 -11  10   11.04    5.37
  -7 -11  10    6.97    2.86
  -7  11 -11   10.74    3.27
  -7  11  11   11.73    4.91
   7  11  11    8.92    3.38
   7 -11 -11   12.49    4.72
   7 -11  11   20.52    6.56
  -7 -11  11   15.96    5.83
  -7  11  12   27.90    6.83
   7  11  12   17.15    5.58
   7 -11 -12    9.29    3.83
   7 -11  12   10.01    4.51
  -7 -11  12   23.09    6.42
  -7  11  13   26.51    5.38
   7  11  13   19.02    6.15
   7 -11 -13    8.47    3.45
   7 -11  13   11.36    4.27
  -7 -11  13   10.26    4.45
  -7  11  14   14.21    4.52
   7  11  14   19.36    6.52
   7 -11 -14   17.78    5.44
   7 -11  14   20.62    5.47
  -7 -11  14   16.93    5.60
  -7  11  15    3.33    1.54
   7  11  15    2.77    1.79
   7 -11 -15    3.08    2.96
   7 -11  15   -2.15    3.23
  -7 -11  15    6.13    3.39
  -7  12   0  204.28   13.76
   7  12   0  217.15   14.22
   7 -12   0  206.78   14.37
  -7 -12   0  207.06   12.85
  -7  12  -1   60.45    6.69
  -7  12   1   39.58    7.85
   7  12   1   57.92    9.66
   7  12  -1   39.06    7.92
   7 -12   1   52.01    8.30
  -7 -12  -1   44.43    5.22
  -7 -12   1   60.32    6.91
  -7  12  -2  115.13   11.89
  -7  12   2  112.25   10.50
   7  12   2  122.00    8.91
   7  12  -2  120.76    8.63
   7 -12   2  110.99    8.69
  -7 -12  -2  124.95    8.05
  -7 -12   2  118.49   11.80
  -7  12  -3   71.62   10.43
  -7  12   3   90.57   10.04
   7  12  -3   79.07   12.11
   7  12   3   56.79    6.51
   7 -12  -3   69.24    8.17
  -7 -12  -3   73.72    8.52
   7 -12   3   77.05   12.47
  -7 -12   3   68.91    7.97
  -7  12  -4    5.86    3.02
   7  12  -4   13.83    3.55
   7  12   4    8.50    3.81
   7 -12  -4    6.72    3.32
   7 -12   4   17.08    5.62
  -7 -12   4    2.63    2.31
  -7  12  -5    5.97    2.00
  -7  12   5   19.35    5.98
   7  12  -5   14.34    3.89
   7  12   5    5.94    2.31
   7 -12  -5    8.17    3.39
   7 -12   5   15.52    6.33
  -7 -12   5   17.55    5.01
  -7  12  -6   12.70    3.47
  -7  12   6   31.98    7.53
   7  12  -6   25.29    6.24
   7  12   6   11.95    3.89
   7 -12  -6   26.03    7.27
   7 -12   6   15.84    5.41
  -7 -12   6   30.32    5.39
  -7  12  -7   47.11   11.17
  -7  12   7   88.20   10.06
   7  12  -7   55.90   11.61
   7 -12  -7   54.42   10.75
   7 -12   7   61.02   11.13
  -7 -12   7   63.20    6.29
  -7  12  -8   29.87    5.68
  -7  12   8   21.96    5.51
   7  12   8   21.86    4.94
   7 -12  -8   24.63    5.35
   7 -12   8   16.45    5.21
  -7 -12   8   25.22    5.07
  -7  12  -9   12.35    3.91
  -7  12   9   10.67    3.59
   7  12   9   13.23    4.92
   7 -12  -9   18.33    6.07
   7 -12   9    3.12    2.63
  -7 -12   9   23.42    6.64
  -7  12 -10   30.69    6.14
  -7  12  10   20.59    5.16
   7  12  10   30.95    7.06
   7 -12 -10   32.47    8.12
   7 -12  10   29.08    7.29
  -7 -12  10   35.95    8.05
  -7  12  11    2.59    1.90
   7  12  11   -0.73    2.82
   7 -12 -11    4.91    3.82
   7 -12  11    0.89    3.47
  -7 -12  11    6.46    4.64
  -7  12  12   32.86    7.66
   7  12  12   41.39    7.64
   7 -12 -12    8.83    3.47
   7 -12  12   33.08    6.79
  -7 -12  12   54.23    7.71
  -7  12  13    8.40    3.11
   7  12  13    2.53    2.79
   7 -12 -13   12.69    4.82
   7 -12  13    9.61    4.04
  -7 -12  13   13.09    4.43
  -7  12  14   15.07    5.44
   7  12  14   15.67    5.40
   7 -12 -14   12.19    4.98
   7 -12  14   14.32    4.68
  -7 -12  14    7.53    3.43
  -7  13   0   16.14    4.85
   7  13   0   11.44    4.17
  -7 -13   0   10.17    3.28
  -7  13  -1   25.03    6.97
  -7  13   1   21.46    5.67
   7  13  -1   13.30    3.95
   7  13   1   14.08    4.37
   7 -13  -1   17.45    5.17
   7 -13   1   28.57    7.58
  -7 -13  -1   23.36    5.36
  -7 -13   1   14.21    3.74
  -7  13  -2   38.74    7.09
  -7  13   2   36.05    6.64
   7  13  -2   38.47    7.89
   7  13   2   32.54    5.83
   7 -13  -2   25.92    6.61
   7 -13   2   50.56    8.79
  -7 -13  -2   43.36    5.79
  -7 -13   2   32.71    4.60
  -7  13  -3    0.47    2.05
  -7  13   3   14.42    5.08
   7  13  -3    2.99    2.31
   7  13   3   15.81    5.09
   7 -13  -3   16.04    5.89
   7 -13   3    7.23    4.22
  -7 -13   3   -0.18    1.70
  -7  13  -4   55.83   10.05
  -7  13   4   66.78    8.53
   7  13  -4   51.53   10.10
   7  13   4   44.38    8.05
   7 -13  -4   66.65    8.33
   7 -13   4   75.17    9.10
  -7 -13   4   54.57   10.47
  -7  13  -5    3.99    2.08
   7  13  -5   -0.02    1.46
   7  13   5    1.92    2.91
   7 -13  -5   13.73    8.48
   7 -13   5   10.80    6.41
  -7 -13   5    6.92    3.03
  -7  13  -6   43.75    7.26
  -7  13   6   50.14    7.99
   7  13  -6   26.29    6.45
   7  13   6   39.64    8.09
   7 -13  -6   60.85    8.23
   7 -13   6   42.97    9.57
  -7 -13   6   47.34    5.36
  -7  13  -7   22.63    5.81
  -7  13   7   16.62    4.94
   7  13   7   23.78    6.82
   7 -13  -7   16.91    5.78
   7 -13   7   31.11    9.16
  -7 -13   7   17.19    4.83
  -7  13  -8   20.93    5.38
  -7  13   8   21.62    6.30
   7  13   8   18.18    5.36
   7 -13  -8   18.99    6.33
   7 -13   8   16.99    5.92
  -7 -13   8   27.67    7.31
  -7  13  -9   43.25    6.72
  -7  13   9   72.37   12.64
   7  13   9   64.11   10.26
   7 -13  -9   53.75   10.61
   7 -13   9   54.73   10.83
  -7 -13   9   51.08    7.43
  -7  13  10   17.35    4.71
   7  13  10   25.23    6.74
   7 -13 -10   15.09    5.24
   7 -13  10   21.56    6.91
  -7 -13  10   23.33    6.13
  -7  13  11   10.01    4.03
   7  13  11    9.97    3.90
   7 -13 -11    7.39    2.76
   7 -13  11   11.88    5.56
  -7 -13  11    8.56    4.05
  -7  13  12    4.77    3.15
   7  13  12    4.40    2.42
   7 -13 -12    5.72    4.12
   7 -13  12   11.86    4.79
  -7 -13  12    4.17    3.58
  -7  13  13   22.90    6.15
   7  13  13    7.36    3.49
   7 -13 -13   17.10    5.83
   7 -13  13   12.43    4.83
  -7 -13  13    8.74    3.62
  -7  14   0   16.08    4.86
   7  14   0    4.04    1.60
   7 -14   0   16.14    6.53
  -7 -14   0   10.04    2.99
  -7  14  -1   36.89    7.48
  -7  14   1   49.92    7.23
   7  14   1   38.40    8.16
   7  14  -1   46.11    5.77
   7 -14  -1   48.23    7.59
  -7 -14  -1   40.49    7.15
  -7 -14   1   49.44    5.05
  -7  14  -2   99.17   14.34
  -7  14   2   94.78   15.07
   7  14  -2   69.24   10.18
   7  14   2  111.79   14.95
   7 -14  -2  104.78   12.92
  -7 -14   2   93.11    7.96
  -7  14   3   13.18    5.25
   7  14  -3   12.23    4.13
   7  14   3    3.40    2.66
   7 -14  -3   14.36    6.03
   7 -14   3   27.77    6.93
  -7 -14   3   18.38    4.02
  -7  14  -4   89.82   11.96
  -7  14   4   81.33   13.25
   7  14  -4   69.42    9.22
   7  14   4   99.32   12.47
   7 -14  -4   92.52    8.86
   7 -14   4   80.71    9.00
  -7 -14   4   99.44    8.89
  -7  14  -5   46.34    7.41
   7  14  -5   29.90    7.98
   7  14   5   46.73    6.69
   7 -14  -5   28.24    7.71
   7 -14   5   21.61    6.05
  -7 -14   5   32.10    5.68
  -7  14  -6   84.88   14.48
  -7  14   6   98.76   18.12
   7  14  -6   74.69   13.67
   7  14   6   89.68   16.66
   7 -14  -6  111.37   14.50
   7 -14   6  124.83   16.61
  -7 -14   6  124.51   15.54
  -7  14  -7    2.34    1.56
  -7  14   7    4.25    2.22
   7  14   7    5.32    2.60
   7 -14  -7    5.75    3.22
   7 -14   7   13.37    6.10
  -7 -14   7    2.36    2.13
  -7  14  -8   26.43    7.00
  -7  14   8   21.10    6.27
   7  14   8   19.83    5.42
   7 -14  -8   19.57    6.67
   7 -14   8   16.41    5.16
  -7 -14   8   14.20    3.87
  -7  14  -9    1.20    1.06
  -7  14   9    4.34    1.97
   7  14   9    3.90    3.20
   7 -14  -9    3.52    2.93
   7 -14   9   -1.40    3.09
  -7  14  10    9.35    4.53
   7  14  10    1.62    2.83
   7 -14 -10    2.00    3.90
   7 -14  10    3.63    4.88
  -7 -14  10    7.73    3.16
  -7  14  11    6.31    2.99
   7  14  11    1.56    1.59
   7 -14 -11   -1.77    2.65
   7 -14  11   31.65    7.07
  -7 -14  11   11.42    4.42
  -7  14  12    3.70    1.96
   7  14  12    1.74    1.97
   7 -14 -12    8.69    4.50
   7 -14  12   -1.16    3.49
  -7 -14  12    7.43    3.80
  -7  15   0   17.88    5.97
   7  15   0   11.87    4.37
   7 -15   0    6.61    4.25
  -7  15  -1   51.49    7.77
  -7  15   1   60.30   10.40
   7  15  -1   50.15    5.57
   7  15   1   56.28    6.49
   7 -15  -1   58.32   10.01
   7 -15   1   32.12    6.95
  -7 -15   1   51.01    4.39
  -7  15  -2   39.24    9.78
  -7  15   2   60.73   12.84
   7  15  -2   44.74    8.13
   7  15   2   43.72    8.50
   7 -15  -2   60.97    8.78
  -7 -15   2   44.73    6.43
  -7  15  -3   97.68   12.66
  -7  15   3   91.44   13.52
   7  15  -3   70.46   11.34
   7  15   3   82.24   14.84
   7 -15  -3  103.10   13.40
  -7 -15   3   98.63   12.28
  -7  15  -4   36.50    7.75
  -7  15   4   32.16    8.21
   7  15  -4   31.19    6.89
   7  15   4   39.64    7.16
   7 -15  -4   35.77    7.73
   7 -15   4   26.62    6.65
  -7 -15   4   40.02    5.69
  -7  15  -5  103.36   20.27
  -7  15   5  111.14   19.81
   7  15  -5  113.56   19.11
   7  15   5  144.45   35.47
   7 -15  -5  118.81   18.10
   7 -15   5  168.18   41.37
  -7 -15   5  144.09   35.14
  -7  15  -6   14.59    4.17
  -7  15   6   12.14    3.89
   7  15   6   17.38    5.20
   7 -15  -6   16.57    4.86
   7 -15   6   20.73    6.98
  -7 -15   6   17.32    4.81
  -7  15  -7   54.66    7.62
  -7  15   7   63.06   10.79
   7  15   7   57.11    9.28
   7 -15  -7   70.59    9.75
   7 -15   7   72.01    9.17
  -7 -15   7   71.45    9.52
  -7  15  -8   14.60    4.83
  -7  15   8   19.10    6.35
   7  15   8   11.79    4.09
   7 -15  -8   19.37    5.87
   7 -15   8   40.09    8.44
  -7 -15   8   12.45    3.94
  -7  15   9   14.81    5.57
   7 -15  -9    8.38    3.31
   7 -15   9    8.17    3.87
  -7 -15   9   20.34    4.59
  -7  15  10   -0.92    2.62
   7  15  10   16.65    6.23
   7 -15 -10    3.81    2.91
   7 -15  10    9.49    4.82
  -7 -15  10    5.56    3.70
  -7  16   0    7.18    2.52
   7  16   0   15.89    5.16
   7 -16   0    7.95    3.82
  -7  16  -1    3.07    1.77
  -7  16   1    5.94    2.77
   7  16   1    7.50    3.53
   7  16  -1    8.87    3.19
   7 -16  -1    2.32    3.02
   7 -16   1    6.04    3.52
  -7  16  -2   19.50    5.81
  -7  16   2    8.39    3.23
   7  16  -2   11.08    3.48
   7  16   2   19.07    5.56
   7 -16  -2   12.10    5.31
   7 -16   2   17.84    4.80
  -7  16  -3    5.41    3.01
  -7  16   3    9.35    4.25
   7  16  -3    7.06    1.99
   7  16   3    5.81    3.60
   7 -16  -3   15.38    4.61
   7 -16   3    6.47    4.38
  -7 -16   3    7.76    2.65
  -7  16  -4    5.64    2.09
  -7  16   4   20.00    6.65
   7  16  -4   12.96    4.06
   7  16   4   22.38    6.60
   7 -16  -4    5.46    3.12
  -7 -16   4    7.91    2.64
  -7  16  -5   20.77    4.54
  -7  16   5   22.41    5.03
   7  16   5   32.56    7.11
   7 -16  -5   10.75    3.63
   7 -16   5   18.61    6.28
  -7 -16   5   12.15    3.38
  -7  16  -6   26.01    4.93
  -7  16   6   20.37    5.07
   7  16   6   38.38    7.10
   7 -16   6   22.77    6.45
  -7 -16   6   31.38    5.77
  -7  16  -7    4.25    2.27
  -7  16   7    3.19    2.56
   7  16   7   -0.04    2.87
   7 -16  -7    7.22    4.24
   7 -16   7    4.66    3.73
  -7 -16   7    8.55    3.41
  -7  16   8   24.80    5.91
   7  16   8   41.65    8.69
   7 -16  -8   13.33    5.06
   7 -16   8   17.11    4.88
  -7 -16   8   24.13    5.57
  -7  16   9    4.65    3.08
   7  16   9    4.40    2.98
   7 -16  -9   14.56    5.96
   7 -16   9   10.56    5.67
  -7 -16   9    9.52    3.03
  -7  17   0    3.35    2.48
   7  17   0    9.12    4.45
   7 -17   0    6.47    3.68
  -7  17  -1   75.12   15.51
  -7  17   1  106.36   23.96
   7  17  -1   81.36   14.23
   7  17   1   97.48   22.99
   7 -17  -1   75.32   16.50
   7 -17   1  106.32   23.21
  -7  17  -2    5.09    2.05
  -7  17   2    4.29    2.79
   7  17  -2    9.84    3.96
   7  17   2    9.79    3.28
   7 -17  -2    6.19    3.41
   7 -17   2    5.57    3.21
  -7  17  -3   50.24    9.97
  -7  17   3   45.88   13.15
   7  17  -3   47.05   10.73
   7  17   3   56.87   11.25
   7 -17  -3   31.03    9.88
   7 -17   3   43.85    9.69
  -7  17  -4    4.43    2.17
  -7  17   4    6.83    5.38
   7  17   4    4.49    3.00
   7 -17  -4    5.12    3.37
   7 -17   4   11.33    5.30
  -7  17  -5   18.84    4.87
  -7  17   5   14.39    4.63
   7  17   5   18.73    5.47
   7 -17  -5   19.50    5.63
  -7 -17   5    9.25    3.28
  -7  17  -6   12.29    4.31
  -7  17   6   11.25    4.20
   7  17   6    1.59    2.88
   7 -17  -6    8.60    3.74
   7 -17   6    4.76    3.55
  -7 -17   6   14.47    5.21
  -7  18   0    4.98    2.66
   7  18   0    6.39    3.18
   7 -18   0    3.83    2.99
  -7  18  -1   12.24    4.69
  -7  18   1    0.99    2.49
   7  18  -1    6.13    2.55
   7  18   1    2.43    2.53
   7 -18  -1    7.39    3.10
   7 -18   1   10.04    5.32
  -8   0   0 1217.16   36.84
   8   0   0 1227.24   36.66
  -8   0   0 1140.67   33.54
  -8   0  -1   77.73   11.94
   8   0  -1   68.86    8.83
   8   0   1   66.80    8.59
  -8   0   1   64.94    8.53
  -8   0  -1   75.22    8.76
  -8   0  -2 3486.85  393.72
   8   0  -2 4056.57  457.95
   8   0   2 3887.16  438.77
  -8   0  -2 3651.95  412.20
  -8   0  -3  489.54   18.23
  -8   0   3  480.11   15.24
   8   0  -3  491.99   15.51
   8   0   3  478.20   14.53
  -8   0  -3  478.38   16.11
  -8   0  -4   94.63   10.94
  -8   0   4   91.47    9.70
   8   0  -4   85.22    7.32
   8   0   4   88.74    6.76
  -8   0  -4   74.61    9.32
  -8   0  -5   70.26   10.25
  -8   0   5   60.29    7.50
   8   0  -5   71.79    7.23
   8   0   5   61.21    5.91
  -8   0  -5   62.38    5.77
  -8   0  -6   74.47    9.90
  -8   0   6   68.36    8.07
   8   0  -6   56.61    6.30
   8   0   6   67.62    6.46
  -8   0  -6   62.76    6.28
  -8   0  -7    3.73    1.49
  -8   0   7    1.50    1.72
   8   0   7    1.01    0.71
   8   0  -7    1.45    2.26
   8   0   7    3.90    2.12
  -8   0  -8   10.73    3.73
  -8   0   8    2.26    1.70
   8   0   8    2.87    1.07
   8   0  -8    8.54    3.99
   8   0   8    7.22    2.79
  -8   0  -9   20.38    4.48
  -8   0   9   20.12    3.89
   8   0   9    8.99    1.95
   8   0  -9   17.52    3.93
   8   0   9   19.40    3.99
  -8   0 -10   28.67    7.63
  -8   0  10   21.33    5.36
   8   0 -10   18.85    5.58
   8   0  10   29.43    6.96
  -8   0 -11  107.96   11.72
  -8   0  11   94.93    8.64
   8   0 -11   97.81   16.91
  -8   0 -12   26.45    5.99
  -8   0  12   18.01    3.97
   8   0 -12   18.42    4.47
   8   0  12   19.05    4.04
  -8   0 -13    1.29    1.05
  -8   0  13   -0.66    1.33
   8   0 -13    2.26    1.98
   8   0  13    3.52    3.23
  -8   0 -14    4.03    1.26
  -8   0  14    4.85    2.31
   8   0 -14   10.31    3.91
   8   0  14    2.47    2.08
   8   0  15   52.61    5.20
   8   0 -15   34.76    8.94
   8   0  15   39.92    6.60
   8   0  16    6.12    2.37
   8   0 -16    5.31    2.31
   8   0  16    5.25    2.44
   8   0  17    3.00    1.71
   8   0 -17    9.86    4.13
   8   0 -18   26.27    5.99
  -8   1   0  411.14   13.41
   8   1   0  420.46   12.97
   8  -1   0  388.88   12.23
  -8  -1   0  380.82   11.56
  -8   1   0  377.74   11.61
  -8  -1  -1  199.56   17.31
  -8  -1   1  188.49   13.91
  -8   1  -1  187.90   15.69
  -8   1   1  191.67   14.22
   8   1  -1  192.59   13.90
   8   1   1  192.74   13.81
   8  -1  -1  186.02   13.53
   8  -1   1  201.71   14.53
  -8  -1   1  170.21   12.52
  -8  -1  -1  191.87   13.62
  -8   1  -1  174.60   12.46
  -8  -1  -2  161.77   18.74
  -8  -1   2  158.34   13.41
  -8   1  -2  149.29   11.27
  -8   1   2  139.72   13.23
   8   1  -2  150.57   11.13
   8  -1  -2  147.26   10.97
   8   1   2  137.75    9.96
  -8  -1   2  131.11    9.50
   8  -1   2  148.90   10.94
  -8  -1  -2  145.97   11.54
  -8   1  -2  132.23    9.51
  -8  -1  -3  114.92   12.93
  -8  -1   3  100.06    7.89
  -8   1   3  130.89   12.85
   8   1  -3  115.30    8.74
   8  -1  -3  109.80   12.88
   8   1   3   99.64    7.27
   8  -1   3  121.24    9.11
  -8  -1  -3  110.41    8.12
  -8   1  -3   91.80    7.19
  -8  -1  -4   54.60    8.42
  -8   1  -4   33.90    5.60
  -8  -1   4   20.62    3.68
  -8   1   4   43.44    7.35
   8   1  -4   42.92    5.91
   8  -1  -4   34.20    5.06
   8   1   4   25.14    4.75
   8  -1   4   43.98    5.94
  -8   1  -4   23.39    3.17
  -8  -1  -4   40.52    5.63
  -8  -1  -5  327.09   15.85
  -8   1  -5  314.94   16.05
  -8  -1   5  297.66   15.75
  -8   1   5  289.53   12.67
   8   1  -5  318.62   13.98
   8  -1  -5  335.32   14.50
   8   1   5  308.70   12.53
   8  -1   5  306.29   12.71
  -8   1  -5  305.76   12.52
  -8  -1  -5  309.10   12.48
  -8  -1  -6   51.18    8.75
  -8   1  -6   54.82   15.38
  -8  -1   6   50.87    6.56
  -8   1   6   43.84    6.66
   8   1   6   50.34    6.34
   8   1  -6   49.30    6.49
   8  -1  -6   55.71    6.39
   8   1   6   54.75   13.93
   8  -1   6   46.52    6.20
  -8   1  -6   48.39    5.79
  -8  -1  -7  153.69   14.08
  -8   1  -7  166.73   15.12
  -8  -1   7  173.02   13.97
  -8   1   7  164.48   15.70
   8   1   7  157.39   12.44
   8   1  -7  160.57   17.84
   8  -1  -7  188.42   14.99
   8   1   7  175.34   13.79
   8  -1   7  155.33   12.23
  -8  -1  -8   17.09    4.66
  -8   1  -8   33.81    5.25
  -8  -1   8   37.87    6.04
  -8   1   8   18.09    5.48
   8   1   8   13.58    4.51
   8   1  -8   10.73    4.03
   8  -1  -8   28.68    4.36
   8   1   8   35.30    4.94
   8  -1   8   11.59    3.75
  -8  -1  -9  169.58   12.68
  -8   1  -9  151.81   11.00
  -8  -1   9  141.85   10.01
  -8   1   9  179.11   14.83
   8   1   9  128.33    7.17
   8   1  -9  182.71   10.10
   8  -1  -9  155.62    8.85
   8  -1   9  177.67    9.21
   8   1   9  152.55    7.58
  -8  -1 -10   58.35   10.75
  -8   1 -10   70.66   12.44
  -8  -1  10   61.45   10.14
  -8   1  10   59.45    8.93
   8   1  10   35.27    6.98
   8   1 -10   55.31   12.35
   8  -1 -10   76.96   11.72
   8  -1  10   53.65    8.22
   8   1  10   56.05    8.26
  -8  -1 -11  261.49   20.33
  -8   1 -11  254.84   18.00
  -8   1  11  269.03   17.30
   8   1 -11  284.34   16.80
   8  -1 -11  311.03   18.26
   8   1  11  265.38   14.83
   8  -1  11  274.31   15.50
  -8  -1 -12   74.86   12.16
  -8   1 -12  101.34    8.10
  -8  -1  12   83.97    9.38
  -8   1  12   76.44   11.83
   8   1 -12   74.10   16.50
   8  -1 -12   94.78   14.27
   8  -1  12   74.37   10.56
   8   1  12   84.58    8.27
  -8  -1 -13   35.49    7.75
  -8   1 -13   42.13    8.50
  -8  -1  13   38.22    7.29
  -8   1  13   36.80    6.75
   8   1 -13   29.69    6.45
   8  -1 -13   38.24    8.69
   8  -1  13   35.75    7.47
   8   1  13   35.78    7.20
  -8   1 -14   18.63    4.45
  -8   1  14   25.13    5.51
   8   1  14   22.44    5.68
   8   1 -14   19.99    5.43
   8  -1 -14   17.06    4.68
   8  -1  14   22.42    5.24
   8   1  14   13.76    3.49
  -8   1 -15    1.40    1.36
  -8   1  15    4.73    1.27
   8   1  15    8.03    2.39
   8   1 -15    8.65    3.62
   8  -1 -15    7.51    2.88
   8  -1  15    6.02    2.33
   8   1  15    7.81    2.08
   8   1  16   22.10    6.11
   8  -1  16   23.26    5.05
   8   1 -16   22.46    5.74
   8  -1 -16   17.20    5.10
   8  -1  16   22.06    4.80
   8   1  17    3.59    1.81
   8  -1  17    5.64    2.24
   8   1 -17    1.42    1.72
   8  -1 -17    4.16    1.53
   8  -1  17    6.18    2.67
   8   1  18    1.96    1.62
   8   1 -18    3.42    2.37
   8  -1 -18   -6.83    2.62
   8   1 -19   12.48    4.91
   8  -1 -19    1.91    2.05
  -8  -2   0  832.00   25.40
  -8   2   0  769.87   23.66
   8   2   0  682.42   20.42
   8  -2   0  763.13   22.97
  -8  -2   0  767.59   22.69
  -8  -2  -1  823.90   25.19
  -8  -2   1  719.70   22.03
  -8   2  -1  717.12   22.23
  -8   2   1  780.26   23.90
   8   2  -1  682.51   20.54
   8   2   1  684.17   20.39
   8  -2  -1  703.72   21.40
  -8  -2   1  693.76   20.65
   8  -2   1  799.28   23.98
  -8  -2  -1  759.85   22.38
  -8  -2  -2  886.39   26.87
  -8  -2   2  890.68   26.93
  -8   2  -2  892.47   27.14
  -8   2   2  831.61   25.46
   8   2  -2  857.14   25.68
   8   2   2  767.91   22.68
   8  -2  -2  861.60   26.08
  -8  -2   2  852.26   25.31
   8  -2   2  900.59   26.92
  -8  -2  -2  870.82   25.51
  -8  -2  -3  442.05   15.98
  -8  -2   3  494.59   16.49
  -8   2  -3  517.42   16.35
  -8   2   3  521.95   16.53
   8   2  -3  528.18   16.33
   8   2   3  476.13   14.30
   8  -2  -3  544.63   17.09
   8  -2   3  546.74   16.70
  -8  -2  -3  527.97   15.72
  -8  -2  -4  356.27   18.89
  -8  -2   4  328.89   10.86
  -8   2  -4  359.59   16.37
  -8   2   4  336.30   11.31
   8   2  -4  327.55   10.87
   8  -2  -4  348.48   11.69
   8   2   4  313.64    9.42
   8  -2   4  341.78   11.03
  -8  -2  -4  339.08   10.11
  -8   2  -5  193.97   13.11
  -8  -2   5  204.75   11.73
  -8   2   5  232.91   13.56
   8   2   5  164.14    6.66
   8   2  -5  229.90   11.64
   8  -2  -5  193.20    8.97
   8   2   5  175.68    7.17
   8  -2   5  243.10   11.41
  -8  -2  -6    9.81    2.78
  -8   2  -6   13.54    2.86
  -8  -2   6   11.72    2.49
  -8   2   6    7.41    1.75
   8   2   6    9.19    1.67
   8   2  -6   15.24    3.36
   8  -2  -6    9.52    2.73
   8   2   6   14.21    2.37
   8  -2   6   16.31    3.64
  -8  -2  -7   15.86    5.09
  -8   2  -7   10.24    3.28
  -8  -2   7    6.65    2.61
  -8   2   7   15.02    4.56
   8   2   7    5.78    1.68
   8   2  -7    6.65    2.19
   8  -2  -7   17.48    5.57
   8   2   7    6.73    2.00
   8  -2   7    5.37    3.10
  -8  -2  -8   16.29    3.85
  -8   2  -8   13.81    3.02
  -8  -2   8   12.81    3.16
  -8   2   8   13.32    3.32
   8   2  -8   10.40    2.91
   8   2   8    8.82    1.82
   8  -2  -8   11.12    3.54
   8  -2   8    8.77    2.45
  -8  -2  -9   14.15    2.89
  -8   2  -9   18.48    4.67
  -8  -2   9   17.58    3.56
  -8   2   9   15.38    3.37
   8   2  -9   19.39    4.86
   8   2   9    8.77    1.80
   8  -2  -9   18.71    4.90
   8   2   9   20.18    3.78
   8  -2   9    7.88    2.45
  -8  -2 -10    4.93    1.55
  -8   2 -10   10.96    3.09
  -8  -2  10    4.53    1.85
  -8   2  10   11.98    3.52
   8   2 -10   11.91    4.67
   8   2  10    8.81    2.10
   8  -2 -10   10.78    4.58
   8   2  10    2.04    1.14
   8  -2  10    9.04    3.46
  -8  -2 -11    6.31    2.73
  -8   2 -11    2.90    1.56
  -8  -2  11    8.29    2.46
  -8   2  11    9.85    3.25
   8   2 -11    5.02    1.98
   8  -2 -11    8.69    4.83
   8  -2  11    5.99    3.14
  -8  -2 -12   89.53    9.73
  -8   2 -12   88.18    8.94
  -8  -2  12   72.71   10.51
  -8   2  12   87.94    7.25
   8   2 -12   87.84   13.33
   8  -2 -12   96.09   16.51
   8  -2  12   83.58   12.70
   8   2  12   91.94    7.17
  -8   2 -13   63.51   10.20
  -8  -2  13   54.82    7.09
  -8   2  13   68.11    7.97
   8   2  13   64.44   13.30
   8   2 -13   50.96   11.93
   8  -2 -13   48.22   11.89
   8  -2  13   66.31    5.00
   8   2  13   58.40    7.42
  -8   2 -14   69.76   11.19
  -8   2  14   68.11    8.91
   8   2  14   56.82   11.77
   8   2 -14   79.76   11.29
   8  -2 -14   79.72   15.97
   8  -2  14   72.34    8.91
   8   2  14   73.40    6.30
  -8   2 -15    5.97    1.77
  -8   2  15    5.06    2.06
   8   2  15   11.97    3.85
   8   2 -15    1.36    2.28
   8  -2 -15    8.77    2.99
   8  -2  15    0.59    2.20
   8   2  16    4.62    2.00
   8  -2  16    4.07    1.54
   8   2 -16    6.52    2.65
   8  -2 -16   -2.07    2.90
   8  -2  16    2.97    2.15
   8   2  17    7.88    2.56
   8   2 -17    4.72    2.44
   8  -2 -17    6.34    1.78
   8  -2  17    2.92    2.04
   8   2  18    5.73    2.22
   8   2 -18   10.20    3.11
   8  -2 -18    7.26    3.35
   8  -2  18    7.27    2.89
   8   2 -19    8.94    3.28
   8  -2 -19   11.59    3.92
  -8  -3   0  181.02   15.90
  -8   3   0  144.15   11.57
   8   3   0  150.68   11.17
  -8  -3   0  161.52   11.49
   8  -3   0  168.72   12.60
  -8  -3  -1  103.86    8.89
  -8  -3   1  128.13   13.85
  -8   3  -1  140.14   14.70
  -8   3   1  114.32   13.71
   8   3  -1   85.93    7.63
   8   3   1  114.86    8.93
  -8  -3   1  106.55    7.73
   8  -3  -1  125.81    9.72
   8  -3   1  109.01    8.39
  -8  -3  -1   97.75    7.03
  -8  -3  -2   40.46    6.60
  -8  -3   2   53.29    8.05
  -8   3   2   39.85    6.89
   8   3  -2   32.22    6.33
   8   3   2   47.31    6.64
  -8  -3   2   43.68    6.10
   8  -3  -2   50.30    6.89
   8  -3   2   39.44    5.66
  -8  -3  -2   43.06    5.53
  -8  -3  -3   60.04    9.32
  -8  -3   3   56.36    8.36
  -8   3  -3   52.61    8.00
  -8   3   3   52.79    7.33
   8   3  -3   60.36   10.56
   8   3   3   48.63    6.20
   8  -3  -3   67.41    8.85
   8  -3   3   59.53   10.30
  -8  -3  -3   51.16    6.32
  -8  -3  -4   51.31    7.53
  -8  -3   4   52.22    7.19
  -8   3  -4   50.00    7.84
  -8   3   4   52.82    8.34
   8   3  -4   38.22    6.41
   8  -3  -4   55.31   14.36
   8  -3   4   44.35    6.14
  -8  -3  -5  114.27   12.36
  -8  -3   5  101.98   10.64
  -8   3  -5   86.93    8.35
  -8   3   5   95.97    9.27
   8   3  -5   96.72   12.80
   8  -3  -5   91.00    8.78
   8  -3   5   92.90    9.10
  -8  -3  -6  149.66   12.86
  -8  -3   6  150.94   14.55
  -8   3  -6  161.93   16.70
  -8   3   6  146.27   14.55
   8   3  -6  133.62   15.19
   8  -3  -6  149.56   12.25
   8  -3   6  140.76   11.78
  -8  -3  -7  140.99   13.84
  -8  -3   7  129.51   13.15
  -8   3  -7  132.15   13.17
  -8   3   7  148.03   15.24
   8   3  -7  125.78   10.94
   8   3   7   93.75    7.26
   8  -3  -7  129.15   11.01
   8   3   7  108.44    8.16
   8  -3   7  139.97   11.30
  -8  -3  -8  242.61   15.55
  -8   3  -8  283.31   16.52
  -8  -3   8  259.65   18.38
  -8   3   8  230.21   11.61
   8   3  -8  205.21   12.34
   8   3   8  203.39    9.45
   8  -3  -8  275.63   15.25
   8   3   8  255.68   11.82
   8  -3   8  208.59   10.58
  -8  -3  -9   40.25    7.70
  -8   3  -9   22.21    5.70
  -8  -3   9   20.99    5.08
  -8   3   9   42.85    7.63
   8   3  -9   35.51    8.59
   8  -3  -9   20.50    5.51
   8   3   9   15.16    3.54
   8   3   9   22.32    5.21
   8  -3   9   35.14    6.12
  -8  -3 -10  110.21   10.65
  -8   3 -10  137.51   12.80
  -8  -3  10  111.08   13.11
  -8   3  10  127.67   10.85
   8   3 -10  119.54   16.92
   8  -3 -10  132.12    9.43
   8   3  10   98.44    8.82
   8  -3  10  120.57    8.13
   8   3  10  124.67    7.14
  -8  -3 -11    3.96    1.45
  -8   3 -11    4.24    1.46
  -8  -3  11    2.32    1.18
  -8   3  11    4.04    2.11
   8   3 -11    5.30    2.83
   8  -3 -11    5.13    4.44
   8  -3  11   -0.04    2.14
   8   3  11    4.91    1.89
  -8   3 -12   65.06    9.39
  -8  -3  12   50.85    6.58
  -8   3  12   48.37    5.65
   8   3  12   55.88   11.97
   8   3 -12   53.63    8.53
   8  -3 -12   70.54    9.16
   8  -3  12   51.86    7.53
   8   3  12   64.18    6.10
  -8   3 -13    3.48    1.45
  -8   3  13    3.90    3.09
   8   3  13    1.76    2.95
   8   3 -13    4.48    2.15
   8  -3 -13    5.21    2.75
   8  -3  13    9.32    3.93
   8   3  13    1.58    1.80
  -8   3 -14    6.03    2.28
  -8   3  14    6.93    3.09
   8   3  14    4.62    1.57
   8   3 -14    5.55    2.64
   8  -3  14    6.67    4.19
  -8   3 -15    2.79    1.62
  -8   3  15    6.84    2.19
   8   3  15    8.26    3.59
   8   3 -15   13.40    5.10
   8  -3  15   12.14    4.15
  -8   3 -16    8.19    2.50
  -8   3  16    5.16    1.22
   8   3  16   13.09    4.11
   8   3 -16   20.38    5.32
   8  -3 -16    8.74    2.94
   8  -3  16   18.21    5.35
   8   3  17   28.73    4.64
   8   3 -17   24.55    7.44
   8  -3 -17   25.87    7.93
   8  -3  17   22.25    6.25
   8   3  18    7.57    2.60
   8   3 -18    7.78    3.25
   8  -3 -18   10.73    3.63
   8  -3  18    3.51    2.50
  -8  -4   0    5.31    2.09
  -8   4   0    2.87    1.29
   8   4   0    3.91    1.13
  -8  -4   0    2.48    1.01
   8  -4   0    7.10    3.83
  -8  -4  -1   73.20   10.24
  -8  -4   1   97.91   10.02
  -8   4  -1  102.00   11.09
  -8   4   1   75.67   11.91
   8   4   1   77.21    9.04
   8   4  -1   70.72   10.46
  -8  -4   1   76.15    8.83
   8  -4  -1   89.83    8.86
  -8  -4  -1   67.11    8.61
   8  -4   1   68.08    9.12
  -8  -4  -2    5.50    1.71
  -8  -4   2    1.84    0.82
  -8   4  -2    9.66    2.29
  -8   4   2    6.90    2.72
   8   4   2    1.40    0.47
   8   4  -2    5.69    1.31
  -8  -4   2    2.50    0.74
   8  -4  -2    3.81    2.31
   8  -4   2    4.32    3.33
  -8  -4  -2    5.29    0.94
  -8  -4  -3  337.75   18.08
  -8  -4   3  374.09   16.06
  -8   4  -3  361.53   16.91
  -8   4   3  308.92   13.50
   8   4  -3  324.32   13.52
   8  -4  -3  365.79   16.88
   8  -4   3  327.37   13.98
  -8  -4  -4   68.62    9.23
  -8  -4   4   38.52    6.14
  -8   4  -4   44.43    5.95
  -8   4   4   73.10   10.60
   8   4  -4   56.21    8.05
   8  -4  -4   39.61    7.10
   8  -4   4   67.19    7.20
  -8  -4  -5  128.28   15.75
  -8  -4   5   98.27   11.21
  -8   4  -5  102.69   13.74
  -8   4   5  111.96   10.67
   8   4  -5  107.76   12.03
   8  -4  -5   90.44    8.80
   8  -4   5  124.46   12.05
  -8  -4   6   24.64    5.19
  -8   4  -6   20.37    5.64
  -8   4   6   35.14    5.60
   8   4  -6   36.51    6.68
   8  -4  -6   14.02    4.63
   8  -4   6   39.62    7.16
  -8  -4  -7   92.96   13.20
  -8  -4   7   73.44    9.96
  -8   4  -7   96.14   14.18
  -8   4   7  107.84   15.53
   8   4  -7   99.65   15.86
   8  -4  -7   71.98    8.51
   8  -4   7   96.24   10.79
  -8  -4  -8   12.96    3.13
  -8  -4   8   38.67    5.81
  -8   4  -8   38.19    6.18
  -8   4   8   13.00    3.23
   8   4  -8   22.14    5.13
   8  -4  -8   40.60    6.17
   8  -4   8   20.32    4.85
  -8  -4  -9   34.26    7.59
  -8  -4   9   20.32    5.25
  -8   4  -9   28.11    7.31
  -8   4   9   38.37    7.45
   8   4  -9   20.33    5.37
   8   4  -9   33.51    9.72
   8  -4  -9   11.91    3.42
   8   4   9   20.06    4.68
   8   4   9   18.52    4.42
   8  -4   9   40.61    6.77
  -8  -4 -10   16.36    4.04
  -8  -4  10   32.68    7.06
  -8   4 -10   35.46    7.84
  -8   4  10   24.30    5.63
   8   4 -10   23.59    5.84
   8  -4 -10   51.42    6.72
   8   4  10   35.98    7.08
   8  -4  10   13.61    4.48
  -8   4 -11  179.56   11.25
  -8  -4  11  162.56    9.43
  -8   4  11  184.16   14.12
   8   4  11  203.77   12.26
   8   4 -11  167.67   22.52
   8  -4 -11  187.14   11.40
   8   4  11  175.70    9.19
   8  -4  11  158.43    9.38
  -8   4 -12   68.76   10.79
  -8   4  12   73.91    9.25
   8   4  12   60.08    9.84
   8   4 -12   62.75   10.53
   8  -4 -12   83.07    7.65
   8  -4  12   63.69    7.12
  -8   4 -13   53.08    9.97
  -8   4  13   38.46    5.90
   8   4  13   62.68   11.19
   8   4 -13   45.32    8.15
   8  -4  13   45.75    7.17
  -8   4 -14   20.54    4.48
  -8   4  14   26.52    5.53
   8   4  14   28.80    5.71
   8   4 -14   27.92    6.14
   8  -4  14   17.39    4.73
  -8   4 -15   39.14    7.49
  -8   4  15   41.37    4.30
   8   4  15   55.56    9.11
   8   4 -15   47.62   10.08
   8  -4 -15   38.20    7.68
   8  -4  15   56.06    6.05
  -8   4  16    2.69    1.95
   8   4  16   15.77    4.05
   8   4 -16    9.76    4.32
   8  -4 -16    8.58    3.28
   8  -4  16    6.49    3.60
   8   4  17   36.07    5.65
   8   4 -17   16.16    5.81
   8  -4 -17   32.01    6.33
   8  -4  17   29.15    4.61
   8   4  18    0.25    1.02
   8   4 -18   14.73    4.68
   8  -4 -18    7.12    2.68
   8  -4  18    3.40    1.51
  -8  -5   0  376.99   22.74
  -8   5   0  325.38   14.36
   8   5   0  327.90   13.26
  -8  -5   0  302.14   12.25
   8  -5   0  342.51   14.70
  -8  -5  -1  255.67   14.73
  -8  -5   1  286.37   15.49
  -8   5   1  246.35   15.17
   8   5   1  230.07    9.66
   8   5  -1  223.55   10.09
  -8  -5   1  254.95   10.71
  -8  -5  -1  210.63    8.55
   8  -5  -1  270.63   12.06
   8  -5   1  239.92   11.03
  -8  -5  -2  655.32   31.09
  -8  -5   2  604.99   28.84
  -8   5  -2  567.34   23.46
  -8   5   2  630.90   25.97
   8   5  -2  595.94   24.19
  -8  -5   2  561.12   22.57
   8  -5  -2  607.95   24.92
  -8  -5  -2  585.00   23.07
   8  -5   2  623.64   27.04
  -8  -5  -2  496.32   19.60
  -8  -5  -3  369.86   19.40
  -8  -5   3  352.90   19.52
  -8   5  -3  328.36   14.25
  -8   5   3  361.03   15.53
   8   5  -3  369.71   15.28
   8  -5  -3  343.48   14.72
   8  -5   3  373.05   15.84
  -8  -5  -4  372.54   25.12
  -8  -5   4  375.96   21.57
  -8   5  -4  335.72   17.58
  -8   5   4  372.87   19.69
   8   5  -4  347.88   18.18
   8  -5  -4  378.99   19.85
   8  -5   4  368.31   19.29
  -8  -5  -5   70.92   11.74
  -8  -5   5   71.73   10.20
  -8   5  -5   61.51    7.96
  -8   5   5   57.29    8.61
   8   5  -5   69.05   10.86
   8  -5  -5   67.35    9.09
   8  -5   5   71.12    9.56
  -8  -5  -6  124.12   11.65
  -8  -5   6  125.63   12.99
  -8   5  -6  116.94   12.01
  -8   5   6  123.14   14.27
   8   5  -6  124.78   14.95
   8  -5  -6  113.03    9.93
   8  -5   6   95.58   16.26
  -8  -5   7   15.62    3.46
  -8   5  -7    6.11    1.91
  -8   5   7   31.56    6.57
   8   5  -7   36.35    6.00
   8  -5  -7   15.67    4.87
   8  -5   7   29.21    5.67
  -8  -5  -8  151.73   12.85
  -8  -5   8  109.92   17.05
  -8   5  -8  131.56   34.62
  -8   5   8  143.93   15.42
   8   5  -8  132.03   36.40
   8  -5  -8  128.69   32.67
   8  -5   8  161.48   12.91
  -8  -5   9   21.69    4.72
  -8   5  -9   28.43    6.54
  -8   5   9   23.35    5.46
   8   5  -9    8.14    2.57
   8   5  -9   19.65    4.64
   8  -5  -9   18.86    4.56
   8  -5   9   27.57    6.65
  -8   5 -10   10.51    3.02
  -8   5  10   15.25    4.66
   8   5  10    6.53    2.77
   8   5 -10   23.56    5.54
   8  -5 -10   18.45    4.54
   8  -5  10   15.92    4.87
  -8  -5  11   25.99    5.74
  -8   5 -11   45.29    7.48
  -8   5  11   46.55    5.57
   8   5  11   52.73    8.48
   8   5 -11   39.81    8.38
   8  -5 -11   45.39    5.53
   8  -5  11   53.50    7.01
  -8   5 -12    4.51    1.66
  -8   5  12    7.46    3.49
   8   5  12    9.15    4.50
   8   5 -12    8.07    2.91
   8  -5  12   11.66    4.74
  -8   5 -13   11.47    2.89
  -8   5  13    5.50    2.32
   8   5  13   10.02    4.42
   8   5 -13   11.96    4.60
   8  -5  13   11.41    3.68
  -8   5 -14   17.63    3.39
  -8   5  14   18.05    3.79
   8   5  14   14.31    4.80
   8   5 -14   18.83    4.76
   8  -5 -14   12.63    4.38
   8  -5  14   15.08    5.87
  -8   5 -15    7.17    2.16
  -8   5  15    9.21    3.22
   8   5  15    4.69    1.30
   8   5 -15    6.47    2.32
   8  -5 -15    4.83    3.47
   8  -5  15   10.22    3.61
  -8   5  16    5.89    2.32
   8   5  16   11.22    3.85
   8   5 -16    2.43    2.46
   8  -5 -16   10.47    3.45
   8  -5  16    8.88    3.32
   8   5  17    8.98    2.69
   8   5 -17    3.36    2.07
   8  -5 -17    2.61    1.74
   8  -5  17    9.10    3.67
   8   5  18    7.75    2.95
   8   5 -18    7.93    2.76
   8  -5 -18   12.86    4.21
   8  -5  18   27.20    7.43
  -8  -6   0   20.27    3.38
  -8  -6   0   20.88    3.05
   8  -6   0   28.33    5.86
  -8  -6  -1   14.04    2.85
  -8  -6   1   13.14    2.23
  -8   6  -1   17.38    3.11
  -8   6   1   12.48    3.43
   8   6  -1    7.24    1.56
  -8  -6   1   17.46    2.69
  -8  -6  -1   16.76    2.38
   8  -6  -1   23.49    4.61
   8  -6   1   16.56    3.53
  -8  -6  -1    7.73    1.22
  -8  -6  -2  206.73   13.00
  -8  -6   2  194.36   33.76
  -8   6  -2  188.20   15.05
  -8   6   2  185.28   14.72
   8   6  -2  192.16   32.82
  -8  -6   2  142.27   10.94
   8  -6  -2  192.51   32.50
  -8  -6  -2  177.55   13.41
   8  -6   2  189.43   15.02
  -8  -6  -2  180.64   13.61
  -8  -6  -3   48.46    7.12
  -8  -6   3   47.30    6.83
  -8   6  -3   46.80    6.49
  -8   6   3   37.71    7.63
   8   6  -3   43.06    6.63
   8  -6  -3   54.34    8.12
   8  -6   3   37.05    5.92
  -8  -6  -4  169.99   14.90
  -8  -6   4  158.19   16.34
  -8   6  -4  147.31   15.48
  -8   6   4  166.21   19.67
   8   6  -4  166.88   17.19
   8  -6  -4  166.15   19.03
   8  -6   4  145.09   13.91
  -8  -6  -5    9.89    2.68
  -8  -6   5    2.45    1.37
  -8   6  -5    0.77    1.35
  -8   6   5    5.31    1.77
   8   6  -5    2.53    1.45
   8  -6  -5    5.16    3.88
   8  -6   5    0.72    3.06
  -8  -6  -6  321.04   18.96
  -8  -6   6  297.35   14.59
  -8   6  -6  323.49   15.82
  -8   6   6  316.79   16.07
   8   6  -6  322.63   18.34
   8  -6  -6  312.57   15.61
   8  -6   6  313.15   21.04
  -8  -6   7   13.53    3.78
  -8   6  -7   23.07    6.29
  -8   6   7   11.36    4.21
   8   6  -7   12.78    3.55
   8  -6  -7   15.08    4.70
   8  -6   7   11.99    5.56
  -8  -6   8  180.17   10.97
  -8   6  -8  191.96   10.67
  -8   6   8  207.72   12.01
   8   6   8  181.95   10.97
   8   6  -8  217.32   18.74
   8  -6  -8  212.55   18.74
   8  -6   8  198.78   11.59
  -8  -6   9   25.02    5.19
  -8   6  -9   36.11    7.62
  -8   6   9   24.62    5.80
   8   6   9   24.11    5.98
   8   6  -9   33.20    7.61
   8  -6  -9   28.74    6.92
   8  -6   9   17.35    4.70
  -8  -6  10   81.86   21.78
  -8   6 -10  109.95    9.72
  -8   6  10  130.41    8.66
   8   6  10   97.35   12.83
   8   6 -10  153.85   20.15
   8  -6 -10  101.24    7.79
   8  -6  10  121.76    9.04
  -8   6 -11   45.04    6.64
  -8   6  11   33.34    7.13
   8   6  11   34.37    7.63
   8   6 -11   41.66    8.73
   8  -6  11   31.79    6.37
  -8   6 -12  100.13   10.03
  -8   6  12  115.89   13.23
   8   6  12   76.52   12.14
   8   6 -12  133.12   15.94
   8  -6 -12   95.64    7.95
   8  -6  12  135.00    9.82
  -8   6 -13   58.31   10.48
  -8   6  13   77.90    7.72
   8   6  13   86.04   13.50
   8   6 -13   54.75    7.56
   8  -6 -13  103.37   10.83
   8  -6  13   74.61    7.43
  -8   6 -14   24.37    6.54
  -8   6  14   25.55    7.29
   8   6  14   27.03    7.06
   8   6 -14   38.43    6.82
   8  -6 -14    9.69    4.04
   8  -6  14   23.60    6.82
  -8   6  15   25.20    6.09
   8   6  15   18.37    4.58
   8   6 -15   21.95    6.62
   8  -6 -15   13.28    4.33
   8  -6  15   26.06    6.75
  -8   6  16    5.98    1.80
   8   6  16   11.08    4.33
   8   6 -16   24.69    7.13
   8  -6 -16    8.03    2.41
   8  -6  16   14.45    5.20
  -8   6  17   24.38    5.74
   8   6  17   23.50    5.72
   8   6 -17   34.56    8.09
   8  -6 -17   31.14    7.65
   8   6  18    3.07    3.14
   8   6 -18    9.85    3.69
   8  -6 -18    6.20    2.71
   8  -6  18    8.08    4.26
  -8  -7   0  387.70   25.82
  -8   7   0  350.45   22.93
  -8  -7   0  252.90   12.85
   8  -7   0  329.87   17.72
  -8  -7   0  322.58   16.37
  -8  -7  -1  840.54  141.05
  -8  -7   1  768.50   38.86
  -8   7  -1  780.53  130.38
  -8   7   1  821.58  137.33
  -8  -7   1  642.61   32.24
  -8  -7  -1  696.25   34.74
   8  -7  -1  797.15  133.09
   8  -7   1  834.61  139.33
  -8  -7  -1  748.50   37.32
  -8  -7   1  761.31   38.18
  -8  -7  -2  219.20   15.86
  -8  -7   2  208.34   13.86
  -8   7  -2  200.14   11.34
  -8   7   2  206.06   11.56
  -8  -7  -2  165.18   12.47
   8  -7  -2  199.18   11.72
   8  -7   2  185.92   14.99
  -8  -7  -2  188.81   14.28
  -8  -7  -3  753.83   35.33
  -8  -7   3  777.49  173.89
  -8   7  -3  795.27  177.92
  -8   7   3  758.14   35.57
   8   7  -3  751.37   34.91
   8  -7  -3  802.29  179.82
   8  -7   3  743.44   34.82
  -8  -7  -4  185.94   12.53
  -8  -7   4  170.62   12.00
  -8   7  -4  139.52    7.94
  -8   7   4  186.49   17.23
   8   7  -4  194.14   11.72
   8  -7  -4  183.02   16.23
   8  -7   4  188.39   22.05
  -8  -7   5  277.62   18.22
  -8   7  -5  281.67   17.00
  -8   7   5  288.65   14.86
   8   7   5  267.45   17.58
   8   7  -5  296.58   16.12
   8  -7  -5  289.42   14.70
   8  -7   5  291.57   15.01
  -8  -7   6  106.53   17.10
  -8   7  -6  122.92   17.56
  -8   7   6  134.26   11.69
   8   7   6  114.46   18.91
   8   7  -6  146.18   13.41
   8  -7  -6  116.77   18.93
   8  -7   6  108.31   21.78
  -8  -7   7  174.44   11.10
  -8   7  -7  202.15   11.80
  -8   7   7  239.73   23.22
   8   7   7  173.47   10.34
   8   7  -7  215.26   15.13
   8  -7  -7  189.24   17.49
   8  -7   7  210.68   15.71
  -8  -7   8   95.27   10.94
  -8   7  -8  109.89    9.47
  -8   7   8  114.40   13.38
   8   7   8  108.76   11.25
   8   7  -8  127.59   14.57
   8  -7  -8  105.22    9.99
   8  -7   8  129.49    9.55
  -8   7  -9   36.94    5.89
  -8   7   9   31.22    6.69
   8   7   9   34.62    7.48
   8   7  -9   56.36    8.29
   8  -7  -9   45.00    7.58
   8  -7   9   67.26   10.04
  -8   7 -10   65.86   10.81
  -8   7  10   57.35    9.59
   8   7  10   64.58    7.43
   8   7 -10   52.33    6.24
   8   7 -10   82.33    9.45
   8  -7  10   60.28    7.16
  -8   7 -11   21.15    5.54
  -8   7  11   24.18    6.46
   8   7  11   15.25    4.65
   8   7 -11   31.22    5.42
   8  -7 -11   23.61    6.95
   8  -7  11   23.00    6.19
  -8   7 -12    6.40    1.85
  -8   7  12    6.57    2.61
   8   7  12    1.76    2.72
   8   7 -12    9.97    3.64
   8  -7 -12    7.06    4.32
   8  -7  12    0.32    3.15
  -8   7 -13    5.74    1.34
  -8   7  13   10.07    3.12
   8   7  13    9.83    3.73
   8   7 -13    5.78    2.46
   8  -7 -13   10.95    4.37
   8  -7  13   13.10    5.25
  -8   7  14   -0.50    2.14
   8   7  14    2.45    2.63
   8  -7 -14    3.26    2.84
  -8   7  15    4.28    2.10
   8   7  15    1.36    2.13
   8   7 -15   -2.05    2.39
   8  -7 -15    3.94    2.08
   8  -7  15    6.42    3.30
  -8   7  16    8.28    3.16
   8   7  16    3.89    3.23
   8   7 -16    4.24    2.69
   8  -7 -16    6.21    4.85
   8  -7  16   -0.39    2.95
  -8   7  17    6.78    3.18
   8   7  17    3.69    3.39
   8   7 -17    1.18    3.03
   8  -7 -17    1.74    1.92
   8  -7  17    4.14    3.05
  -8   8   0    4.78    2.34
  -8  -8   0    5.38    1.47
   8  -8   0    8.62    3.49
  -8  -8   0    7.05    1.89
  -8   8  -1    9.17    2.56
   8   8   1   18.81    4.46
  -8  -8   1   15.86    3.15
  -8  -8  -1   11.81    2.22
   8  -8  -1   28.81    6.58
   8  -8   1   21.36    5.24
  -8  -8  -1   18.56    3.53
  -8  -8   1   16.00    3.28
  -8   8  -2   11.16    3.15
  -8   8   2    7.57    3.07
   8   8   2   11.48    4.84
  -8  -8  -2    3.55    0.86
   8  -8  -2   16.34    5.10
   8  -8   2   12.68    5.16
  -8  -8  -2   11.59    2.20
  -8  -8   2    9.86    2.35
  -8   8  -3    4.14    2.02
  -8   8   3    5.36    2.37
   8   8   3    4.11    2.66
   8  -8  -3    3.84    3.07
   8  -8   3    0.76    3.36
  -8  -8   3    9.04    2.60
  -8   8  -4   95.91   16.33
  -8   8   4  139.78   17.19
   8   8   4   96.43   16.22
   8  -8  -4   97.11   17.55
   8  -8   4  118.02   17.22
  -8   8  -5   10.68    3.29
  -8   8   5    3.09    2.50
   8   8   5    7.91    2.78
   8   8  -5   10.92    3.06
   8   8  -5    5.18    2.23
   8  -8  -5   12.35    4.82
   8  -8   5   10.54    5.27
  -8   8  -6  194.78   14.58
  -8   8   6  222.15   19.70
   8   8   6  192.56   14.38
   8   8  -6  185.02   12.65
   8   8  -6  215.37   16.17
   8  -8  -6  187.32   20.13
   8  -8   6  203.29   18.69
  -8   8  -7   34.17    7.99
  -8   8   7    7.61    2.79
   8   8   7   41.98    9.74
   8   8  -7   12.10    3.65
   8   8  -7   16.14    3.58
   8  -8  -7   36.35    8.43
   8  -8   7   15.46    4.67
  -8   8  -8  239.52   15.65
  -8   8   8  258.81   14.89
   8   8   8  235.26   13.89
   8   8  -8  253.83   13.57
   8   8  -8  261.32   16.29
   8  -8   8  262.88   15.47
  -8   8  -9  115.47    8.12
  -8   8   9   78.25   13.52
   8   8   9  104.27    8.62
   8   8  -9   73.24    6.87
   8   8  -9   86.31   12.57
   8  -8   9   67.31    7.59
  -8   8 -10  128.26    9.84
  -8   8  10  134.84   13.00
   8   8  10  139.99   16.09
   8   8 -10  149.35   14.13
   8  -8 -10  134.39    9.44
   8  -8  10  102.78   17.50
  -8   8 -11    2.58    1.56
  -8   8  11    1.84    2.52
   8   8  11   11.93    4.79
   8   8 -11    2.50    2.25
   8  -8 -11    3.64    3.20
   8  -8  11    2.58    3.33
  -8   8 -12    5.64    1.82
  -8   8  12    7.25    3.28
   8   8  12   17.85    4.21
   8   8 -12   10.06    3.85
   8  -8 -12    9.75    4.84
   8  -8  12    7.95    4.73
  -8   8 -13    2.72    1.28
  -8   8  13   10.69    4.37
   8   8  13   10.14    4.41
   8   8 -13   13.35    4.35
   8  -8 -13    7.29    3.31
   8  -8  13   17.79    6.15
  -8   8  14    1.39    1.69
   8   8  14    1.13    2.29
   8   8 -14    4.48    2.12
   8  -8 -14    2.48    2.66
   8  -8  14    3.84    3.18
  -8   8  15    6.85    2.37
   8   8  15    6.45    2.62
   8  -8 -15    4.98    3.04
   8  -8  15   20.66    6.59
  -8   8  16    4.43    2.68
   8   8  16   13.31    4.82
   8   8 -16   17.69    5.30
   8  -8 -16    1.00    2.88
   8  -8  16   19.92    5.44
  -8   8  17    8.43    3.53
   8   8  17   -0.81    2.64
   8   8 -17    3.56    2.14
   8  -8 -17    1.34    2.07
   8  -8  17    9.13    3.80
  -8   9   0   31.31    9.45
   8   9   0   29.19    7.38
  -8  -9   0   26.30    6.26
   8  -9   0   30.76    8.34
  -8  -9   0   28.43    6.83
  -8   9  -1  185.52   11.01
  -8   9   1  215.62   16.88
   8   9  -1  193.41   10.86
   8   9   1  174.38   10.23
  -8  -9  -1  146.44    8.50
   8  -9  -1  190.13   11.30
   8  -9   1  217.06   12.65
  -8  -9  -1  192.08    9.90
  -8  -9   1  180.96   10.73
  -8   9  -2   48.61    9.47
  -8   9   2   32.55    9.58
   8   9  -2   30.25    7.48
   8   9   2   39.70    7.18
  -8  -9  -2   10.38    2.43
   8  -9  -2   33.14    9.30
   8  -9   2   44.83    8.47
  -8  -9  -2   37.65    5.88
  -8  -9   2   31.86    8.32
  -8   9  -3   23.74    6.69
  -8   9   3   29.93    7.93
   8   9  -3   19.94    5.70
   8   9   3   21.02    6.06
  -8  -9  -3    9.62    2.20
   8  -9  -3   15.78    5.49
  -8  -9  -3   14.90    3.69
   8  -9   3   32.04    9.69
  -8  -9   3   16.86    4.54
  -8   9  -4   23.02    5.00
  -8   9   4   16.19    4.91
   8   9   4   15.20    5.33
   8   9  -4   21.09    4.87
   8  -9  -4   22.20    5.80
   8  -9   4   13.20    4.89
  -8  -9   4   25.15    5.42
  -8   9  -5   34.92    7.45
  -8   9   5   60.42    7.81
   8   9  -5   48.95    4.83
   8   9   5   37.96    8.48
   8  -9  -5   39.71    8.67
   8  -9   5   50.33    7.24
  -8  -9   5   42.78    8.83
  -8   9  -6    9.57    3.37
  -8   9   6    2.19    1.62
   8   9   6    3.63    2.21
   8   9  -6    2.56    1.35
   8  -9  -6   -2.43    2.83
   8  -9   6    6.34    2.90
  -8  -9   6    6.88    3.87
  -8   9  -7   41.47    7.76
  -8   9   7   41.73    6.71
   8   9   7   32.92    7.16
   8   9  -7   39.08    6.65
   8  -9   7   46.82    7.53
  -8  -9   7   44.21    6.21
  -8   9  -8    2.81    1.79
  -8   9   8    7.54    2.67
   8   9   8   11.52    4.48
   8   9  -8    6.09    2.38
   8   9  -8    3.65    2.12
   8  -9   8    9.90    5.91
  -8   9  -9   25.20    5.93
  -8   9   9   29.14    7.06
   8   9  -9   21.24    4.89
   8   9   9   30.23    5.88
   8   9  -9   26.90    6.62
   8  -9  -9   26.89    6.64
   8  -9   9   34.89    7.00
  -8   9 -10   70.66    6.09
  -8   9  10   51.45   11.68
   8   9  10   66.07    7.16
   8   9 -10   69.11    8.88
   8  -9 -10   75.95    7.81
   8  -9  10   76.85    8.30
  -8   9 -11   82.76   12.83
  -8   9  11  104.78   14.67
   8   9  11   96.72    9.56
   8   9 -11   94.01   13.90
   8  -9 -11  109.65   11.74
   8  -9  11   95.33   11.00
  -8   9 -12   12.61    3.83
  -8   9  12    9.38    3.94
   8   9  12   10.65    4.17
   8   9 -12   14.02    4.14
   8  -9 -12    9.71    4.14
   8  -9  12    8.69    3.88
  -8   9  13   14.49    4.63
   8   9  13    6.17    3.08
   8   9 -13   22.18    5.27
   8  -9 -13   17.05    5.26
   8  -9  13   22.17    6.31
  -8   9  14   25.14   10.71
   8   9  14   51.39    7.86
   8   9 -14   44.82    9.04
   8  -9 -14   50.94    8.13
   8  -9  14   53.92    8.23
  -8   9  15   14.26    5.32
   8   9  15   21.27    4.93
   8   9 -15   33.04    6.72
   8  -9 -15   18.51    4.92
   8  -9  15   10.29    3.89
  -8   9  16   17.40    5.69
   8   9  16   19.77    5.73
   8   9 -16   15.83    4.84
   8  -9 -16   17.63    5.69
   8  -9  16   20.85    6.56
  -8  10   0    2.23    2.36
   8  10   0    1.16    0.94
   8 -10   0   12.03    5.88
  -8 -10   0    2.11    1.12
  -8  10  -1   11.21    4.58
  -8  10   1   10.53    3.54
   8  10  -1   10.26    3.29
   8  10   1    4.17    2.28
   8 -10  -1   22.10    5.90
   8 -10   1    9.13    4.25
  -8 -10  -1   11.78    3.53
  -8 -10   1    8.58    2.55
  -8  10  -2   30.93    6.99
  -8  10   2   21.01    5.16
   8  10  -2   25.08    5.88
   8  10   2   19.22    4.42
   8 -10  -2   30.29    8.55
   8 -10   2   27.83    7.10
  -8 -10  -2   26.49    5.08
  -8 -10   2   34.06    6.88
  -8  10  -3  194.93   12.13
  -8  10   3  155.90   13.83
   8  10  -3  136.18    8.72
   8  10   3  174.83   11.46
   8 -10  -3  175.30   17.27
  -8 -10  -3  139.20    7.68
   8 -10   3  159.64   10.88
  -8 -10   3  182.64   14.48
  -8  10  -4   21.86    5.46
  -8  10   4   14.42    4.28
   8  10  -4   14.05    3.58
   8  10   4   15.62    4.53
   8 -10  -4   22.49    5.48
   8 -10   4   22.37    6.54
  -8 -10   4   13.62    3.29
  -8  10  -5   31.58    6.88
  -8  10   5   16.89    4.43
   8  10   5   19.82    4.83
   8  10  -5    7.60    2.80
   8 -10  -5   18.70    4.71
   8 -10   5    7.44    3.81
  -8 -10   5   27.67    5.99
  -8  10  -6   48.96    5.49
  -8  10   6   26.57    6.06
   8  10  -6   30.00    5.69
   8 -10   6   40.21    8.51
  -8 -10   6   46.20    5.42
  -8  10  -7  129.68    8.88
  -8  10   7   85.82   13.37
   8  10  -7   86.23    7.60
   8  10   7  115.88   13.42
   8 -10  -7  118.59    9.37
   8 -10   7   80.79   15.57
  -8 -10   7  121.74    8.77
  -8  10  -8   67.82    5.18
  -8  10   8   52.57    8.33
   8  10  -8   47.12    7.49
   8  10   8   57.64    9.21
   8 -10  -8   62.05   13.11
   8 -10   8   61.76    8.99
  -8 -10   8   68.79    6.10
  -8  10  -9   10.55    2.87
  -8  10   9   16.86    5.20
   8  10   9   15.01    4.78
   8 -10  -9   18.01    5.37
   8 -10   9   15.18    6.39
  -8 -10   9   24.79    5.48
  -8  10 -10   12.63    4.02
  -8  10  10    5.08    2.87
   8  10  10   12.32    4.47
   8 -10 -10   14.60    4.78
   8 -10  10    1.46    3.32
  -8 -10  10   23.93    4.67
  -8  10 -11    2.80    1.34
  -8  10  11    5.82    2.69
   8  10  11    8.41    4.00
   8 -10 -11   14.34    6.50
   8 -10  11    4.41    3.19
  -8 -10  11   10.79    4.23
  -8  10 -12    4.71    1.31
  -8  10  12    0.99    2.64
   8  10  12    0.48    2.70
   8 -10 -12    5.79    4.26
   8 -10  12   -3.01    3.16
  -8 -10  12    3.14    2.72
  -8  10  13    8.98    3.33
   8  10  13    2.44    1.49
   8 -10  13    8.16    3.55
  -8 -10  13   12.60    4.80
  -8  10  14    7.98    2.92
   8  10  14    4.32    3.14
   8 -10 -14    9.01    3.22
   8 -10  14    9.88    4.99
  -8 -10  14    1.14    2.71
  -8  10  15    3.30    1.83
   8  10  15    4.44    2.73
   8 -10 -15    7.94    4.69
   8 -10  15   -0.51    3.26
  -8 -10  15   11.83    4.73
  -8  11   0   23.04    5.37
   8  11   0   40.33    6.83
   8 -11   0   14.64    4.47
  -8 -11   0   35.17    6.73
  -8  11  -1   12.07    3.79
  -8  11   1   26.75    6.11
   8  11   1    9.02    3.53
   8  11  -1   17.22    4.12
   8 -11  -1   14.32    5.22
   8 -11   1   22.86    6.64
  -8 -11  -1   17.17    3.79
  -8 -11   1    4.29    2.13
  -8  11  -2   33.65    6.98
  -8  11   2   53.14    9.98
   8  11  -2   34.65    7.04
   8  11   2   35.65    7.23
   8 -11  -2   26.46    6.30
   8 -11   2   49.09    8.61
  -8 -11  -2   37.94    5.63
  -8 -11   2   38.04    5.55
  -8  11  -3   10.92    3.61
   8  11   3   16.23    5.13
   8  11  -3    4.21    2.22
   8 -11  -3   15.53    5.16
  -8 -11  -3    3.81    1.24
   8 -11   3   21.12    6.33
  -8 -11   3    7.94    2.70
  -8  11  -4   19.93    4.76
  -8  11   4   15.35    4.16
   8  11  -4   21.74    4.60
   8  11   4   12.67    4.56
   8 -11  -4   20.89    5.41
   8 -11   4   12.86    4.39
  -8 -11   4   17.70    3.71
  -8  11  -5    9.41    3.81
  -8  11   5   14.59    4.74
   8  11  -5   21.46    4.70
   8  11   5    3.17    3.63
   8 -11   5   10.07    4.60
  -8 -11   5   11.13    4.37
  -8  11  -6   67.45    9.63
  -8  11   6   59.06   11.94
   8  11  -6   62.13   10.00
   8  11   6   67.36    6.35
   8 -11  -6   65.45   15.38
   8 -11   6   75.14    8.25
  -8 -11   6   75.70    5.62
  -8  11  -7   42.57    7.30
  -8  11   7   45.27    9.50
   8  11  -7   41.25    7.91
   8  11   7   36.93    8.26
   8 -11  -7   60.85    7.14
   8 -11   7   39.54    8.46
  -8 -11   7   43.26    7.46
  -8  11  -8    6.80    2.52
  -8  11   8   -0.38    2.57
   8  11   8    4.97    2.98
   8 -11  -8    5.50    3.66
   8 -11   8   10.35    4.60
  -8 -11   8   11.03    3.82
  -8  11  -9    4.58    2.54
  -8  11   9    9.80    4.47
   8  11   9    2.01    2.27
   8 -11  -9    1.79    3.21
   8 -11   9    8.43    4.66
  -8 -11   9    4.86    2.40
  -8  11 -10    6.86    2.37
  -8  11  10    4.22    3.54
   8  11  10    8.92    3.36
   8 -11 -10   11.94    3.76
   8 -11  10    2.59    3.32
  -8 -11  10   12.08    5.69
  -8  11 -11    8.88    2.84
  -8  11  11    4.83    2.83
   8  11  11   11.52    4.44
   8 -11 -11    5.87    3.07
   8 -11  11    4.90    3.53
  -8 -11  11    9.96    4.21
  -8  11  12   37.26    8.77
   8  11  12   37.77    7.02
   8 -11  12   30.00    7.62
  -8 -11  12   51.07    9.04
  -8  11  13    6.70    2.75
   8  11  13    8.39    3.14
   8 -11 -13    2.53    2.68
   8 -11  13   14.03    4.11
  -8 -11  13    8.05    3.24
  -8  11  14   39.19    8.83
   8  11  14   65.06   14.26
   8 -11 -14   23.01    5.62
   8 -11  14   37.41    8.05
  -8 -11  14   55.49   11.30
   8  11  15   12.62    4.81
   8 -11  15   15.94    5.71
  -8  12   0    8.39    2.50
   8  12   0    7.07    3.42
   8 -12   0   14.58    6.13
  -8 -12   0    8.54    2.52
  -8  12  -1    2.72    3.08
  -8  12   1    7.88    4.82
   8  12   1    2.25    2.21
   8  12  -1    5.24    1.59
   8 -12  -1    9.85    3.51
   8 -12   1    3.72    3.62
  -8 -12  -1    1.36    1.09
  -8 -12   1    3.83    1.97
  -8  12  -2   48.71    7.49
  -8  12   2   61.43   10.25
   8  12  -2   42.24    6.59
   8  12   2   67.63    7.63
   8 -12  -2   53.36    8.21
   8 -12   2   53.45   10.43
  -8 -12   2   50.97    6.68
  -8  12  -3  134.35   15.00
  -8  12   3  125.59   11.62
   8  12  -3  106.42   12.15
   8  12   3  119.67   13.86
   8 -12   3  138.11   10.19
  -8 -12   3  121.92    9.55
  -8  12  -4  112.99    7.70
  -8  12   4  114.53   14.09
   8  12  -4  113.50   10.29
   8  12   4  120.09    8.94
   8 -12   4  138.11   10.53
  -8 -12   4  105.21    6.90
  -8  12  -5  129.72   15.20
  -8  12   5  118.57   13.17
   8  12  -5  125.17   10.15
   8  12   5  116.89   11.60
   8 -12  -5  107.51   12.47
   8 -12   5  109.12   17.32
  -8 -12   5  132.92   10.89
  -8  12  -6   99.96   11.94
  -8  12   6  111.22   14.85
   8  12  -6  106.00   10.80
   8  12   6  116.90   12.25
   8 -12  -6  107.24    9.77
   8 -12   6  117.38   11.19
  -8 -12   6  115.07   12.91
  -8  12  -7  163.87   13.70
  -8  12   7  188.32   38.41
   8  12  -7  153.62   15.09
   8  12   7  166.52   21.50
   8 -12  -7  164.54   14.44
   8 -12   7  178.41   33.77
  -8 -12   7  159.96   13.62
  -8  12  -8   29.62    7.56
  -8  12   8   22.70    6.29
   8  12   8   28.80    7.78
   8 -12   8   15.11    5.28
  -8 -12   8   28.33    7.45
  -8  12  -9   84.87   12.37
  -8  12   9   92.75   16.57
   8  12   9   94.88   14.71
   8 -12  -9   96.17   13.53
   8 -12   9   74.45   10.45
  -8 -12   9  107.25   13.71
  -8  12 -10   11.14    3.57
  -8  12  10    6.15    2.61
   8  12  10    9.34    4.42
   8 -12 -10   13.32    4.71
   8 -12  10   13.68    4.51
  -8 -12  10    7.21    4.31
   8  12  11   42.89    6.56
   8 -12 -11   25.67    5.09
   8 -12  11   31.78    5.69
  -8 -12  11   42.42    6.59
  -8  12  12    9.26    3.18
   8  12  12    5.53    3.07
   8 -12 -12    1.26    2.85
   8 -12  12   18.19    6.52
  -8 -12  12    3.88    2.70
  -8  12  13   20.19    5.63
   8  12  13    5.76    3.05
   8 -12 -13    3.10    2.96
   8 -12  13    6.29    4.29
  -8 -12  13   18.29    5.37
  -8  12  14    0.30    2.70
   8  12  14    2.80    3.18
   8 -12 -14    4.19    3.05
   8 -12  14    7.40    3.70
  -8 -12  14   13.82    5.17
  -8  13   0  110.49   12.92
   8  13   0  114.64   12.70
   8 -13   0  125.27   11.85
  -8 -13   0   95.69    8.41
  -8  13  -1    4.31    1.91
  -8  13   1    7.88    3.13
   8  13   1    6.59    3.12
   8  13  -1    6.17    2.87
   8 -13  -1   17.98    6.51
   8 -13   1    5.42    3.91
  -8 -13   1    6.96    2.60
  -8  13  -2   55.43   12.02
  -8  13   2   47.00    8.73
   8  13  -2   46.56    8.59
   8  13   2   56.60   11.34
   8 -13   2   51.45   10.15
  -8 -13   2   52.78    8.94
  -8  13  -3   15.63    4.42
  -8  13   3   17.72    5.64
   8  13  -3    7.97    3.11
   8  13   3    7.96    3.52
   8 -13  -3   11.91    3.90
   8 -13   3   10.84    4.07
  -8 -13   3   14.23    3.85
  -8  13  -4  104.04   10.57
  -8  13   4  117.89   14.69
   8  13  -4  108.33   12.41
   8  13   4  127.03   14.45
   8 -13  -4  100.89   16.53
   8 -13   4   98.91    9.68
  -8 -13   4  111.95    9.53
  -8  13  -5   33.93    5.91
  -8  13   5   42.63    8.00
   8  13  -5   39.34    7.77
   8  13   5   22.96    4.94
   8 -13  -5   37.35    7.22
   8 -13   5   32.23    7.02
  -8 -13   5   47.19    5.14
  -8  13  -6   12.85    3.85
  -8  13   6    1.94    1.53
   8  13  -6    6.01    2.32
   8  13   6    9.60    5.11
   8 -13  -6    9.76    5.28
   8 -13   6    3.41    4.84
  -8 -13   6    6.90    3.13
  -8  13  -7   36.40    7.81
  -8  13   7   50.65    8.29
   8  13   7   50.91    8.48
   8 -13  -7   45.47    8.32
   8 -13   7   72.80   11.30
  -8 -13   7   54.40    7.52
  -8  13  -8    5.04    2.19
  -8  13   8    5.36    2.65
   8 -13  -8   11.37    3.99
   8 -13   8   12.12    4.34
  -8 -13   8   10.08    4.60
  -8  13  -9   27.04    7.11
  -8  13   9   36.76    6.78
   8  13   9   17.64    5.47
   8 -13   9   26.30    7.54
  -8 -13   9   28.54    7.27
  -8  13  10   14.18    4.54
   8  13  10   36.20    6.12
   8 -13 -10   21.90    6.87
   8 -13  10   14.47    4.88
  -8 -13  10   21.65    6.67
  -8  13  11   22.12    5.00
   8  13  11   30.94    6.88
   8 -13 -11   17.72    5.84
   8 -13  11    8.53    3.83
  -8 -13  11   21.70    5.22
  -8  13  12   22.29    6.78
   8  13  12   15.48    4.94
   8 -13 -12   10.07    3.96
   8 -13  12   20.59    5.36
  -8 -13  12   17.22    4.78
  -8  14   0    8.83    3.70
   8  14   0    2.54    1.97
   8 -14   0   12.98    4.79
  -8  14  -1   15.94    5.85
  -8  14   1   27.49    7.38
   8  14  -1   23.40    6.57
   8  14   1   26.98    7.31
   8 -14   1   35.02    4.92
  -8 -14   1   25.44    6.28
  -8  14  -2   90.86   10.93
  -8  14   2   88.43   13.15
   8  14   2   71.31    9.97
   8  14  -2   82.56    9.12
   8 -14  -2   92.04    9.19
   8 -14   2   92.62   11.01
  -8 -14   2   89.59    8.34
  -8  14  -3   10.93    4.56
  -8  14   3   32.93    4.47
   8  14  -3   15.91    5.36
   8  14   3   17.30    5.49
   8 -14  -3   12.58    4.89
   8 -14   3   15.27    5.26
  -8 -14   3   10.97    3.58
  -8  14  -4    7.31    3.03
  -8  14   4   18.91    6.44
   8  14  -4    9.96    3.57
   8  14   4   17.01    5.29
   8 -14  -4   11.12    4.54
   8 -14   4   -2.02    3.56
  -8 -14   4   18.84    5.11
  -8  14  -5   62.52   10.46
   8  14  -5   63.37   10.48
   8  14   5   70.97   11.25
   8 -14  -5   83.81   11.88
   8 -14   5   72.37   10.31
  -8 -14   5   64.83   10.00
  -8  14  -6   39.81    7.29
  -8  14   6   40.86    6.75
   8  14   6   49.43    8.59
   8 -14  -6   26.92    6.45
   8 -14   6   38.76    9.31
  -8 -14   6   48.62    6.98
  -8  14  -7   15.21    5.73
  -8  14   7   26.98    7.32
   8  14   7   21.89    6.16
   8 -14   7   38.03    7.77
  -8 -14   7   35.46    6.18
  -8  14  -8   13.36    4.23
  -8  14   8   19.49    6.83
   8  14   8    5.02    2.88
   8 -14  -8   12.42    5.17
   8 -14   8   23.73    7.37
  -8 -14   8   24.84    7.47
  -8  14  -9   24.62    5.90
  -8  14   9   25.49    5.89
   8  14   9   17.61    5.63
   8 -14  -9   11.02    3.18
   8 -14   9   21.92    5.22
  -8 -14   9   11.01    3.22
  -8  14  10   11.69    5.44
   8  14  10   -1.95    2.96
   8 -14  10   14.69    5.17
  -8 -14  10    1.55    2.53
  -8  14  11    1.51    2.28
   8  14  11   12.49    6.61
   8 -14 -11    4.53    3.20
   8 -14  11   14.73    5.89
  -8 -14  11    9.01    3.60
  -8  15   0    3.36    2.37
   8  15   0    2.54    2.19
  -8  15  -1    4.81    2.11
  -8  15   1    5.63    2.90
   8  15   1    3.42    1.82
   8  15  -1    4.28    2.51
   8 -15  -1    8.94    4.12
   8 -15   1    4.84    3.57
  -8  15  -2   11.31    4.00
  -8  15   2    5.71    2.65
   8  15  -2    5.02    2.64
   8  15   2   20.84    9.68
   8 -15  -2    3.53    3.40
   8 -15   2    5.28    3.44
  -8  15  -3    4.64    2.36
  -8  15   3    4.75    2.62
   8  15  -3    4.26    1.80
   8  15   3    2.87    1.30
   8 -15  -3    4.87    3.26
   8 -15   3    4.95    2.92
  -8 -15   3    4.61    2.26
  -8  15  -4   -1.05    2.09
  -8  15   4    3.52    2.80
   8  15  -4    3.59    2.04
   8  15   4   14.02    4.27
   8 -15  -4    3.19    3.12
   8 -15   4    4.57    5.19
  -8 -15   4    5.67    2.71
  -8  15  -5   21.44    5.93
  -8  15   5   30.90    5.61
   8  15  -5   13.94    4.26
   8  15   5   13.62    4.75
   8 -15  -5   10.43    4.95
   8 -15   5   26.42    5.63
  -8 -15   5   26.44    4.42
  -8  15  -6    4.02    1.97
  -8  15   6    9.31    3.20
   8  15   6    2.76    2.78
   8 -15  -6    4.15    3.34
  -8 -15   6    4.88    2.27
  -8  15  -7   12.61    3.93
  -8  15   7   23.74    6.37
   8  15   7   11.47    4.61
   8 -15  -7   15.43    4.65
   8 -15   7   16.86    5.01
  -8 -15   7   17.14    5.31
  -8  15   8    4.75    3.49
   8  15   8    4.62    2.19
   8 -15  -8   17.49    5.42
   8 -15   8    9.57    4.10
  -8 -15   8    6.70    3.33
  -8  15   9   21.39    6.32
   8  15   9    6.65    2.99
   8 -15  -9    2.94    2.51
   8 -15   9    9.14    4.57
  -8 -15   9   20.37    5.39
  -8  15  10    3.19    2.86
   8  15  10    0.39    2.91
   8 -15 -10    0.15    2.88
   8 -15  10    5.26    2.66
  -8 -15  10    3.94    2.44
  -8  16   0    5.04    2.16
   8  16   0    5.55    2.60
   8 -16   0    3.83    3.09
  -8  16  -1    0.08    2.31
   8  16   1    2.73    2.62
   8  16  -1   12.45    4.13
   8 -16  -1    9.62    4.94
   8 -16   1   11.57    5.35
  -8  16  -2    3.19    3.73
  -8  16   2    9.55    3.37
   8  16  -2   12.03    3.83
   8  16   2   15.74    5.51
   8 -16  -2   18.44    6.61
  -8  16  -3    2.60    2.20
  -8  16   3   14.67    5.39
   8  16  -3    1.29    1.27
   8  16   3    4.21    2.53
   8 -16  -3    3.30    4.70
   8 -16   3    2.92    3.32
  -8  16  -4    0.79    1.43
  -8  16   4   -0.17    2.62
   8  16  -4    0.22    1.34
   8  16   4    0.33    2.60
   8 -16  -4    3.54    3.32
   8 -16   4    7.04    5.04
  -8  16  -5    9.69    3.27
  -8  16   5    3.22    2.74
   8  16   5    9.01    4.14
   8 -16  -5    5.38    3.33
   8 -16   5    4.79    3.73
  -8 -16   5   -0.84    2.00
  -8  16  -6    5.11    2.01
   8  16   6    6.98    3.20
   8 -16  -6   11.13    5.34
   8 -16   6   12.01    5.73
  -8 -16   6    4.37    2.01
  -8  16  -7   -0.65    1.59
  -8  16   7    2.66    3.52
   8  16   7    4.04    3.46
   8 -16  -7   12.20    4.82
   8 -16   7    6.52    5.03
  -8 -16   7    7.07    3.59
  -8  16   8    2.28    3.18
   8  16   8    1.64    1.53
   8 -16  -8    7.06    4.41
   8 -16   8    5.79    3.44
  -8 -16   8    3.52    2.20
  -8  17   0    8.73    3.57
  -8  17  -1   10.43    4.29
  -8  17   1   21.97    6.00
   8  17   1   22.62    6.57
   8  17  -1   19.09    4.85
   8 -17  -1   14.11    5.27
   8 -17   1   13.43    4.78
  -8  17  -2   20.02    5.32
  -8  17   2   24.24    6.35
   8  17  -2   23.44    5.97
   8  17   2   37.01    8.18
   8 -17  -2   17.19    5.42
   8 -17   2   22.72    6.14
  -8  17  -3   11.02    4.06
  -8  17   3    5.96    3.95
   8  17  -3    1.23    0.88
   8  17   3    8.26    3.17
   8 -17  -3   11.21    5.23
  -8  17   4   19.51    5.44
   8  17   4   13.74    4.94
   8 -17  -4   11.74    4.42
   8 -17   4   17.77    7.02
   8  17   5   11.99    5.19
  -9   0   0    5.22    2.42
   9   0   0    2.04    1.29
  -9   0  -1  167.29   10.58
  -9   0   1  158.36   40.16
   9   0  -1  161.94   41.01
   9   0   1  158.91   40.21
  -9   0  -1  155.69   39.42
  -9   0  -2  226.03   15.27
  -9   0   2  272.39   18.33
   9   0  -2  270.95   12.29
   9   0   2  253.18   10.66
  -9   0  -2  270.03   11.50
  -9   0  -3    6.50    2.05
  -9   0   3    1.62    2.68
   9   0  -3    3.50    1.79
   9   0   3   -0.47    1.04
  -9   0  -3    3.02    1.48
  -9   0   4  413.06   17.40
   9   0  -4  451.86   18.91
   9   0   4  421.89   17.11
  -9   0  -4  425.05   17.13
  -9   0  -5   10.07    3.55
  -9   0   5   12.17    4.23
   9   0  -5    6.75    3.23
   9   0   5    9.03    2.93
  -9   0  -5    5.39    1.64
  -9   0  -6  673.23   34.46
  -9   0   6  736.80   37.43
   9   0  -6  731.13   37.17
   9   0   6  690.92   34.66
  -9   0  -6  667.22   33.53
  -9   0  -7    6.49    2.16
  -9   0   7    9.31    3.07
   9   0   7    3.17    0.84
   9   0  -7    2.98    2.36
   9   0   7    5.34    1.77
  -9   0  -8  240.73   16.22
  -9   0   8  219.71   16.11
   9   0   8  181.18    8.69
   9   0  -8  250.29   13.01
   9   0   8  218.17   11.05
  -9   0  -9    3.73    1.22
  -9   0   9    2.11    1.66
   9   0   9    1.28    0.63
   9   0  -9    8.32    3.03
   9   0   9    3.80    2.75
  -9   0 -10  201.10   14.50
  -9   0  10  206.80   13.60
   9   0 -10  204.96   13.84
   9   0  10  208.04   12.76
  -9   0 -11    9.17    2.78
  -9   0  11    4.05    1.81
   9   0 -11    3.65    2.68
   9   0  11    1.44    1.48
  -9   0 -12   68.80    9.69
  -9   0  12   62.96    7.25
   9   0 -12   64.95   12.07
   9   0  12   61.96    6.17
  -9   0 -13    0.44    1.80
  -9   0  13   -1.64    1.57
   9   0 -13   -4.07    3.18
   9   0  13    4.13    1.83
  -9   0 -14    7.04    2.37
  -9   0  14    1.33    0.75
   9   0 -14    9.57    4.08
   9   0  14   11.95    4.25
   9   0 -15   10.78    4.95
   9   0  16   36.53    6.24
   9   0 -16   25.79    7.29
   9   0  17    3.25    1.38
   9   0 -17   -1.70    2.99
   9   0 -18   20.04    6.95
  -9  -1   0  432.49   18.19
  -9   1   0  444.35   22.83
   9   1   0  413.19   17.47
   9  -1   0  423.28   17.38
  -9  -1   0  400.43   16.16
  -9  -1  -1    4.46    1.67
  -9  -1   1   11.41    2.49
  -9   1  -1    4.75    1.93
  -9   1   1   13.62    3.49
   9   1  -1    4.52    1.40
   9   1   1   10.83    2.19
   9  -1  -1    7.19    2.20
   9  -1   1    6.30    2.12
  -9  -1   1    8.71    1.93
  -9  -1  -1   11.39    1.80
  -9  -1  -2    5.17    1.89
  -9   1  -2    4.88    3.13
  -9  -1   2    2.54    1.28
  -9   1   2    5.62    2.12
   9   1  -2    4.41    2.03
   9  -1  -2    6.21    2.32
   9   1   2    3.25    1.13
   9  -1   2    3.97    1.64
  -9  -1  -2    3.26    1.22
  -9   1  -2    3.08    1.29
  -9  -1  -3  113.55   14.83
  -9   1  -3  126.30   16.08
  -9  -1   3  106.13   10.16
  -9   1   3  105.85   10.17
   9   1  -3  103.57    9.79
   9  -1  -3  125.98   11.88
   9   1   3  112.11   10.12
   9  -1   3  115.71   10.64
  -9   1  -3  104.84    9.42
  -9  -1  -3   98.93    8.97
  -9  -1  -4   51.95    7.63
  -9   1  -4   58.57    8.09
  -9  -1   4   50.35    6.54
  -9   1   4   47.86    7.52
   9   1  -4   51.93    6.77
   9  -1  -4   52.65    6.91
   9   1   4   46.80    6.81
   9  -1   4   48.45    6.12
  -9   1  -4   49.14    5.91
  -9  -1  -4   43.18    5.64
  -9  -1  -5   48.88    7.64
  -9   1  -5   29.40    5.33
  -9  -1   5   51.71    7.81
  -9   1   5   42.72    5.98
   9   1  -5   43.43    7.34
   9  -1  -5   38.20    5.58
   9   1   5   39.53    6.07
   9  -1   5   44.47    5.99
  -9   1  -5   39.67    5.06
  -9  -1  -5   28.89    4.36
  -9  -1  -6   69.55   11.71
  -9   1  -6   60.98   10.96
  -9  -1   6   71.77    9.71
  -9   1   6   64.02    8.85
   9   1   6   55.67    7.23
   9   1  -6   76.38   12.88
   9  -1  -6   70.16   11.08
   9   1   6   63.14    8.66
   9  -1   6   61.46    8.00
  -9   1  -6   51.19    6.57
  -9  -1  -7   22.12    4.97
  -9   1  -7   29.83    7.16
  -9  -1   7   16.20    3.87
  -9   1   7   23.54    4.83
   9   1   7   11.49    2.76
   9   1  -7   23.20    5.63
   9  -1  -7   10.63    3.00
   9   1   7   23.42    4.38
   9  -1   7   23.48    4.83
  -9  -1  -8  127.88   12.20
  -9   1  -8  132.28   10.30
  -9  -1   8  128.77    7.72
  -9   1   8  117.10   12.85
   9   1   8  104.53   11.20
   9   1  -8  111.55   17.35
   9  -1  -8  127.44    7.64
   9   1   8  137.00    7.00
   9  -1   8  117.10   14.52
  -9  -1  -9   81.81   14.30
  -9   1  -9   97.15   16.69
  -9  -1   9   91.28   13.20
  -9   1   9   79.76   12.81
   9   1   9   79.54   11.64
   9   1  -9   73.72   15.36
   9  -1  -9   95.26   14.20
   9   1   9  102.66   15.08
   9  -1   9   59.92   11.79
  -9  -1 -10  109.90   10.56
  -9   1 -10  109.29   13.86
  -9  -1  10  111.12   13.42
  -9   1  10  106.30   10.99
   9   1 -10   95.46   16.43
   9  -1 -10  123.66    9.13
   9   1  10  125.33    7.56
   9  -1  10  100.44    8.53
  -9  -1 -11  175.36   13.92
  -9   1 -11  183.00   14.05
  -9  -1  11  177.01   12.57
  -9   1  11  174.73   16.49
   9   1 -11  186.16   18.21
   9  -1 -11  200.47   20.01
   9   1  11  185.75   10.01
   9  -1  11  184.02   11.27
  -9  -1 -12   35.10    7.88
  -9   1 -12   44.03    6.88
  -9  -1  12   40.93    7.56
  -9   1  12   44.33    7.08
   9   1 -12   43.99    8.95
   9  -1 -12   51.01    9.84
   9   1  12   44.70    4.82
   9  -1  12   36.28    7.07
  -9  -1 -13  133.45   15.79
  -9   1 -13  134.69   13.90
  -9  -1  13  141.41   11.01
  -9   1  13  145.13   13.85
   9   1 -13  120.43   20.81
   9  -1 -13  128.94   19.81
   9   1  13  130.30   10.08
   9  -1  13  137.28   11.08
  -9  -1 -14    5.54    1.77
  -9   1 -14   12.06    3.69
  -9   1  14   15.02    4.01
   9   1 -14   18.46    5.36
   9  -1 -14   21.94    6.98
   9  -1  14   11.23    3.39
  -9   1 -15  154.94   18.84
   9   1  15  170.75   16.83
   9   1 -15  139.18   22.07
   9  -1 -15  170.97   22.64
   9  -1  15  126.58   13.05
   9   1  16    9.32    3.09
   9  -1  16   16.06    5.56
   9   1 -16   14.50    4.36
   9  -1 -16   16.91    6.22
   9   1  17   62.57    9.78
   9  -1  17   24.65    7.67
   9   1 -17   38.35    7.89
   9  -1 -17   51.33   13.74
   9   1  18    3.28    2.11
   9   1 -18   11.66    4.11
   9  -1 -18    6.51    2.66
  -9  -2   0   16.68    3.47
  -9   2   0   24.09    3.92
   9   2   0   13.58    2.20
   9  -2   0   14.60    3.06
  -9  -2   0   17.81    2.54
  -9  -2  -1   99.84   12.39
  -9  -2   1  119.68   14.87
  -9   2  -1  129.05   16.08
  -9   2   1  111.32   13.65
   9   2  -1  100.88    9.34
   9   2   1  114.93   10.37
   9  -2  -1  124.98   11.63
   9  -2   1   98.19    9.19
  -9  -2   1  103.51    9.32
  -9  -2  -1   96.26    8.71
  -9  -2  -2  203.54   12.62
  -9  -2   2  221.37   14.75
  -9   2  -2  240.04   17.60
  -9   2   2  187.17    8.80
   9   2  -2  190.45    8.48
   9   2   2  198.73    8.40
   9  -2  -2  242.28   10.83
   9  -2   2  190.84    8.51
  -9  -2  -2  202.86    9.33
  -9  -2  -3  124.30   14.67
  -9  -2   3  110.81   12.95
  -9   2   3  125.15   14.84
   9   2  -3  122.04   11.65
   9   2   3  104.27    9.64
   9  -2  -3  110.47   10.57
   9  -2   3  109.38   10.16
  -9  -2  -3  106.38    9.74
  -9  -2  -4  135.40   13.70
  -9  -2   4  222.03   16.49
  -9   2  -4  191.62   15.10
  -9   2   4  157.45   41.08
   9   2  -4  145.78   13.43
   9  -2  -4  198.76    9.26
   9   2   4  173.78    7.23
   9  -2   4  150.48   13.79
  -9  -2  -4  132.56   12.30
  -9   2  -5   10.35    3.80
  -9  -2   5    9.43    2.93
  -9   2   5   11.76    3.60
   9   2  -5   11.79    4.06
   9  -2  -5    4.49    2.39
   9   2   5    7.70    2.33
   9  -2   5   11.65    3.69
  -9  -2  -6  372.25   25.63
  -9   2  -6  365.64   20.25
  -9  -2   6  407.78   21.96
  -9   2   6  315.15   16.84
   9   2   6  332.39   16.66
   9   2  -6  338.55   17.88
   9  -2  -6  401.37   21.04
   9   2   6  355.00   17.80
   9  -2   6  327.16   17.06
  -9  -2  -7  176.18   11.21
  -9   2  -7  167.85   13.27
  -9  -2   7  180.32   11.28
  -9   2   7  169.96   15.67
   9   2   7  136.75    7.02
   9   2  -7  176.30   11.33
   9  -2  -7  180.19    9.96
   9   2   7  154.87    7.37
   9  -2   7  172.09   12.01
  -9  -2  -8  266.31   21.22
  -9   2  -8  266.27   16.87
  -9  -2   8  247.15   13.08
  -9   2   8  267.06   17.68
   9   2   8  189.00   10.01
   9   2  -8  249.27   13.70
   9  -2  -8  253.32   14.16
   9   2   8  245.00   12.45
   9  -2   8  263.63   14.04
  -9  -2  -9    6.24    2.18
  -9   2  -9    3.31    1.71
  -9  -2   9    6.02    2.17
  -9   2   9    2.76    2.37
   9   2  -9    3.35    3.05
   9   2   9    2.47    0.83
   9  -2  -9   15.72    5.31
   9   2   9    5.16    1.95
   9  -2   9    8.65    3.32
  -9  -2 -10  145.04   11.08
  -9   2 -10  167.28   10.87
  -9   2  10  142.43   13.46
   9   2 -10  147.66   17.31
   9  -2 -10  140.33    9.69
   9   2  10  125.80    9.12
   9  -2  10  131.89   10.82
  -9  -2 -11   10.75    3.54
  -9   2 -11   14.40    3.50
  -9  -2  11    1.22    1.03
  -9   2  11   13.57    3.30
   9   2 -11   10.96    4.51
   9  -2 -11   13.95    4.30
   9   2  11    4.88    1.83
   9  -2  11    8.50    3.69
  -9  -2 -12   49.61    7.60
  -9   2 -12   46.91    7.74
  -9  -2  12   37.69    7.69
  -9   2  12   57.50    8.87
   9   2 -12   49.31   10.25
   9  -2 -12   45.12    7.64
   9   2  12   44.68    4.52
   9  -2  12   59.31    6.56
  -9  -2 -13   33.54    7.05
  -9   2 -13   34.36    6.32
  -9  -2  13   26.31    4.73
  -9   2  13   36.04    7.16
   9   2 -13   30.82    7.69
   9  -2 -13   29.30    6.78
   9  -2  13   30.17    5.54
  -9   2 -14   28.39    5.87
  -9   2  14   29.40    6.71
   9   2  14   40.76    7.32
   9   2 -14   34.32    7.15
   9  -2 -14   31.10    8.37
   9  -2  14   34.87    6.33
  -9   2 -15    3.39    1.16
  -9   2  15    7.10    2.67
   9   2  15   10.10    3.97
   9   2 -15    9.42    3.14
   9  -2 -15    2.96    1.94
   9  -2  15    7.18    3.36
  -9   2 -16    4.36    1.52
   9   2  16    9.48    3.44
   9   2 -16    6.27    2.41
   9  -2 -16    4.49    2.54
   9  -2  16    4.35    2.03
   9   2  17    9.75    3.15
   9   2 -17   15.63    4.81
   9  -2 -17   17.84    5.32
   9   2  18   11.60    3.69
   9   2 -18    9.33    3.68
  -9  -3   0   19.62    3.75
  -9   3   0   14.02    2.69
   9   3   0    9.85    1.72
   9  -3   0   12.35    2.89
  -9  -3   0   15.15    2.35
  -9  -3  -1  144.84   16.86
  -9  -3   1  127.20   14.72
  -9   3  -1  123.09   11.72
  -9   3   1  134.45   15.24
   9   3  -1  120.60   12.80
   9   3   1  101.86    9.94
   9  -3  -1  117.98   11.88
  -9  -3   1  105.65    9.52
   9  -3   1  126.60   12.70
  -9  -3  -1  121.85   10.87
  -9  -3  -2   90.09    9.46
  -9  -3   2   42.50    5.89
  -9   3   2   82.45    8.76
   9   3  -2   75.45    9.86
   9   3   2   42.93    5.74
   9  -3  -2   52.85    9.61
   9  -3   2   88.94   13.78
  -9  -3  -2   80.27    7.50
  -9  -3  -3   44.37    6.88
  -9  -3   3   44.13    6.48
  -9   3  -3   36.57    5.86
  -9   3   3   36.29    5.98
   9   3  -3   31.31    5.36
   9   3   3   34.04    4.49
   9  -3  -3   38.67    5.54
   9  -3   3   35.63    5.94
  -9  -3  -3   28.00    4.04
  -9  -3  -4   15.87    5.01
  -9  -3   4   12.38    3.50
  -9   3  -4   12.69    4.08
  -9   3   4   10.73    3.29
   9   3  -4    9.81    3.26
   9   3   4    4.85    1.35
   9  -3  -4   11.92    3.76
   9  -3   4   10.79    3.77
  -9  -3  -4    3.82    1.11
  -9  -3  -5   35.80    6.36
  -9  -3   5   32.51    5.61
  -9   3  -5   36.89    6.09
  -9   3   5   36.20    5.50
   9   3  -5   38.47    7.43
   9  -3  -5   38.25    5.74
   9  -3   5   36.29    5.69
  -9  -3   6   71.26    9.21
  -9   3  -6   78.10   10.69
  -9   3   6   83.15   10.79
   9   3  -6   66.32   12.61
   9  -3  -6   73.87    8.96
   9  -3   6   80.72    9.31
  -9  -3  -7   52.47    8.06
  -9  -3   7   72.66    9.51
  -9   3  -7   63.59    8.98
  -9   3   7   52.37    7.82
   9   3  -7   45.76    8.97
   9  -3  -7   71.25    9.10
   9  -3   7   52.72   10.42
  -9  -3  -8  136.94   13.01
  -9   3  -8   97.70   16.88
  -9  -3   8  101.57   16.33
  -9   3   8  121.35   19.02
   9   3  -8  113.95   17.70
   9  -3  -8   94.23   15.71
   9   3   8   57.95    8.30
   9   3   8   63.65    8.87
   9  -3   8  126.17   32.01
  -9  -3  -9   88.11   11.35
  -9   3  -9   89.53   12.21
  -9  -3   9   93.49   10.65
  -9   3   9   80.01    7.64
   9   3  -9   70.77   12.92
   9  -3  -9   95.98    9.05
   9   3   9   67.84    5.53
   9   3   9   99.57    8.06
   9  -3   9   81.91    7.78
  -9  -3 -10   56.18   10.34
  -9   3 -10   36.07    9.98
  -9  -3  10   34.61    6.87
  -9   3  10   41.22    5.79
   9   3 -10   43.26    8.38
   9  -3 -10   39.78    6.09
   9   3  10   32.79    6.97
   9  -3  10   41.00    5.97
  -9  -3 -11  170.95   17.24
  -9   3 -11  184.02   15.57
  -9  -3  11  152.97   16.54
  -9   3  11  163.34   16.53
   9   3 -11  142.76   19.37
   9  -3 -11  203.36   13.81
   9  -3  11  150.23    9.96
  -9  -3 -12   36.08    5.97
  -9   3 -12   28.95    6.74
  -9  -3  12   21.41    5.12
  -9   3  12   32.32    5.45
   9   3 -12   39.70    9.40
   9  -3 -12   38.43    6.38
   9  -3  12   34.41    6.24
  -9   3 -13   97.22   11.17
  -9   3  13   81.05   11.23
   9   3  13  106.88   11.19
   9   3 -13   97.27   14.42
   9  -3 -13   96.94   13.06
   9  -3  13   75.42    6.73
  -9   3 -14    2.26    1.17
  -9   3  14    5.77    2.64
   9   3  14   -1.25    1.94
   9   3 -14    3.35    2.54
   9  -3 -14    9.63    3.39
   9  -3  14    6.63    3.23
  -9   3 -15   27.27    7.94
  -9   3  15   20.34    4.78
   9   3  15   47.00    6.91
   9   3 -15   14.46    4.86
   9  -3 -15   28.18    7.79
   9  -3  15   19.11    4.47
  -9   3 -16    4.66    1.75
   9   3  16    6.14    2.87
   9   3 -16   16.21    4.26
   9  -3 -16    6.95    3.28
   9  -3  16    4.80    2.37
   9   3  17   10.98    3.60
   9   3 -17   -0.45    2.62
   9  -3 -17    4.90    2.12
   9  -3  17    9.33    3.39
   9   3  18    0.20    1.79
   9   3 -18    8.32    4.34
   9  -3 -18    6.74    4.28
  -9  -4   0    1.03    1.84
  -9   4   0    4.25    1.57
   9   4   0    0.87    0.46
  -9  -4   0    2.00    0.71
   9  -4   0    7.40    3.02
  -9  -4  -1   45.57    7.08
  -9  -4   1   33.72    5.17
  -9   4  -1   44.93    7.49
  -9   4   1   38.40    6.15
   9   4   1   34.95    5.30
   9   4  -1   34.57    6.25
  -9  -4   1   40.75    5.91
   9  -4  -1   43.75    5.76
   9  -4   1   38.29    5.13
  -9  -4  -1   41.22    5.28
  -9  -4  -2   51.46    8.05
  -9  -4   2   40.08    6.02
  -9   4  -2   41.99    7.10
  -9   4   2   38.24    7.31
   9   4   2   39.24    5.25
   9   4  -2   35.51    6.08
  -9  -4   2   34.72    4.85
   9  -4  -2   45.60    6.35
   9  -4   2   32.40    6.39
  -9  -4  -2   34.92    4.30
  -9  -4  -3    4.76    1.96
  -9  -4   3   18.54    5.29
  -9   4  -3   16.15    4.93
  -9   4   3   13.71    4.45
   9   4  -3   12.06    3.57
   9  -4  -3   22.86    6.33
   9  -4   3   19.09    6.28
  -9  -4  -3    6.67    1.77
  -9  -4  -4    8.35    2.60
  -9  -4   4    8.63    2.83
  -9   4  -4    5.48    2.33
  -9   4   4    2.03    2.24
   9   4  -4    4.70    2.04
   9  -4  -4    5.50    2.82
   9  -4   4    3.83    2.37
  -9  -4  -5   83.45   14.72
  -9  -4   5   72.29   10.18
  -9   4  -5   74.77   11.32
  -9   4   5   81.87   14.84
   9   4  -5   64.42    9.85
   9  -4  -5   68.58    9.21
   9  -4   5   70.42    9.15
  -9  -4  -6  181.15   17.00
  -9  -4   6  155.10   11.94
  -9   4  -6  141.26    8.97
  -9   4   6  167.52   14.28
   9   4  -6  138.57   10.54
   9  -4  -6  167.67    9.47
   9  -4   6  167.89    9.01
  -9  -4  -7  232.08   14.44
  -9  -4   7  197.01   16.70
  -9   4  -7  224.78   17.89
  -9   4   7  262.22   24.54
   9   4  -7  229.47   15.79
   9  -4  -7  203.46   11.63
   9  -4   7  227.78   15.73
  -9  -4  -8   65.60   11.53
  -9  -4   8   37.06    6.41
  -9   4  -8   45.96    8.26
  -9   4   8   63.13   10.22
   9   4  -8   68.40   12.86
   9  -4  -8   42.45    6.95
   9  -4   8   67.22   10.35
  -9  -4  -9  149.22   13.36
  -9  -4   9  114.37   12.03
  -9   4  -9  133.21   12.48
  -9   4   9  129.93   11.01
   9   4  -9  132.96   18.39
   9  -4  -9  136.64    9.83
   9  -4   9  126.38   10.03
  -9  -4 -10   56.95   10.82
  -9  -4  10   23.31    5.21
  -9   4 -10   37.18    6.14
  -9   4  10   46.72    6.72
   9   4 -10   57.01   10.21
   9  -4 -10   24.48    6.04
   9  -4  10   42.72    6.29
  -9  -4 -11  100.08   13.31
  -9   4 -11  113.77   13.54
  -9  -4  11   79.69   14.56
  -9   4  11  110.41   12.32
   9   4 -11  117.21   15.71
   9  -4 -11  115.12    9.61
   9  -4  11  103.53    7.32
  -9   4 -12    2.74    1.17
  -9   4  12    3.89    1.64
   9   4  12   -2.64    2.45
   9   4 -12    5.74    2.28
   9  -4 -12   10.56    5.56
   9  -4  12   10.35    3.95
  -9   4 -13   14.18    3.85
  -9   4  13   13.69    3.86
   9   4  13    7.75    2.26
   9   4 -13   20.12    5.75
   9  -4 -13   10.76    3.78
   9  -4  13   15.69    4.61
  -9   4 -14   21.12    5.56
  -9   4  14   30.78    7.59
   9   4  14   36.32    4.65
   9   4 -14   37.39    9.52
   9  -4 -14   24.55    6.92
   9  -4  14   42.15    5.32
  -9   4 -15   19.22    4.49
  -9   4  15   27.42    6.90
   9   4  15   24.91    5.54
   9   4 -15   32.05   10.13
   9  -4 -15   12.79    4.66
   9  -4  15   35.66    7.46
  -9   4  16   19.41    5.50
   9   4  16    6.07    2.32
   9   4 -16   12.69    4.77
   9  -4  16   19.20    5.53
   9   4  17    7.72    3.84
   9   4 -17    6.94    2.85
   9  -4 -17    3.11    1.90
   9  -4  17    8.52    2.93
   9   4  18    7.21    3.17
   9   4 -18    2.59    3.00
   9  -4 -18    7.94    3.44
   9  -4  18   11.33    4.20
  -9  -5   0  349.46   21.96
  -9   5   0  350.69   18.68
   9   5   0  328.82   16.90
  -9  -5   0  330.06   16.68
   9  -5   0  362.83   19.04
  -9  -5  -1  230.97   15.59
  -9  -5   1  258.71   17.77
  -9   5   1  191.76   33.58
   9   5   1  202.62   10.72
   9   5  -1  204.72   11.06
  -9  -5   1  199.92   10.34
   9  -5  -1  202.99   11.78
  -9  -5  -1  196.41   32.82
   9  -5   1  220.36   12.35
  -9  -5  -2  435.81   27.81
  -9  -5   2  507.20   30.61
  -9   5  -2  438.64   22.91
  -9   5   2  419.51   21.96
   9   5  -2  444.80   22.62
  -9  -5   2  392.11   19.92
   9  -5  -2  476.10   24.59
   9  -5   2  468.32   24.85
  -9  -5  -2  436.90   21.77
  -9  -5  -3  525.50   32.42
  -9  -5   3  447.23   26.28
  -9   5  -3  453.31   23.62
  -9   5   3  459.04   24.98
   9   5  -3  474.32   24.24
   9  -5  -3  452.65   23.52
   9  -5   3  486.53   27.11
  -9  -5  -4  187.74   20.81
  -9  -5   4  198.63   14.48
  -9   5  -4  181.32   14.43
  -9   5   4  161.89   15.87
   9   5  -4  168.95   15.23
   9  -5  -4  185.85   14.96
   9  -5   4  164.64   13.31
  -9  -5  -5  255.09   15.99
  -9  -5   5  285.48   16.54
  -9   5  -5  290.66   17.39
  -9   5   5  253.37   13.07
   9   5  -5  260.29   14.57
   9  -5  -5  254.26   13.28
   9  -5   5  270.49   13.63
  -9  -5  -6   93.70   12.97
  -9  -5   6   98.97   12.38
  -9   5  -6  103.40   13.79
  -9   5   6   73.24    8.98
   9   5  -6   87.96   13.66
   9  -5  -6   96.69   14.50
   9  -5   6   74.87    9.17
  -9  -5   7  418.58   26.18
  -9   5  -7  424.71   21.89
  -9   5   7  460.43   24.07
   9   5  -7  471.91   24.35
   9  -5  -7  438.86   22.96
   9  -5   7  466.93   24.01
  -9  -5  -8   54.05    8.04
  -9  -5   8   30.63    6.43
  -9   5  -8   36.97    7.98
  -9   5   8   44.72    9.07
   9   5  -8   39.33    9.59
   9  -5  -8   33.66    7.07
   9  -5   8   43.97    8.76
  -9  -5  -9  141.63   15.21
  -9  -5   9   90.94   10.59
  -9   5  -9  109.92   12.49
  -9   5   9  141.58   17.63
   9   5  -9  143.43   17.54
   9  -5  -9  109.58    7.98
   9  -5   9  118.54   16.27
  -9  -5  10    5.65    2.14
  -9   5 -10    7.43    2.61
  -9   5  10   22.52    5.58
   9   5 -10   19.02    4.22
   9  -5 -10   11.03    4.75
   9  -5  10   27.28    5.45
  -9  -5  11   64.27   10.62
  -9   5 -11   95.60   11.40
  -9   5  11   96.23    9.74
   9   5  11   97.74    7.59
   9   5 -11   92.72   12.88
   9  -5 -11   94.04    7.35
   9  -5  11   83.40    6.55
  -9   5 -12    6.36    2.91
  -9   5  12    2.79    2.21
   9   5  12   -0.64    2.38
   9   5 -12    8.36    3.69
   9  -5 -12    4.45    3.11
   9  -5  12    7.06    3.01
  -9   5 -13    4.65    1.81
  -9   5  13    3.86    2.24
   9   5  13    7.39    4.11
   9   5 -13    6.65    2.81
   9  -5 -13    5.88    3.93
   9  -5  13    0.68    2.57
  -9   5 -14    2.21    1.43
  -9   5  14    3.15    1.90
   9   5  14    6.53    2.12
   9   5 -14    1.27    1.49
   9  -5 -14    2.81    2.90
   9  -5  14    5.87    2.96
  -9   5 -15    3.01    1.37
  -9   5  15    8.65    3.00
   9   5  15    9.08    3.27
   9   5 -15    6.53    2.47
   9  -5 -15    8.29    3.49
   9  -5  15    4.18    2.64
  -9   5  16   12.82    4.07
   9   5  16   11.46    3.91
   9   5 -16   12.44    4.63
   9  -5 -16    1.02    3.43
   9  -5  16   14.85    4.96
   9   5  17   -2.94    2.09
   9   5 -17    9.59    2.98
   9  -5 -17    5.26    2.10
   9  -5  17   10.73    4.72
  -9  -6   0   84.75   15.19
   9   6   0   69.04    9.38
  -9  -6   0   73.16    9.79
   9  -6   0   87.92   15.33
  -9  -6  -1    7.96    2.85
  -9  -6   1    3.88    1.76
  -9   6  -1    5.23    2.57
  -9   6   1    9.15    3.28
   9   6  -1    4.58    1.51
  -9  -6   1    5.04    1.69
  -9  -6  -1    6.67    1.89
   9  -6  -1    5.21    2.87
   9  -6   1    4.85    2.96
  -9  -6  -1    3.59    1.40
  -9  -6  -2   33.89    5.41
  -9  -6   2   46.70    5.96
  -9   6  -2   32.21    6.35
  -9   6   2   30.08    5.96
   9   6  -2   33.52    4.23
   9  -6  -2   48.65    6.66
   9  -6   2   33.72    5.77
  -9  -6  -2   32.01    5.78
  -9  -6  -2   22.33    4.21
  -9  -6  -3   48.44    7.10
  -9  -6   3   33.96    5.29
  -9   6  -3   47.07    6.54
  -9   6   3   52.06    8.11
   9   6  -3   45.51    7.27
   9  -6  -3   41.81    6.49
   9  -6   3   42.69    7.98
  -9  -6  -4  197.81   16.80
  -9  -6   4  215.71   13.08
  -9   6  -4  179.45   16.00
  -9   6   4  177.50    9.87
   9   6  -4  203.23   12.91
   9  -6  -4  213.93   11.53
   9  -6   4  174.58    9.86
  -9  -6  -5  260.08   15.80
  -9  -6   5  203.51   17.10
  -9   6  -5  212.34   15.85
  -9   6   5  241.21   13.49
   9   6  -5  255.11   15.01
   9  -6  -5  209.12   14.95
   9  -6   5  240.63   13.35
  -9  -6  -6  271.42   20.71
  -9  -6   6  250.05   19.96
  -9   6  -6  254.82   13.73
  -9   6   6  281.51   24.76
   9   6  -6  257.54   15.71
   9  -6  -6  264.21   14.72
   9  -6   6  261.38   14.26
  -9  -6  -7   52.43    7.70
  -9  -6   7   51.72    6.26
  -9   6  -7   59.47    7.31
  -9   6   7   48.05    6.16
   9   6  -7   58.90    8.50
   9  -6  -7   53.90    7.27
   9  -6   7   48.60    9.47
  -9  -6  -8   53.66    7.96
  -9  -6   8   49.93    5.95
  -9   6  -8   59.62    7.32
  -9   6   8   83.80   11.77
   9   6  -8   72.69    8.81
   9  -6  -8   72.79   10.69
   9  -6   8   72.95    7.86
  -9  -6   9   82.49   22.62
  -9   6  -9  116.81   10.52
  -9   6   9   96.90    9.80
   9   6   9  105.22   12.15
   9   6  -9   87.86   12.17
   9  -6  -9   91.22    7.17
   9  -6   9  108.06    8.03
  -9  -6  10   26.00    5.53
  -9   6 -10   29.00    6.46
  -9   6  10   27.69    6.41
   9   6  10   34.24    7.54
   9   6 -10   46.93    7.65
   9  -6 -10   41.45    8.16
   9  -6  10   31.72    6.39
  -9   6 -11  151.81   16.67
  -9   6  11  168.35   20.11
   9   6  11  149.33   15.76
   9   6 -11  164.88   21.13
   9  -6 -11  156.08   10.46
   9  -6  11  152.31   12.92
  -9   6 -12  110.84   15.33
  -9   6  12  126.05   15.25
   9   6  12  130.21   16.56
   9   6 -12  145.31   20.89
   9  -6  12  127.01   10.53
  -9   6 -13   37.94    5.49
  -9   6  13   37.36    4.20
   9   6  13   35.66    4.36
   9   6 -13   36.81    7.65
   9  -6  13   35.65    4.66
  -9   6 -14   24.69    5.72
  -9   6  14   32.81    7.26
   9   6  14   27.00    6.99
   9  -6 -14   29.59    7.11
   9  -6  14   29.62    7.11
  -9   6  15   17.22    4.80
   9   6  15   13.29    4.51
   9   6 -15   20.12    5.68
   9  -6 -15   17.16    5.76
   9  -6  15    7.71    3.29
  -9   6  16   64.92   10.15
   9   6  16   47.71    8.14
   9   6 -16   44.35   10.62
   9  -6 -16   41.79   11.59
   9  -6  16   66.38   11.02
  -9   6  17    4.32    2.66
   9   6  17   10.18    4.50
   9   6 -17    7.20    3.86
   9  -6 -17    3.42    2.68
   9  -6  17    8.99    4.33
  -9  -7   0  314.70   18.00
  -9  -7   0  257.79   12.79
   9  -7   0  325.65   16.32
  -9  -7   0  281.31   13.82
  -9  -7  -1   59.26    8.30
  -9  -7   1   69.67    9.32
  -9   7  -1   63.77    7.69
  -9   7   1   47.75    6.10
  -9  -7   1   57.68    7.03
  -9  -7  -1   49.64    6.01
   9  -7  -1   85.77   10.25
   9  -7   1   57.89    7.43
  -9  -7  -1   46.62    5.84
  -9  -7   1   54.62    6.08
  -9  -7  -2   78.17   10.84
  -9  -7   2   86.17   11.57
  -9   7  -2   81.61   12.07
  -9   7   2   69.70    9.91
   9   7  -2   79.20   10.74
   9  -7  -2   87.17   10.47
  -9  -7  -2   66.91    7.26
   9  -7   2   68.01    8.76
  -9  -7  -2   57.92    6.40
  -9  -7  -3   80.47   11.14
  -9  -7   3   84.66   10.85
  -9   7  -3   84.36    9.79
  -9   7   3   73.53   11.92
   9   7  -3   69.10    9.56
   9  -7  -3   69.49    8.79
   9  -7   3   70.60   10.46
  -9  -7  -4   22.37    5.89
  -9  -7   4   24.78    6.11
  -9   7  -4   29.59    7.61
  -9   7   4   36.75    7.26
   9   7  -4   32.50    8.86
   9  -7  -4   30.23    7.77
   9  -7   4   15.48    4.89
  -9  -7  -5  311.94   22.31
  -9  -7   5  324.49   20.13
  -9   7  -5  300.34   15.94
  -9   7   5  320.89   17.43
   9   7  -5  345.26   18.84
   9  -7  -5  324.34   17.59
   9  -7   5  319.40   17.18
  -9  -7   6   50.26    5.93
  -9   7  -6   64.38    6.31
  -9   7   6   72.80    8.16
   9   7  -6   80.64    9.36
   9  -7  -6   72.65    8.18
   9  -7   6   73.24    8.09
  -9  -7   7  177.81   15.98
  -9   7  -7  190.37   11.41
  -9   7   7  207.49   21.57
   9   7   7  207.35   13.31
   9   7  -7  228.78   18.50
   9  -7  -7  191.99   12.27
   9  -7   7  172.24   23.46
  -9  -7   8   15.93    3.61
  -9   7  -8   16.24    3.84
  -9   7   8    8.66    3.12
   9   7   8    9.30    3.58
   9   7  -8   14.84    4.08
   9  -7  -8   18.28    5.17
   9  -7   8   12.13    4.82
  -9  -7   9  105.01   12.73
  -9   7  -9  113.27   15.57
  -9   7   9  152.53   16.08
   9   7   9  141.32   10.74
   9   7  -9  119.69   15.65
   9  -7  -9  140.56   12.74
   9  -7   9  135.34    9.94
  -9  -7  10    0.12    0.55
  -9   7 -10   -1.73    1.58
  -9   7  10    4.22    2.51
   9   7  10   11.34    3.64
   9   7 -10    5.40    2.83
   9  -7 -10   13.22    5.30
   9  -7  10    4.06    4.56
  -9   7 -11   25.48    5.02
  -9   7  11   14.08    4.04
   9   7  11   16.58    4.80
   9   7 -11   24.34    6.21
   9  -7 -11   27.00    6.45
   9  -7  11   15.55    5.45
  -9   7 -12   21.20    4.44
  -9   7  12   12.64    3.89
   9   7  12   12.94    4.72
   9   7 -12   24.52    5.16
   9  -7  12   13.19    5.03
  -9   7 -13    9.08    3.15
  -9   7  13   15.11    5.33
   9   7  13    9.97    3.44
   9   7 -13   19.09    5.47
   9  -7 -13   11.59    4.63
   9  -7  13   16.78    5.58
  -9   7 -14    8.72    2.53
  -9   7  14   11.93    3.76
   9   7  14   13.63    5.61
   9   7 -14   14.21    6.15
   9  -7 -14   10.45    4.54
   9  -7  14    5.32    3.16
  -9   7  15    7.99    2.84
   9   7  15   10.43    4.78
   9   7 -15    5.60    2.53
   9  -7 -15   10.07    4.65
   9  -7  15    4.54    4.18
  -9   7  16   11.53    4.18
   9   7  16   15.84    5.37
   9   7 -16   14.04    4.67
   9  -7 -16    5.81    3.26
   9  -7  16   12.83    4.27
  -9   7  17    5.46    2.10
   9   7  17    7.97    3.18
   9   7 -17   10.38    4.56
   9  -7 -17   10.63    4.71
   9  -7  17    8.13    3.49
  -9  -8   0   11.76    3.45
  -9   8   0   10.17    3.98
  -9  -8   0    4.00    1.31
   9  -8   0   14.36    5.75
  -9  -8   0    8.60    2.71
  -9  -8  -1    9.00    3.02
  -9  -8   1   -0.05    1.76
  -9   8  -1   -2.05    2.26
  -9  -8   1    1.42    0.72
  -9  -8  -1    3.06    1.02
   9  -8  -1    7.59    3.40
   9  -8   1   10.94    5.54
  -9  -8  -1    7.67    2.12
  -9  -8   1    2.40    1.14
  -9  -8  -2    7.72    2.43
  -9  -8   2   24.62    6.43
  -9   8  -2   24.23    7.29
  -9   8   2   16.89    4.83
  -9  -8  -2   14.83    3.52
   9  -8  -2   16.36    5.13
   9  -8   2   13.61    4.44
  -9  -8  -2   15.00    3.60
  -9  -8   2   12.19    3.24
  -9  -8   3   58.87    9.64
  -9   8  -3   69.76   12.04
  -9   8   3   37.51    7.70
   9  -8  -3   52.57    8.45
   9  -8   3   37.65    6.57
  -9  -8   3   59.23    8.73
  -9  -8   4   10.15    3.16
  -9   8  -4    8.22    3.12
  -9   8   4   13.00    4.56
   9   8   4    7.68    3.36
   9   8  -4   21.31    4.91
   9  -8  -4    2.80    3.11
   9  -8   4   19.25    6.21
  -9  -8   5   30.92    6.54
  -9   8  -5   30.24    6.16
  -9   8   5    6.44    3.77
   9   8  -5   21.25    4.43
   9  -8  -5   27.29    6.82
   9  -8   5   20.63    4.90
  -9  -8   6   42.34    6.25
  -9   8  -6   47.05    8.79
  -9   8   6   72.14   11.51
   9   8   6   56.28   10.33
   9   8  -6   64.81    9.45
   9  -8  -6   35.01    7.94
   9  -8   6   64.56    9.04
  -9   8  -7   22.13    4.79
  -9   8   7   14.07    4.13
   9   8   7   16.83    5.86
   9   8  -7   21.58    4.95
   9  -8  -7    8.71    4.03
   9  -8   7   19.23    6.26
  -9   8  -8   49.73    5.97
  -9   8   8   42.62    9.53
   9   8   8   42.99    8.15
   9   8  -8   27.02    5.53
   9   8  -8   40.21    7.64
   9  -8  -8   34.09   10.99
   9  -8   8   45.25    7.34
  -9   8  -9    4.13    2.31
  -9   8   9   -1.81    2.51
   9   8   9    4.80    2.88
   9   8  -9    3.77    1.78
   9   8  -9    8.09    2.79
   9  -8  -9   13.79    5.80
   9  -8   9    0.05    3.55
  -9   8 -10   25.86    5.33
  -9   8  10   27.69    5.63
   9   8  10   28.76    5.84
   9   8 -10   18.25    4.49
   9  -8  10   18.64    5.37
  -9   8 -11   27.88    5.25
  -9   8  11   18.46    4.94
   9   8  11    7.93    3.07
   9   8 -11   24.52    5.08
   9  -8 -11   18.87    4.92
   9  -8  11   18.00    3.96
  -9   8 -12  125.38   13.01
  -9   8  12  124.02   11.65
   9   8  12  128.71   11.04
   9   8 -12   96.37   14.41
   9  -8 -12  134.43   11.17
   9  -8  12  107.24    8.98
  -9   8 -13    3.20    0.89
  -9   8  13   12.57    4.69
   9   8  13   16.14    5.74
   9   8 -13   12.97    4.79
   9  -8 -13   -0.49    2.61
   9  -8  13   14.11    5.73
  -9   8  14   71.33   10.11
   9   8  14  101.67   11.49
   9   8 -14   63.32   10.74
   9  -8 -14   60.81    7.95
   9  -8  14   49.99    6.40
   9   8  15    4.27    2.76
   9   8 -15   13.19    4.49
   9  -8 -15    3.85    2.93
   9  -8  15    5.89    3.35
  -9   8  16   43.44   10.57
   9   8  16   51.61   12.34
   9   8 -16   42.28   12.11
   9  -8  16   41.98   10.50
  -9   9   0    1.69    1.18
   9   9   0    6.86    3.46
  -9  -9   0    2.26    0.96
   9  -9   0    4.52    3.54
  -9  -9   0    5.51    1.99
  -9   9  -1   30.42    6.77
  -9   9   1   15.36    3.97
   9   9  -1   18.13    4.21
   9   9   1   19.09    4.62
   9  -9  -1   12.24    4.40
   9  -9   1   21.76    6.52
  -9  -9  -1   11.74    3.13
  -9  -9   1   25.90    5.49
  -9   9  -2   11.47    4.34
  -9   9   2    6.71    2.56
   9   9   2    3.70    2.72
   9   9  -2    2.89    2.08
   9  -9  -2   -3.41    2.96
   9  -9   2    1.85    3.33
  -9  -9  -2    2.13    0.92
  -9  -9   2   -1.05    1.17
  -9   9  -3  105.58   12.43
  -9   9   3   78.87   11.18
   9   9  -3   62.46    6.61
   9   9   3   88.64   13.00
   9  -9  -3   77.18    8.13
   9  -9   3   64.18    7.17
  -9  -9   3   73.02    8.03
  -9   9  -4   71.26   12.19
  -9   9   4   66.62    9.42
   9   9   4   57.89    7.98
   9   9  -4   84.00    5.79
   9  -9  -4   77.07   10.40
   9  -9   4   82.02   22.20
  -9  -9   4   61.91    8.11
  -9   9  -5   72.18   12.79
  -9   9   5   82.88   23.16
   9   9   5   69.70   10.28
   9   9  -5   57.76    9.19
   9  -9  -5   68.67   10.59
   9  -9   5   80.80   21.81
  -9  -9   5   74.94   10.14
  -9   9  -6   71.30    8.95
  -9   9   6   85.38    7.67
   9   9   6   61.29    7.98
   9   9  -6   76.81   12.93
   9  -9  -6   55.61    7.38
   9  -9   6   85.14    7.45
  -9   9  -7  189.65   12.40
  -9   9   7  166.75   15.63
   9   9   7  190.07   13.40
   9   9  -7  125.03   10.66
   9   9  -7  160.61   16.95
   9  -9  -7  182.90   12.82
   9  -9   7  168.76   14.81
  -9   9  -8   44.82    7.10
  -9   9   8   50.03    8.73
   9   9   8   29.61    6.00
   9   9  -8   47.15    7.61
   9   9  -8   53.07    9.18
   9  -9  -8   31.40    5.77
   9  -9   8   43.86    6.93
  -9   9  -9    9.05    3.33
  -9   9   9    5.99    3.91
   9   9   9    2.29    2.58
   9   9  -9    5.39    4.05
   9  -9   9   -1.19    3.54
  -9   9 -10   54.93    8.36
  -9   9  10   72.43   10.31
   9   9  10   38.74    6.87
   9   9 -10   58.36    8.88
   9  -9  10   60.88    7.89
  -9   9 -11    2.12    0.79
  -9   9  11    6.78    2.49
   9   9  11    6.06    3.52
   9   9 -11   -0.42    1.99
   9  -9 -11   12.21    5.98
   9  -9  11   23.21    7.49
  -9   9 -12    6.09    2.03
  -9   9  12    5.13    1.87
   9   9  12   11.33    5.19
   9   9 -12   20.23    4.57
   9  -9 -12   13.22    5.57
   9  -9  12    2.76    3.36
  -9   9  13    8.26    2.97
   9   9  13    7.63    3.58
   9   9 -13    5.50    2.23
   9  -9 -13    6.69    3.17
   9  -9  13   -0.78    3.10
  -9   9  14    3.72    3.16
   9   9  14   -1.38    2.56
   9   9 -14    7.14    2.43
   9  -9 -14    4.69    3.42
   9  -9  14    8.76    3.51
  -9   9  15    9.91    4.07
   9   9  15    4.44    2.77
   9   9 -15    3.93    1.47
   9  -9 -15   11.71    5.66
   9  -9  15    5.27    3.22
  -9  10   0    2.75    2.43
   9  10   0    1.79    2.30
   9 -10   0    4.85    3.64
  -9 -10   0    9.15    2.66
  -9  10  -1  404.01   26.06
  -9  10   1  391.46   21.43
   9  10  -1  373.69   20.06
   9  10   1  348.18   18.92
   9 -10  -1  391.88   21.46
   9 -10   1  398.15   22.01
  -9 -10  -1  358.70   18.52
  -9 -10   1  358.37   18.69
  -9  10  -2   47.19    8.01
   9  10  -2   32.71    6.66
   9  10   2   26.54    6.32
   9 -10  -2   44.27    9.22
   9 -10   2   25.80    6.44
  -9 -10  -2   27.43    5.80
  -9 -10   2   27.39    5.39
  -9  10  -3  328.41   17.96
  -9  10   3  290.23   16.55
   9  10  -3  278.62   16.12
   9  10   3  320.95   17.99
   9 -10  -3  312.87   17.81
   9 -10   3  300.10   16.91
  -9 -10   3  335.04   17.75
  -9  10  -4   16.46    3.84
  -9  10   4   13.51    4.19
   9  10  -4   13.53    2.95
   9  10   4   21.00    5.60
   9 -10  -4   13.81    3.95
   9 -10   4    5.45    3.62
  -9 -10   4   14.95    3.74
  -9  10  -5  144.42   10.02
  -9  10   5  134.91   17.36
   9  10  -5  113.98    7.81
   9  10   5  141.27   15.57
   9 -10  -5  132.04   10.02
   9 -10   5  112.74   10.01
  -9 -10   5  124.64   11.40
  -9  10  -6   35.65    6.26
  -9  10   6   32.65    6.19
   9  10  -6   23.76    5.63
   9  10   6   38.13    6.13
   9 -10  -6   31.48    6.49
   9 -10   6   31.17    6.27
  -9 -10   6   22.53    6.16
  -9  10  -7   22.25    5.96
  -9  10   7   25.91    7.27
   9  10   7   18.55    5.28
   9  10  -7   19.88    4.72
   9 -10  -7   15.28    4.58
   9 -10   7   20.43    5.96
  -9 -10   7   29.36    5.37
  -9  10  -8    6.36    2.67
  -9  10   8   10.94    3.61
   9  10  -8    4.88    2.04
   9  10   8    0.76    2.60
   9 -10   8    8.82    3.14
  -9 -10   8    4.88    1.75
  -9  10  -9   35.49    6.69
  -9  10   9   40.60    8.09
   9  10   9   20.43    4.61
   9 -10  -9   34.50    7.08
   9 -10   9   60.40    9.11
  -9 -10   9   28.29    5.93
  -9  10 -10   43.43    5.14
  -9  10  10   28.65    8.16
   9  10  10   47.00    7.67
   9 -10 -10   44.86    7.18
   9 -10  10   48.02    5.38
  -9 -10  10   45.10    5.31
  -9  10 -11   20.10    4.42
  -9  10  11   17.89    5.37
   9  10  11   18.94    5.00
   9 -10 -11   12.06    5.09
   9 -10  11   21.10    6.05
  -9 -10  11   22.45    5.34
  -9  10 -12   18.00    4.28
  -9  10  12   20.51    6.25
   9  10  12    9.46    3.57
   9 -10 -12    9.90    3.59
   9 -10  12   21.67    6.56
  -9 -10  12   22.82    6.35
  -9  10  13    2.07    2.49
   9  10  13    0.05    2.46
   9 -10 -13    0.68    3.18
   9 -10  13    3.38    3.01
  -9 -10  13    5.84    3.93
  -9  10  14   17.76    5.32
   9  10  14   15.26    5.73
   9 -10 -14   15.96    5.80
   9 -10  14   16.58    6.02
  -9 -10  14    2.37    2.81
  -9  10  15    7.33    2.78
   9  10  15    4.44    2.86
   9 -10 -15    6.30    3.21
   9 -10  15   -1.46    3.06
  -9 -10  15   10.03    4.86
  -9  11   0    7.27    4.45
   9  11   0    4.04    2.46
   9 -11   0    5.65    5.06
  -9 -11   0    1.78    1.66
  -9  11  -1   50.57    6.66
  -9  11   1   81.39   13.74
   9  11  -1   67.96    9.09
   9  11   1   67.11    8.70
   9 -11  -1   56.17    7.03
   9 -11   1   70.98    9.65
  -9 -11  -1   58.24    6.75
  -9 -11   1   55.87    7.22
  -9  11  -2   23.96    6.21
  -9  11   2   30.26    6.13
   9  11   2   12.69    4.44
   9  11  -2   26.17    6.20
   9 -11  -2   22.76    5.10
   9 -11   2   22.40    5.72
  -9 -11   2   18.16    3.68
  -9  11  -3   43.71    7.02
  -9  11   3   49.15    8.28
   9  11  -3   41.60    7.75
   9  11   3   30.58    4.88
   9 -11  -3   40.28    6.99
   9 -11   3   50.24    8.18
  -9 -11   3   44.89    7.28
  -9  11  -4   36.41    5.87
  -9  11   4   38.80    7.33
   9  11   4    9.15    3.37
   9  11  -4   32.11    8.30
   9 -11  -4   27.61    7.42
   9 -11   4   15.41    4.90
  -9 -11   4   20.75    5.00
  -9  11  -5   12.78    3.92
  -9  11   5   15.33    5.27
   9  11  -5   16.81    4.49
   9  11   5   23.84    7.06
   9 -11  -5   10.06    3.96
   9 -11   5   18.28    5.76
  -9 -11   5   17.09    4.76
  -9  11  -6   97.88   12.11
  -9  11   6  156.63   13.45
   9  11  -6  131.50   10.50
   9  11   6  132.72   11.44
   9 -11   6  149.95   16.49
  -9 -11   6  114.96    9.55
  -9  11  -7    5.23    2.62
  -9  11   7   17.25    4.16
   9  11  -7    8.54    2.83
   9 -11   7   22.10    6.19
  -9 -11   7   10.52    4.15
  -9  11  -8   75.31    8.74
  -9  11   8   89.40   11.36
   9  11   8   55.35    5.85
   9 -11  -8   69.24   12.44
   9 -11   8   98.74    9.74
  -9 -11   8   83.77    8.39
  -9  11  -9   12.27    3.83
  -9  11   9   27.39    7.58
   9  11   9    5.88    2.78
   9 -11  -9    7.80    5.20
   9 -11   9   23.38    7.15
  -9 -11   9   14.52    4.59
  -9  11 -10   37.91    7.76
  -9  11  10   55.41   10.41
   9 -11 -10   47.70   11.09
   9 -11  10   47.27    8.04
  -9 -11  10   50.26    7.30
  -9  11 -11   13.28    3.58
  -9  11  11   26.27    6.77
   9  11  11   17.84    5.06
   9 -11 -11   10.81    3.91
   9 -11  11   20.24    5.33
  -9 -11  11    5.24    2.69
  -9  11  12   16.57    5.16
   9  11  12    9.15    3.61
   9 -11 -12   10.02    5.41
   9 -11  12   15.45    5.44
  -9 -11  12   28.40    5.71
  -9  11  13    3.78    2.71
   9  11  13    5.10    2.00
   9 -11 -13   10.05    4.72
   9 -11  13    4.97    4.52
  -9 -11  13    3.35    2.72
  -9  11  14    6.72    4.54
   9  11  14   11.41    4.85
   9 -11 -14   11.63    4.87
   9 -11  14    9.94    4.26
  -9 -11  14    0.64    2.67
  -9  12   0    9.69    3.33
   9  12   0    0.73    2.22
   9 -12   0   11.06    4.03
  -9 -12   0    6.26    1.81
  -9  12  -1  346.02   57.62
  -9  12   1  326.10   25.07
   9  12   1  305.67   23.39
   9  12  -1  328.34   24.81
   9 -12  -1  311.51   27.32
   9 -12   1  381.55   63.53
  -9 -12   1  305.01   23.46
  -9  12  -2   66.97   10.41
  -9  12   2   58.52    9.06
   9  12  -2   46.58    7.93
   9  12   2   74.05    9.41
   9 -12  -2   71.27    7.30
   9 -12   2   83.15    9.73
  -9 -12   2   56.00   10.24
  -9  12  -3  133.96   16.61
  -9  12   3  131.68   13.91
   9  12  -3  119.27   12.48
   9  12   3  122.36   10.55
   9 -12  -3  118.81   11.19
   9 -12   3  111.18   19.50
  -9 -12   3  132.71   11.01
  -9  12  -4   25.35    5.43
   9  12  -4   21.01    5.33
   9  12   4   12.69    3.67
   9 -12   4   33.85    7.00
  -9 -12   4   34.44    6.10
  -9  12  -5  109.80   11.02
  -9  12   5  119.78   12.61
   9  12  -5   74.04    9.92
   9  12   5  120.36   11.47
   9 -12   5  126.12   13.10
  -9 -12   5  118.05   13.41
  -9  12  -6   11.16    3.68
  -9  12   6    6.81    2.88
   9  12  -6    7.37    2.44
   9  12   6   14.78    6.08
   9 -12  -6   23.18    4.98
   9 -12   6    7.65    5.18
  -9 -12   6   11.79    4.34
  -9  12  -7    2.28    1.08
  -9  12   7    0.92    2.62
   9  12   7    3.87    1.77
   9 -12  -7    3.79    4.26
   9 -12   7    8.67    5.47
  -9 -12   7    2.62    2.21
  -9  12  -8    5.10    1.77
   9  12   8    8.26    4.18
   9 -12  -8    8.59    5.31
   9 -12   8   12.09    5.53
  -9 -12   8    5.47    2.34
  -9  12  -9   26.37    6.59
  -9  12   9   12.03    4.44
   9  12   9   18.67    5.74
   9 -12  -9   11.82    3.97
   9 -12   9   21.51    7.40
  -9 -12   9   17.33    5.39
  -9  12 -10    4.34    2.13
  -9  12  10    8.82    3.48
   9  12  10    3.13    4.00
   9 -12 -10    5.10    3.31
   9 -12  10    9.31    4.15
  -9 -12  10    1.31    2.49
  -9  12  11    8.75    2.82
   9  12  11   13.12    4.91
   9 -12 -11    3.37    2.18
   9 -12  11    4.38    3.36
  -9 -12  11    4.36    3.40
  -9  12  12    4.22    2.28
   9  12  12    3.66    2.92
   9 -12 -12    0.80    3.25
   9 -12  12   11.24    4.80
  -9 -12  12    2.12    2.41
  -9  12  13    5.67    2.70
   9  12  13    2.39    3.18
   9 -12 -13    7.53    3.57
   9 -12  13   -1.24    2.97
  -9 -12  13   -1.53    2.40
  -9  13   0    5.41    1.67
   9  13   0    6.84    3.55
   9 -13   0    2.92    3.13
  -9  13  -1   48.69    7.75
  -9  13   1   45.69    6.38
   9  13   1   41.15    7.77
   9  13  -1   41.98    8.21
   9 -13   1   47.91    6.05
  -9  13  -2   11.64    4.60
  -9  13   2   17.43    4.23
   9  13   2    2.90    2.89
   9  13  -2    5.56    1.73
   9 -13  -2    4.33    2.93
   9 -13   2   15.43    5.08
  -9 -13   2    8.57    2.51
  -9  13  -3   38.31    4.90
  -9  13   3   36.76    5.85
   9  13  -3   22.28    5.88
   9  13   3   36.56    5.00
   9 -13  -3   24.65    7.08
   9 -13   3   27.76    8.24
  -9 -13   3   29.13    7.20
  -9  13  -4   10.45    4.52
   9  13  -4    7.82    2.53
   9  13   4   20.69    5.90
   9 -13   4    9.76    5.50
  -9 -13   4    7.83    3.05
  -9  13  -5   22.92    6.47
  -9  13   5   18.46    5.60
   9  13  -5    8.61    3.10
   9  13   5   32.22    6.82
   9 -13  -5   33.55    5.77
   9 -13   5   16.70    6.33
  -9 -13   5   23.69    5.95
  -9  13  -6   21.85    5.95
  -9  13   6   23.68    6.23
   9  13  -6   20.17    5.09
   9  13   6   38.26    7.92
   9 -13  -6   25.11    6.86
   9 -13   6   38.92    9.22
  -9 -13   6   31.23    6.71
  -9  13  -7   12.07    3.56
   9  13   7    5.72    2.93
   9 -13  -7    3.57    3.32
   9 -13   7   14.63    6.21
  -9 -13   7   11.22    3.91
  -9  13  -8   66.42   12.32
  -9  13   8   78.41   12.54
   9  13   8   89.60   15.40
   9 -13  -8   99.54   15.53
   9 -13   8  110.03   17.49
  -9 -13   8   68.42   11.86
  -9  13  -9    6.39    2.38
  -9  13   9    9.74    3.49
   9  13   9    9.97    3.58
   9 -13  -9    7.93    3.40
   9 -13   9   13.13    5.23
  -9 -13   9    8.95    4.00
  -9  13  10   65.32   11.27
   9  13  10   51.73    9.26
   9 -13  10   59.91   13.32
  -9 -13  10   73.28   12.12
  -9  13  11    1.05    1.51
   9  13  11   12.94    5.50
   9 -13 -11    5.67    3.58
   9 -13  11    6.95    3.71
  -9 -13  11    9.51    3.99
  -9  13  12   12.17    4.51
   9  13  12    2.80    1.42
   9 -13 -12   -0.08    2.82
   9 -13  12    8.92    6.37
  -9 -13  12   15.23    5.19
  -9  14   0    7.65    4.06
   9  14   0    6.76    3.72
   9 -14   0   11.89    5.35
  -9  14  -1   53.61   10.64
  -9  14   1   48.27    7.36
   9  14  -1   71.48    9.78
   9  14   1   60.77    8.58
   9 -14  -1   62.65    9.74
   9 -14   1   57.99    8.52
  -9  14  -2   35.12    8.15
  -9  14   2   34.78    8.17
   9  14  -2   30.21    6.54
   9  14   2   38.14    7.62
   9 -14  -2   31.12    7.15
   9 -14   2   43.47    7.88
  -9  14  -3   92.44   15.81
  -9  14   3  125.73   16.14
   9  14  -3  106.64   15.77
   9  14   3  111.39   14.54
   9 -14   3  117.44   15.94
  -9  14  -4   15.71    5.55
  -9  14   4   18.03    5.18
   9  14  -4   21.68    5.54
   9  14   4   20.79    6.41
   9 -14   4   15.62    5.13
  -9 -14   4   25.07    5.90
  -9  14  -5   28.61    6.70
  -9  14   5   31.04    7.59
   9  14  -5   39.49    6.69
   9  14   5   36.56    6.89
   9 -14  -5   31.81    8.96
   9 -14   5   54.73    9.57
  -9 -14   5   42.49    6.99
  -9  14  -6   42.11    7.96
  -9  14   6   37.35    5.76
   9  14   6   43.43    7.20
   9 -14  -6   51.49    8.14
   9 -14   6   59.18    9.00
  -9 -14   6   56.51    6.66
  -9  14  -7   15.14    4.36
  -9  14   7   22.29    6.95
   9  14   7   11.68    4.98
   9 -14  -7   11.28    5.78
   9 -14   7   17.85    6.34
  -9 -14   7   13.39    4.20
  -9  14  -8    8.44    2.85
  -9  14   8    5.64    3.10
   9  14   8    5.98    3.11
   9 -14  -8   16.04    5.93
   9 -14   8    9.56    5.35
  -9 -14   8    5.42    2.42
  -9  14  -9    5.12    2.34
  -9  14   9   11.27    3.85
   9  14   9    8.65    4.24
   9 -14  -9   11.12    5.39
   9 -14   9   13.04    5.87
  -9 -14   9   23.64    5.80
  -9  14  10    3.38    2.21
   9  14  10    3.70    2.77
   9 -14 -10    8.58    4.46
   9 -14  10    8.66    5.21
  -9 -14  10    5.93    3.04
  -9  15   0   28.73    7.39
   9  15   0   26.14    6.82
   9 -15   0   34.70    9.38
  -9  15  -1    6.24    3.60
  -9  15   1    7.49    3.58
   9  15   1    5.03    1.93
   9  15  -1    7.93    3.39
   9 -15  -1    9.74    4.83
   9 -15   1    2.95    3.12
  -9  15  -2    9.07    3.96
  -9  15   2   16.92    6.81
   9  15  -2    7.82    3.21
   9  15   2    7.98    3.86
   9 -15  -2    7.85    3.19
   9 -15   2    1.08    3.07
  -9  15  -3   18.93    5.60
  -9  15   3   17.87    5.94
   9  15  -3   19.73    5.55
   9  15   3   25.84    5.04
   9 -15   3   19.06    6.30
  -9  15   4   22.76    7.22
   9  15  -4   26.13    4.23
   9  15   4   14.79    4.07
   9 -15  -4   25.13    8.06
   9 -15   4   26.11    5.43
  -9  15  -5    2.89    2.56
  -9  15   5    2.88    1.99
   9  15   5    2.59    2.81
   9 -15  -5   10.63    5.66
   9 -15   5   -0.82    3.30
  -9 -15   5    3.09    1.93
  -9  15  -6   30.50    5.53
  -9  15   6   22.94    5.05
   9  15   6   39.36    7.54
   9 -15   6   26.38    6.07
  -9 -15   6   27.45    5.41
  -9  15  -7    3.27    1.83
  -9  15   7   -3.18    2.96
   9  15   7    4.36    3.63
   9 -15  -7   10.53    3.54
   9 -15   7    3.08    3.16
  -9 -15   7    3.59    2.12
  -9  15  -8   12.50    4.25
  -9  15   8   14.50    4.64
   9  15   8   13.12    5.20
   9 -15  -8   17.16    5.94
   9 -15   8   21.27    6.43
  -9 -15   8   15.26    4.40
  -9  16   0   18.29    5.43
   9  16   0   15.29    5.88
  -9  16  -1    3.43    3.28
  -9  16   1   12.65    4.60
   9  16  -1    5.08    2.51
   9  16   1    8.92    4.83
   9 -16  -1    1.35    3.27
   9 -16   1   -0.88    3.18
  -9  16  -2   10.46    3.85
  -9  16   2   10.03    4.48
   9  16   2   14.09    5.15
   9 -16  -2    7.57    3.25
   9 -16   2    7.19    3.94
  -9  16  -3    6.28    2.00
  -9  16   3    5.55    3.01
   9  16  -3    2.57    1.95
   9  16   3    4.99    3.60
   9 -16  -3   11.80    5.11
   9 -16   3    7.78    3.81
  -9  16  -4    1.90    2.04
  -9  16   4    2.47    2.10
   9  16   4    7.82    3.26
   9 -16  -4   -1.46    2.76
   9 -16   4    4.73    2.16
  -9  16  -5    4.99    2.42
  -9  16   5    2.77    2.87
   9  16   5   10.43    5.08
   9 -16  -5    1.15    3.06
   9 -16   5   -0.06    3.25
  -9  16  -6    2.82    1.21
   9  16   6    3.08    2.68
   9 -16  -6    8.73    4.70
   9 -16   6    7.53    3.83
  -9  17   0   84.84   20.13
   9  17   0   65.71   16.57
   9 -17   0   44.30   10.96
  -9  17  -1    2.74    2.41
  -9  17   1    5.89    2.96
   9  17   1   11.60    4.74
   9  17  -1    0.56    1.99
   9 -17  -1    7.72    3.91
   9 -17   1    6.97    3.80
 -10   0   0  446.79   29.76
  10   0   0  408.37   20.96
 -10   0  -1   85.80   16.63
 -10   0   1   77.00    9.89
  10   0  -1   82.05   15.29
  10   0   1   69.19   10.64
 -10   0  -2  152.11   16.78
 -10   0   2  152.48   12.32
  10   0  -2  150.82   12.10
  10   0   2  158.96   13.92
 -10   0  -2  136.55   10.50
 -10   0  -3   62.56    9.52
 -10   0   3   65.10   10.47
  10   0  -3   51.21    9.18
  10   0   3   48.80    6.94
 -10   0  -3   45.80    5.84
 -10   0   4    5.40    3.28
  10   0  -4   -0.37    1.75
  10   0   4    5.10    2.15
 -10   0  -4    5.26    2.05
 -10   0  -5   -0.48    1.97
 -10   0   5    1.77    2.40
  10   0  -5    2.30    2.77
  10   0   5   -0.59    1.02
 -10   0  -5    1.63    1.21
 -10   0  -6   20.92    4.93
 -10   0   6   19.60    4.29
  10   0  -6   17.66    3.76
  10   0   6   23.43    4.51
 -10   0  -6   10.52    2.02
 -10   0  -7   20.22    5.53
 -10   0   7   19.99    5.02
  10   0   7    8.62    3.18
  10   0  -7   18.58    5.18
  10   0   7   21.61    5.97
 -10   0  -8   39.88    6.86
 -10   0   8   29.01    7.20
  10   0  -8   39.37    7.40
  10   0   8   32.56    8.55
 -10   0  -9  158.80   11.54
 -10   0   9  162.48   10.41
  10   0  -9  168.98   17.15
  10   0   9  170.07   10.07
 -10   0 -10   11.08    4.00
 -10   0  10    4.08    1.67
  10   0 -10    8.91    4.14
  10   0  10    7.44    2.99
 -10   0 -11   24.55    4.99
 -10   0  11   33.15    7.34
  10   0 -11   34.82    9.93
  10   0  11   26.71    5.94
 -10   0 -12   15.99    4.37
 -10   0  12    9.30    2.87
  10   0 -12    9.50    4.22
  10   0  12   18.46    4.66
 -10   0 -13   11.34    3.86
 -10   0  13    9.70    3.23
  10   0 -13    2.01    2.56
  10   0  13    6.88    1.90
 -10   0 -14    2.38    0.94
  10   0 -14   18.79    5.65
 -10   0 -15    2.56    1.42
  10   0 -15   -1.12    3.01
  10   0  16    2.28    1.30
  10   0 -16    9.70    3.41
  10   0  17    4.02    1.33
  10   0 -17    3.04    2.16
  10   0 -18    7.96    3.13
 -10  -1   0   10.99    3.26
 -10   1   0    6.25    2.10
  10   1   0    3.50    1.95
  10  -1   0    5.70    2.17
 -10  -1   0    2.99    1.42
 -10  -1  -1  106.44   14.62
 -10  -1   1  127.12   13.83
 -10   1  -1  114.16    9.46
 -10   1   1  110.98   11.40
  10   1  -1  118.45   11.36
  10   1   1  112.57   11.13
  10  -1  -1  118.78    9.66
  10  -1   1  107.64    8.77
 -10  -1  -1   97.62    7.66
 -10  -1  -2    4.20    2.20
 -10  -1   2    5.44    2.79
 -10   1  -2    8.04    2.98
 -10   1   2    4.02    2.90
  10   1  -2    6.71    2.74
  10  -1  -2    6.19    2.28
  10   1   2    3.87    1.60
  10  -1   2    4.86    1.90
 -10  -1  -2    3.94    1.69
 -10  -1  -3   60.32    9.83
 -10   1  -3   46.04    7.85
 -10  -1   3   57.24    9.05
 -10   1   3   63.11    8.93
  10   1  -3   65.28    8.56
  10  -1  -3   54.76   10.11
  10   1   3   47.08    7.31
  10  -1   3   55.41    7.27
 -10  -1  -3   49.47    6.31
 -10  -1  -4   40.36    7.16
 -10   1  -4   62.21    9.98
 -10  -1   4   48.18    6.51
 -10   1   4   39.69    6.79
  10   1  -4   40.23    5.65
  10  -1  -4   52.83   10.02
  10   1   4   49.66    7.69
  10  -1   4   38.78    5.33
 -10  -1  -4   29.79    4.28
 -10   1  -5  139.59   15.12
 -10  -1   5  134.66    8.13
 -10   1   5  161.83   14.21
  10   1  -5  163.99    8.93
  10  -1  -5  132.08    7.75
  10   1   5  127.66    6.76
  10  -1   5  151.78    7.85
 -10  -1  -5  145.41    7.03
 -10  -1  -6  193.30   15.56
 -10   1  -6  192.08   16.91
 -10  -1   6  186.14   12.46
 -10   1   6  181.13   18.06
  10   1  -6  202.67   10.76
  10  -1  -6  188.81   10.14
  10   1   6  167.46    8.11
  10  -1   6  195.55    9.80
 -10  -1  -6  160.42    8.38
 -10  -1  -7  104.45   17.06
 -10   1  -7   89.49   16.06
 -10  -1   7   81.24   13.71
 -10   1   7   94.28   14.19
  10   1   7   53.32    8.06
  10   1  -7  107.47   20.37
  10  -1  -7   85.76   13.09
  10   1   7   74.63   10.74
  10  -1   7  104.36   14.85
 -10  -1  -8  112.06   14.43
 -10   1  -8  115.00   15.27
 -10  -1   8   94.04    9.78
 -10   1   8  103.98   11.80
  10   1   8   71.18    6.49
  10   1  -8  113.45   19.33
  10  -1  -8  124.97    9.05
  10   1   8  108.90    9.26
  10  -1   8  106.21   10.34
 -10  -1  -9   93.08   11.44
 -10   1  -9   46.82   13.30
 -10  -1   9   58.93    5.85
 -10   1   9   85.47    8.82
  10   1  -9   73.76   13.61
  10  -1  -9   42.84    8.50
 -10  -1 -10   13.22    3.18
 -10   1 -10    7.23    3.18
 -10  -1  10    9.59    3.18
 -10   1  10    7.17    2.97
  10   1 -10   11.11    3.86
  10  -1 -10    2.81    2.61
  10   1  10    4.02    1.81
  10  -1  10    6.14    2.83
 -10  -1 -11   37.09    8.20
 -10   1 -11   20.14    4.18
 -10  -1  11   20.33    4.30
 -10   1  11   33.88    6.51
  10   1 -11   46.08    8.28
  10  -1 -11   21.60    5.84
  10   1  11   15.32    4.11
  10  -1  11   25.22    6.14
 -10  -1 -12   42.45    7.24
 -10   1 -12   26.39    6.85
 -10  -1  12   33.40    5.45
 -10   1  12   39.59    5.89
  10   1 -12   31.77    4.99
  10  -1 -12   32.17    8.13
  10  -1  12   29.96    5.11
 -10  -1 -13   17.44    4.11
 -10   1 -13   17.03    3.48
 -10  -1  13   14.18    3.99
 -10   1  13    8.86    3.11
  10   1 -13   29.43    6.91
  10  -1 -13   17.33    4.63
  10  -1  13    7.89    2.00
 -10  -1 -14   10.74    3.24
 -10   1 -14    4.78    1.96
 -10   1  14    2.30    0.80
  10   1 -14    9.67    3.68
  10  -1 -14    0.56    1.85
  10  -1  14    2.59    1.60
 -10   1 -15   23.04    6.76
  10   1 -15   24.10    6.23
  10  -1 -15   31.27    9.49
 -10   1 -16    2.13    0.85
  10   1  16    1.64    2.05
  10   1 -16    9.97    3.54
  10  -1 -16    3.09    2.75
  10   1  17   14.43    5.02
  10  -1  17   27.84    6.16
  10   1 -17   16.16    5.43
  10  -1 -17   11.52    4.96
 -10  -2   0  468.20   24.42
 -10   2   0  456.22   23.68
  10   2   0  398.36   20.35
  10  -2   0  432.11   22.23
 -10  -2   0  410.44   20.79
 -10  -2  -1   67.14   11.65
 -10  -2   1   59.50    9.18
 -10   2  -1   64.29    9.89
 -10   2   1   66.01    8.69
  10   2  -1   69.83    8.79
  10   2   1   52.60    6.64
  10  -2  -1   68.11    8.90
  10  -2   1   78.09    9.98
 -10  -2  -1   72.76    8.85
 -10  -2  -2  611.25   31.31
 -10  -2   2  510.24   29.03
 -10   2  -2  501.10   26.04
 -10   2   2  609.72   31.29
  10   2  -2  653.02   33.08
  10   2   2  460.76   23.29
  10  -2  -2  501.91   25.72
  10  -2   2  603.19   30.55
 -10  -2  -2  583.56   29.20
 -10  -2  -3   40.14    6.73
 -10  -2   3   38.99    6.47
 -10   2   3   48.52    7.64
  10   2  -3   48.66    8.61
  10   2   3   39.83    5.04
  10  -2  -3   45.45    6.23
  10  -2   3   44.26    7.63
 -10  -2  -3   38.59    4.81
 -10  -2  -4  135.84   14.29
 -10  -2   4   92.34    9.09
 -10   2  -4  100.44   12.17
 -10   2   4  134.83   11.30
  10   2  -4  137.18   11.12
  10  -2  -4  111.04    9.34
  10  -2   4  111.31    9.37
 -10  -2  -4  107.06    8.77
 -10  -2  -5  160.45   10.48
 -10   2  -5  170.87   12.99
 -10  -2   5  162.64   14.98
 -10   2   5  145.52   11.43
  10   2  -5  144.36   14.44
  10  -2  -5  155.96    8.83
  10   2   5  139.88    6.72
  10  -2   5  147.76    7.99
 -10  -2  -5  132.84    6.33
 -10  -2  -6  139.31   11.94
 -10   2  -6  105.75   15.19
 -10  -2   6  108.41   13.78
 -10   2   6  159.42   12.03
  10   2   6   80.17    8.89
  10   2  -6  128.81   13.83
  10  -2  -6  131.09   13.62
  10   2   6  100.98   10.65
  10  -2   6  133.89    7.55
 -10  -2  -7  144.30    9.27
 -10   2  -7  151.95   12.50
 -10  -2   7  166.75    9.61
 -10   2   7  150.52    8.99
  10   2   7  114.79   16.18
  10   2  -7  167.01   17.21
  10  -2  -7  162.16   10.07
  10   2   7  140.68    7.23
  10  -2   7  156.18    9.36
 -10  -2  -8   17.65    4.51
 -10   2  -8   22.95    4.93
 -10  -2   8   11.18    3.46
 -10   2   8   17.31    4.27
  10   2   8    5.73    1.72
  10   2  -8   10.96    4.07
  10  -2  -8   16.73    4.96
  10   2   8    8.99    2.54
  10  -2   8   11.19    3.72
 -10  -2  -9   13.04    3.60
 -10   2  -9    8.52    3.02
 -10  -2   9    9.39    3.06
 -10   2   9   13.95    3.62
  10   2  -9   11.26    4.53
  10  -2  -9    9.71    4.49
  10   2   9    5.79    1.83
  10  -2   9   10.74    3.75
 -10  -2 -10   46.16    7.71
 -10   2 -10   40.90    6.73
 -10  -2  10   39.19    5.80
 -10   2  10   40.78    7.45
  10   2 -10   30.65    8.50
  10  -2 -10   39.85    6.02
  10   2  10   29.98    6.38
  10  -2  10   26.05    5.77
 -10  -2 -11   68.87   10.42
 -10   2 -11   64.62    9.38
 -10  -2  11   59.51    7.44
 -10   2  11   70.93    8.97
  10   2 -11   69.49   13.64
  10  -2 -11   71.83   11.45
  10  -2  11   55.90   10.66
 -10  -2 -12    3.42    1.50
 -10   2 -12   17.75    4.61
 -10  -2  12   15.55    3.88
 -10   2  12   10.85    3.21
  10   2 -12   13.11    4.00
  10  -2 -12   17.35    5.25
  10  -2  12    2.33    2.10
 -10  -2 -13    8.75    3.44
 -10   2 -13   13.11    3.99
 -10   2  13    8.22    2.71
  10   2 -13   -0.04    2.93
  10  -2 -13    2.93    1.96
  10  -2  13    5.35    2.79
 -10   2 -14   52.08    7.52
 -10   2  14   42.94    6.87
  10   2 -14   66.47   10.41
  10  -2 -14   53.21   11.74
  10  -2  14   62.85    7.01
 -10   2 -15    8.43    2.91
 -10   2  15   10.04    2.79
  10   2  15    9.63    3.46
  10   2 -15   15.32    4.73
  10  -2 -15   17.60    5.64
  10  -2  15   16.15    4.29
 -10   2 -16    7.30    1.80
  10   2  16    8.94    2.98
  10   2 -16    3.72    1.93
  10  -2 -16    7.79    2.08
  10   2  17   19.89    4.88
  10   2 -17    9.51    3.34
  10  -2 -17   12.63    4.72
 -10  -3   0  154.75   16.93
 -10   3   0  147.36   12.52
  10   3   0  122.92   12.03
  10  -3   0  144.43   15.95
 -10  -3   0  130.39   10.00
 -10  -3  -1   84.02   15.56
 -10  -3   1   73.93   11.30
 -10   3  -1   84.47   16.00
 -10   3   1   78.46   13.46
  10   3  -1   68.70   10.97
  10   3   1   74.49    9.75
  10  -3  -1   77.22    9.87
  10  -3   1   78.00   11.29
 -10  -3   1   59.36    9.06
 -10  -3  -1   68.92    9.57
 -10  -3  -2  134.95   15.50
 -10  -3   2  130.99   14.03
 -10   3  -2  142.82   15.98
 -10   3   2  155.83   17.28
  10   3  -2  104.96    9.71
  10   3   2  102.86    7.98
  10  -3  -2  129.35   10.55
  10  -3   2  125.25   10.31
 -10  -3  -2  126.22   10.03
 -10  -3  -3  163.95   14.17
 -10  -3   3  192.82   35.24
 -10   3  -3  158.50   12.75
 -10   3   3  168.69   18.70
  10   3  -3  148.48   13.84
  10   3   3  138.04   10.80
  10  -3  -3  165.71   13.35
  10  -3   3  151.76   16.83
 -10  -3  -3  132.26   10.17
 -10  -3  -4  226.32   14.36
 -10  -3   4  209.17   15.40
 -10   3  -4  218.37   11.47
 -10   3   4  229.05   11.94
  10   3  -4  227.24   14.91
  10  -3  -4  225.50   11.66
  10  -3   4  254.30   12.63
 -10  -3  -4  209.25    9.76
 -10  -3  -5  184.08   12.77
 -10  -3   5  219.75   16.97
 -10   3   5  186.10   13.19
  10   3  -5  159.47   13.88
  10  -3   5  169.33    8.93
 -10  -3   6  277.46   21.95
 -10   3  -6  284.80   20.06
 -10   3   6  309.88   16.69
  10   3  -6  300.74   15.94
  10  -3  -6  295.03   16.13
  10  -3   6  318.54   16.61
 -10  -3  -7  435.71   26.58
 -10   3  -7  467.79   28.81
 -10  -3   7  472.87   26.86
 -10   3   7  413.84   21.77
  10   3  -7  445.62   23.15
  10  -3  -7  497.41   25.92
  10  -3   7  408.04   20.88
 -10  -3  -8  245.06   15.83
 -10   3  -8  205.36   16.89
 -10  -3   8  223.84   18.94
 -10   3   8  247.09   19.04
  10   3  -8  240.80   14.39
  10  -3  -8  242.06   23.52
  10  -3   8  258.34   14.92
 -10  -3  -9  185.03   13.23
 -10   3  -9  168.67   13.68
 -10  -3   9  165.18   14.50
 -10   3   9  182.75   11.84
  10   3  -9  178.24   17.59
  10  -3  -9  183.13   11.21
  10  -3   9  185.45   12.45
 -10  -3 -10   96.68   11.75
 -10   3 -10   86.78    9.74
 -10  -3  10   66.67    9.01
 -10   3  10   79.86   13.47
  10   3 -10   84.76   13.07
  10  -3 -10   82.99    7.86
  10  -3  10   94.29    6.88
 -10  -3 -11   47.99    8.36
 -10   3 -11   52.96    9.04
 -10  -3  11   52.02    7.90
 -10   3  11   49.11    7.72
  10   3 -11   49.46   11.07
  10  -3 -11   60.05    8.99
  10  -3  11   35.12    6.43
 -10  -3 -12    8.73    2.80
 -10   3 -12   19.38    4.93
 -10  -3  12    4.23    1.19
 -10   3  12    7.74    2.56
  10   3 -12    5.92    2.39
  10  -3 -12    4.32    3.19
  10  -3  12    5.49    2.89
 -10  -3 -13   -2.55    1.85
 -10   3 -13    1.97    1.90
 -10   3  13    7.32    1.99
  10   3 -13    5.22    2.33
  10  -3 -13    9.06    3.97
  10  -3  13    3.98    2.27
 -10   3 -14    9.95    3.36
 -10   3  14    7.31    3.52
  10   3  14   12.40    4.33
  10   3 -14    9.58    2.85
  10  -3 -14    2.44    2.42
  10  -3  14   14.26    4.63
 -10   3 -15   21.70    5.94
 -10   3  15   17.25    4.30
  10   3  15    9.89    3.00
  10   3 -15   15.98    5.11
  10  -3 -15   16.58    4.92
  10  -3  15   22.11    5.24
 -10   3 -16    1.58    1.18
  10   3  16    5.85    2.21
  10   3 -16    4.83    2.35
  10  -3 -16    4.81    2.19
  10   3  17    3.42    2.02
  10   3 -17    7.56    3.04
  10  -3 -17   10.35    3.50
 -10  -4   0   85.23   15.78
 -10   4   0   82.19   14.80
  10   4   0   75.59   11.12
  10  -4   0   75.29    9.66
 -10  -4   0   76.48   10.33
 -10  -4  -1   10.05    3.59
 -10  -4   1   15.95    5.07
 -10   4  -1   13.66    4.43
 -10   4   1   11.04    4.42
  10   4   1   18.95    5.48
  10   4  -1    6.37    1.96
  10  -4  -1   22.62    6.47
 -10  -4   1   18.01    4.89
  10  -4   1    9.66    3.36
 -10  -4  -1   14.56    4.03
 -10  -4  -2  251.05   19.66
 -10  -4   2  210.01   15.24
 -10   4   2  217.40   11.49
  10   4   2  170.95    8.20
  10   4  -2  192.80   11.99
  10  -4  -2  227.11   11.78
  10  -4   2  210.53   11.34
 -10  -4  -2  212.51    9.88
 -10  -4  -3  152.36   13.96
 -10  -4   3  158.91   12.40
 -10   4  -3  158.45   12.92
 -10   4   3  140.47   16.69
  10   4   3  101.44   10.68
  10   4  -3  120.41   16.86
  10  -4  -3  152.64    8.61
  10  -4   3  126.08   28.44
 -10  -4  -3  122.00   12.84
 -10  -4  -4  366.51   22.68
 -10  -4   4  370.98   21.86
 -10   4  -4  352.56   20.12
 -10   4   4  340.90   22.55
  10   4  -4  298.67   14.50
  10  -4  -4  346.86   17.14
  10  -4   4  328.19   15.96
 -10  -4  -5  203.93   19.09
 -10  -4   5  186.59   14.41
 -10   4  -5  201.04   16.41
 -10   4   5  211.60   16.46
  10   4  -5  174.58   15.60
  10  -4  -5  203.47   10.86
  10  -4   5  186.59    9.76
 -10  -4  -6  215.92   15.82
 -10  -4   6  208.87   17.57
 -10   4  -6  205.58   11.46
 -10   4   6  217.94   21.96
  10   4  -6  201.56   11.07
  10  -4  -6  227.47   13.06
  10  -4   6  208.94   11.54
 -10  -4  -7  148.02   10.64
 -10  -4   7  160.96   14.06
 -10   4  -7  153.01   12.90
 -10   4   7  148.03   11.01
  10   4  -7  151.07   14.46
  10  -4  -7  154.76   10.27
  10  -4   7  155.80   11.51
 -10  -4  -8   25.37    6.02
 -10  -4   8   25.80    5.61
 -10   4  -8   29.44    6.76
 -10   4   8   36.31    8.91
  10   4  -8   31.01    7.15
  10  -4  -8   22.73    5.39
  10  -4   8   23.34    6.12
 -10  -4  -9    1.82    2.02
 -10  -4   9    2.32    1.55
 -10   4  -9    5.22    1.91
 -10   4   9    1.96    2.17
  10   4  -9    6.20    2.83
  10  -4  -9    8.65    4.23
  10  -4   9    1.72    2.21
 -10  -4 -10   40.69    8.70
 -10   4 -10   24.39    5.37
 -10  -4  10    7.76    2.39
 -10   4  10   26.33    5.52
  10   4 -10   34.94    8.51
  10  -4 -10   39.87    8.63
  10  -4  10   35.44    7.09
 -10  -4 -11   52.31    9.61
 -10   4 -11   41.35    6.47
 -10  -4  11   29.08    7.16
 -10   4  11   52.61    7.27
  10   4 -11   61.58   12.03
  10  -4 -11   44.09    6.77
  10  -4  11   47.96    8.84
 -10   4 -12   13.33    3.86
 -10   4  12   13.18    3.67
  10   4 -12    3.40    1.99
  10  -4 -12   12.01    4.50
  10  -4  12   17.37    5.15
 -10   4 -13   16.04    4.70
 -10   4  13   20.63    5.55
  10   4  13   12.62    4.60
  10   4 -13   32.98    6.47
  10  -4 -13   -1.24    2.62
  10  -4  13   17.02    4.68
 -10   4 -14   15.80    4.41
 -10   4  14    4.97    2.85
  10   4  14    4.54    3.47
  10   4 -14    5.27    2.18
  10  -4 -14    2.74    2.94
  10  -4  14    7.90    3.78
 -10   4 -15    5.67    1.72
 -10   4  15   16.66    5.63
  10   4  15   24.44    6.58
  10   4 -15   18.57    5.76
  10  -4 -15   17.43    5.12
  10  -4  15   20.49    5.70
 -10   4  16    9.67    3.10
  10   4  16    9.50    3.94
  10   4 -16    8.50    4.87
  10  -4 -16   14.34    5.58
  10  -4  16    9.26    4.28
  10   4  17    3.39    2.18
  10   4 -17    5.10    2.50
  10  -4 -17    7.28    3.50
 -10  -5   0  120.90   15.75
 -10   5   0  110.49   15.01
  10   5   0  102.37   12.25
 -10  -5   0   87.33    9.26
  10  -5   0   96.60   16.62
 -10  -5  -1   98.61   12.56
 -10  -5   1   53.42    7.50
 -10   5   1   89.29   11.11
  10   5   1   38.80    5.49
  10   5  -1   80.93   10.38
 -10  -5   1   39.57    6.01
  10  -5  -1   54.21    7.34
  10  -5   1   84.65   11.78
 -10  -5  -1   72.82    7.74
 -10  -5  -2  107.95   13.49
 -10  -5   2   84.57   11.73
 -10   5  -2   89.51   12.38
 -10   5   2  103.31   11.78
  10   5   2   59.40    6.56
  10   5  -2  101.52   12.40
  10  -5  -2  100.67   16.61
  10  -5   2  107.64   14.70
 -10  -5  -2   98.47   10.32
 -10  -5  -3   29.42    5.88
 -10  -5   3   41.66    5.71
 -10   5  -3   45.45    7.50
 -10   5   3   25.15    5.51
  10   5  -3   22.91    4.71
  10  -5  -3   43.01    7.81
  10  -5   3   22.46    4.51
 -10  -5  -4  261.54   19.90
 -10  -5   4  188.46   15.10
 -10   5  -4  182.57   10.81
 -10   5   4  222.79   17.52
  10   5  -4  216.67   14.68
  10  -5  -4  211.79   12.24
  10  -5   4  233.17   12.80
 -10  -5  -5   36.94    6.14
 -10  -5   5   37.79    6.76
 -10   5  -5   37.99    6.82
 -10   5   5   28.81    8.14
  10   5  -5   26.55    6.75
  10  -5  -5   31.80    9.46
  10  -5   5   21.30    5.79
 -10  -5  -6  139.71   13.91
 -10  -5   6  145.55   13.63
 -10   5  -6  148.91    9.42
 -10   5   6  129.41   10.03
  10   5  -6  124.27   13.54
  10  -5  -6  160.73   10.84
  10  -5   6  123.34   11.42
 -10  -5  -7   13.23    4.38
 -10  -5   7   20.76    4.36
 -10   5  -7   14.44    4.04
 -10   5   7   18.93    4.61
  10   5  -7   14.90    4.62
  10  -5  -7   31.17    7.93
  10  -5   7   12.11    4.12
 -10  -5  -8   30.86    6.76
 -10  -5   8   29.84    6.35
 -10   5  -8   28.56    6.19
 -10   5   8   21.40    4.80
  10   5  -8   22.74    5.91
  10  -5  -8   40.78    7.67
  10  -5   8   23.91    5.67
 -10  -5  -9    2.67    1.67
 -10  -5   9    3.32    1.57
 -10   5  -9    4.58    1.95
 -10   5   9    3.81    2.02
  10   5  -9    3.87    2.30
  10  -5  -9   10.73    5.04
  10  -5   9    4.01    3.52
 -10  -5 -10   26.02    6.86
 -10  -5  10   25.92    6.21
 -10   5 -10   49.64    7.82
 -10   5  10   28.44    6.72
  10   5 -10   27.50    7.35
  10  -5 -10   32.89    8.38
  10  -5  10   22.15    5.52
 -10  -5  11    7.74    2.15
 -10   5 -11   13.87    3.29
 -10   5  11   19.33    5.45
  10   5  11   19.76    5.88
  10   5 -11   19.04    5.07
  10  -5 -11   17.36    6.03
  10  -5  11   18.57    5.17
 -10   5 -12    1.00    1.12
 -10   5  12    4.09    1.90
  10   5  12    2.84    2.62
  10   5 -12    9.84    3.64
  10  -5 -12    3.18    2.65
  10  -5  12   -2.51    2.44
 -10   5 -13    5.78    2.22
 -10   5  13    3.86    2.07
  10   5  13    0.13    2.39
  10   5 -13   -0.25    2.53
  10  -5 -13    3.94    2.73
  10  -5  13   11.64    4.01
 -10   5 -14    5.40    2.10
 -10   5  14    8.11    2.72
  10   5  14    6.48    2.75
  10   5 -14   21.51    6.24
  10  -5 -14    3.74    2.85
  10  -5  14    8.41    2.93
 -10   5 -15    5.96    1.71
 -10   5  15    5.58    1.78
  10   5  15    1.22    2.16
  10   5 -15   -0.01    2.67
  10  -5 -15    2.70    1.70
  10  -5  15    3.15    2.52
 -10   5  16    2.09    1.08
  10   5  16    4.00    3.39
  10   5 -16   11.85    3.44
  10  -5 -16    4.42    2.32
  10  -5  16   -2.30    2.40
  10   5  17    3.88    2.42
  10   5 -17   12.60    5.10
  10  -5 -17    5.52    2.26
  10  -5  17    4.54    2.45
 -10  -6   0    9.05    2.33
 -10   6   0   16.44    3.68
  10   6   0    6.54    1.48
 -10  -6   0   11.61    2.21
  10  -6   0   14.60    4.28
 -10  -6  -1   -1.62    2.03
 -10  -6   1    4.64    1.58
 -10   6  -1    1.99    2.17
 -10   6   1    7.93    5.02
  10   6  -1   -0.70    0.81
 -10  -6   1    0.70    0.68
  10  -6  -1    3.25    2.86
 -10  -6  -1    1.29    0.54
  10  -6   1    1.17    2.80
 -10  -6  -2   22.30    5.74
 -10  -6   2   23.26    6.30
 -10   6  -2   35.72    7.12
 -10   6   2   32.87    9.29
  10   6  -2   28.81    7.08
  10  -6  -2   28.27    8.05
  10  -6   2   14.43    5.15
 -10  -6  -2   17.33    4.28
 -10  -6  -2    9.19    2.32
 -10  -6  -3   31.65    8.84
 -10  -6   3   25.17    6.53
 -10   6  -3   15.83    5.08
 -10   6   3   26.32    7.20
  10   6  -3   30.70    7.50
  10  -6  -3    9.18    4.54
  10  -6   3   20.22    5.62
 -10  -6  -4   81.55   14.00
 -10  -6   4   67.36   11.13
 -10   6  -4   80.90   13.00
 -10   6   4   54.57    8.56
  10   6  -4   69.16   11.70
  10  -6  -4   61.38    9.55
  10  -6   4   60.12   11.96
 -10  -6  -5   86.90   10.97
 -10  -6   5   78.19    8.87
 -10   6  -5   82.12    7.70
 -10   6   5   85.71   10.92
  10   6  -5   81.51    9.56
  10  -6  -5   86.54    9.68
  10  -6   5  100.65   10.03
 -10  -6  -6   33.75    7.27
 -10  -6   6    5.68    2.15
 -10   6  -6   18.70    4.34
 -10   6   6   38.37    8.15
  10   6  -6   39.91    8.92
  10  -6  -6   13.64    5.42
  10  -6   6   13.99    5.34
 -10  -6  -7   72.58   11.82
 -10  -6   7   62.82   10.16
 -10   6  -7   71.25   10.97
 -10   6   7   70.53    9.70
  10   6  -7   79.12   13.29
  10  -6  -7   88.40   13.24
  10  -6   7   66.30    9.54
 -10  -6   8  136.89   13.43
 -10   6  -8  153.34   10.22
 -10   6   8  166.73   11.67
  10   6  -8  154.88   15.10
  10  -6  -8  151.83   10.82
  10  -6   8  145.30   10.45
 -10  -6   9   14.07    3.01
 -10   6  -9   26.55    5.67
 -10   6   9   20.55    4.89
  10   6  -9   22.49    5.31
  10  -6  -9   14.83    4.46
  10  -6   9   19.47    5.26
 -10  -6  10   32.33    5.67
 -10   6 -10   44.22    7.22
 -10   6  10   36.64    6.10
  10   6  10   47.20    8.33
  10   6 -10   42.02    7.17
  10  -6 -10   50.08    8.34
  10  -6  10   29.24    4.84
 -10   6 -11   16.30    4.04
 -10   6  11   20.11    5.48
  10   6  11   12.48    4.62
  10   6 -11   18.97    5.13
  10  -6 -11    9.05    4.47
  10  -6  11    7.36    3.12
 -10   6 -12    3.41    1.25
 -10   6  12    3.91    1.77
  10   6  12    4.06    3.16
  10   6 -12    7.09    2.41
  10  -6 -12    2.65    2.78
  10  -6  12    2.07    2.62
 -10   6 -13   38.62    8.35
 -10   6  13   48.24    8.95
  10   6  13   40.81    7.18
  10   6 -13   46.80   10.32
  10  -6 -13   57.51    9.52
  10  -6  13   58.00    9.33
 -10   6 -14    1.07    1.06
 -10   6  14    5.00    2.29
  10   6  14    6.47    2.59
  10   6 -14    4.12    3.34
  10  -6 -14    1.52    3.64
  10  -6  14    5.30    2.69
 -10   6  15    9.57    3.89
  10   6  15   10.43    3.27
  10   6 -15   15.17    5.73
  10  -6  15    8.49    3.86
 -10   6  16    6.86    3.03
  10   6  16   16.43    5.88
  10   6 -16   12.20    4.53
  10  -6 -16    6.56    3.23
  10  -6  16    9.16    4.12
 -10  -7   0    5.47    1.99
 -10  -7   0    6.77    1.77
  10  -7   0   10.99    4.03
 -10  -7   0    6.10    1.86
 -10  -7  -1  286.51   23.95
 -10  -7   1  291.22   20.02
 -10   7  -1  282.67   18.34
 -10   7   1  271.68   17.63
  10   7  -1  184.31   11.54
 -10  -7   1  222.65   12.67
 -10  -7  -1  218.84   11.65
  10  -7  -1  287.78   15.89
  10  -7   1  247.92   16.93
 -10  -7  -1  235.50   12.15
 -10  -7  -2   81.60   13.65
 -10  -7   2   93.29   14.73
 -10   7  -2   72.67   11.00
 -10   7   2   73.48   12.55
  10   7  -2   72.90   11.82
  10  -7  -2   82.42   12.53
  10  -7   2   78.25   12.31
 -10  -7  -3  168.63   16.18
 -10  -7   3  159.19   14.97
 -10   7  -3  158.65   17.43
 -10   7   3  146.44    9.86
  10   7  -3  164.33   12.85
  10  -7  -3  151.26   10.97
  10  -7   3  139.98    9.40
 -10  -7  -4   45.77   12.85
 -10  -7   4   53.67    6.07
 -10   7  -4   55.46    9.26
 -10   7   4   30.19    7.24
  10   7  -4   45.81   12.61
  10  -7  -4   42.94    8.87
  10  -7   4   39.78    9.10
 -10  -7  -5   20.01    4.43
 -10  -7   5   17.99    4.16
 -10   7  -5   24.71    5.68
 -10   7   5   26.29    6.20
  10   7  -5   30.65    6.56
  10  -7  -5   25.59    6.12
  10  -7   5   43.33    9.36
 -10  -7  -6    7.09    2.39
 -10  -7   6    7.53    2.35
 -10   7  -6    0.77    1.94
 -10   7   6    3.98    2.30
  10   7  -6   -0.85    1.54
  10  -7  -6   15.05    4.17
  10  -7   6   -2.45    3.33
 -10  -7  -7   21.19    4.86
 -10  -7   7   38.78    7.71
 -10   7  -7   36.00    8.03
 -10   7   7   36.66    7.67
  10   7  -7   40.69    7.86
  10  -7  -7   25.94    6.90
  10  -7   7   35.58    7.59
 -10  -7   8   18.69    3.82
 -10   7  -8   23.29    4.76
 -10   7   8   13.33    5.68
  10   7   8   21.64    5.28
  10   7  -8   27.06    6.33
  10  -7  -8   24.26    6.27
  10  -7   8   18.57    5.49
 -10  -7   9   23.35    5.81
 -10   7  -9   25.90    6.60
 -10   7   9   19.87    5.52
  10   7   9   15.53    4.95
  10   7  -9   26.78    6.98
  10  -7  -9   25.55    6.85
  10  -7   9   14.50    4.07
 -10   7 -10    5.08    1.86
 -10   7  10    2.73    2.48
  10   7  10    4.76    2.86
  10   7 -10    6.40    2.39
  10  -7 -10    6.37    3.24
  10  -7  10   11.11    4.67
 -10   7 -11   13.02    3.83
 -10   7  11    1.87    2.16
  10   7  11    8.18    3.13
  10   7 -11   -0.44    1.95
  10  -7 -11    3.53    2.96
  10  -7  11   19.47    5.46
 -10   7 -12    4.83    1.65
 -10   7  12    9.39    4.29
  10   7  12    2.82    2.55
  10   7 -12    3.91    2.08
  10  -7 -12    4.56    2.84
  10  -7  12   11.48    4.68
 -10   7 -13    2.84    1.37
 -10   7  13    4.53    2.39
  10   7  13    1.72    2.65
  10   7 -13    3.20    2.09
  10  -7 -13    2.37    2.96
  10  -7  13    2.41    2.77
 -10   7 -14    2.86    1.11
 -10   7  14    5.72    2.61
  10   7  14    7.05    3.59
  10   7 -14    6.97    3.25
  10  -7  14    8.52    4.28
 -10   7  15    6.75    3.80
  10   7  15    0.21    2.47
  10   7 -15    7.49    2.35
  10  -7 -15    6.22    2.99
  10  -7  15    7.27    3.37
 -10   7  16   13.84    5.01
  10   7  16    6.26    3.48
  10   7 -16   20.69    5.30
  10  -7 -16   15.14    5.27
  10  -7  16   10.32    4.11
 -10  -8   0    6.99    2.45
 -10   8   0   14.64    4.87
  10  -8   0    7.63    3.51
 -10  -8   0    6.91    2.12
 -10  -8  -1   28.86    6.38
 -10  -8   1   13.05    4.70
 -10   8  -1   16.82    4.21
 -10   8   1   12.24    3.90
  10  -8  -1   14.94    4.98
  10  -8   1   25.06    6.51
 -10  -8  -1   18.03    3.78
 -10  -8   1    5.97    1.81
 -10  -8  -2   11.21    4.22
 -10  -8   2    5.45    2.01
 -10   8  -2    7.68    3.04
 -10   8   2    3.00    1.95
  10  -8  -2    1.26    2.79
  10  -8   2    6.16    2.67
 -10  -8   2    2.30    1.17
 -10  -8  -3  172.52   15.86
 -10  -8   3  175.38   16.31
 -10   8  -3  179.91   11.45
 -10   8   3  187.63   20.16
  10  -8  -3  160.95   20.30
  10  -8   3  188.75   12.14
 -10  -8  -4   15.44    3.99
 -10  -8   4   28.55    6.61
 -10   8  -4   27.31    7.21
 -10   8   4   11.77    4.19
  10   8  -4   22.70    4.92
  10  -8  -4   28.66    6.88
  10  -8   4   20.05    5.97
 -10  -8   5   47.78    7.60
 -10   8  -5   42.89    6.94
 -10   8   5   58.06    9.47
  10   8   5   52.68    8.71
  10   8  -5   52.76    8.04
  10  -8  -5   54.79    8.95
  10  -8   5   58.37    9.41
 -10  -8   6   40.37    8.42
 -10   8  -6   54.10    9.06
 -10   8   6   31.84    7.26
  10   8   6   61.55    9.58
  10   8  -6   40.07    8.30
  10  -8  -6   34.99    7.14
  10  -8   6   35.58    7.00
 -10  -8   7  115.01   13.56
 -10   8  -7  141.82   16.19
 -10   8   7  144.46   13.15
  10   8   7  149.07   11.01
  10   8  -7  127.60   14.19
  10  -8  -7  141.80   18.65
  10  -8   7  144.34   10.94
 -10  -8   8  134.69   13.66
 -10   8  -8  168.24   11.97
 -10   8   8  154.59   10.63
  10   8   8  176.10   14.76
  10   8  -8  162.96   16.75
  10  -8  -8  156.82   11.05
  10  -8   8  172.34   11.71
 -10   8  -9   76.25    8.86
 -10   8   9   95.19   11.09
  10   8   9   98.87    9.25
  10   8  -9   89.52    9.96
  10  -8  -9   61.11   11.03
  10  -8   9   72.73   12.90
 -10   8 -10   99.76   15.23
 -10   8  10  124.94   14.27
  10   8  10  107.54   14.68
  10   8 -10  111.85   13.92
  10  -8 -10  113.54   11.22
  10  -8  10   89.06   15.74
 -10   8 -11  117.12   14.81
 -10   8  11  108.78   12.19
  10   8  11  105.53   13.78
  10   8 -11   96.96   13.90
  10  -8 -11  124.93   11.04
  10  -8  11   94.37    8.97
 -10   8 -12   16.72    4.29
 -10   8  12   17.70    4.89
  10   8  12    8.10    3.35
  10   8 -12   15.04    4.42
 -10   8 -13   13.19    3.68
 -10   8  13   14.02    4.66
  10   8  13   32.62    8.37
  10   8 -13   15.92    4.98
  10  -8 -13   30.84    8.22
 -10   8  14    3.81    2.19
  10   8  14   -0.81    2.65
  10   8 -14    1.57    1.76
  10  -8 -14    4.71    3.09
  10  -8  14    0.14    2.85
 -10   8  15    3.98    1.79
  10   8  15    6.32    3.81
  10   8 -15    7.77    2.72
  10  -8  15   10.62    4.64
 -10   9   0    6.85    2.99
  10   9   0    2.58    2.41
  10  -9   0    1.60    3.94
 -10  -9   0    5.71    1.89
 -10   9  -1  313.51   17.48
 -10   9   1  320.83   20.03
  10   9   1  312.03   23.62
  10  -9  -1  327.16   18.34
  10  -9   1  319.31   18.30
 -10  -9  -1  297.23   15.29
 -10  -9   1  306.96   16.51
 -10   9  -2   28.35    7.57
 -10   9   2   29.62    6.63
  10   9   2   29.77    6.90
  10  -9  -2   17.31    4.45
  10  -9   2   19.96    4.60
 -10  -9   2   16.92    3.95
 -10   9  -3  349.09   19.08
 -10   9   3  375.88   20.92
  10   9   3  330.30   18.49
  10  -9  -3  356.57   19.89
  10  -9   3  354.28   19.78
 -10  -9   3  356.42   18.85
 -10   9  -4   72.08   10.09
 -10   9   4   68.36    8.11
  10   9   4   67.38    7.79
  10  -9  -4   83.83    9.13
  10  -9   4   73.20    8.30
 -10  -9   4   71.88    7.62
 -10   9  -5   64.49    7.17
 -10   9   5   57.14    9.11
  10   9   5   53.23    8.63
  10   9  -5   51.79    7.12
  10  -9  -5   67.98    8.37
  10  -9   5   53.68    7.72
 -10  -9   5   51.65    5.46
 -10   9  -6    4.30    2.71
 -10   9   6    1.95    2.49
  10   9  -6    1.78    1.92
  10   9  -6   -0.57    1.46
  10  -9  -6    4.69    2.91
  10  -9   6   18.02    6.18
 -10   9  -7    1.45    1.77
 -10   9   7   -0.80    2.59
  10   9   7   12.15    4.37
  10   9  -7    3.81    1.90
  10   9  -7    2.45    1.36
  10  -9  -7    7.29    2.85
  10  -9   7   -1.31    3.42
 -10   9  -8    4.06    1.98
 -10   9   8    7.81    4.32
  10   9   8   26.52    5.88
  10   9  -8    6.37    1.99
  10   9  -8    5.91    1.98
  10  -9  -8   14.18    4.59
  10  -9   8   18.97    5.11
 -10   9  -9   19.50    4.01
 -10   9   9   20.81    5.07
  10   9   9   18.72    4.90
  10   9  -9   17.08    3.51
  10  -9  -9   10.77    3.88
  10  -9   9    7.93    2.90
 -10   9 -10   18.85    5.05
 -10   9  10   19.52    5.93
  10   9  10    9.16    4.32
  10   9 -10   22.57    6.35
  10  -9 -10   17.22    5.73
  10  -9  10   20.48    6.62
 -10   9 -11   23.95    5.59
 -10   9  11   29.06    7.68
  10   9  11   24.81    6.50
  10   9 -11   24.84    5.78
  10  -9  11   15.51    5.01
 -10   9 -12   19.34    5.01
  10   9  12   12.82    4.30
  10   9 -12   24.95    6.58
  10  -9 -12   37.42    7.93
  10  -9  12   12.15    4.11
 -10   9  13    5.24    2.52
  10   9  13   10.18    4.66
  10   9 -13    3.79    2.45
  10  -9 -13    3.87    3.04
  10  -9  13    6.24    2.67
 -10   9  14   49.22   11.47
  10   9  14   45.92   10.42
  10   9 -14   41.10   11.38
  10  -9 -14   23.11    5.56
  10  -9  14   26.14    6.00
 -10   9  15    7.65    4.19
  10   9  15    3.31    2.52
  10   9 -15    6.92    2.35
  10  -9 -15    7.54    3.20
  10  -9  15   10.47    5.80
 -10  10   0    4.29    3.95
  10  10   0    2.29    2.39
  10 -10   0    7.54    3.98
 -10 -10   0    0.76    0.77
 -10  10  -1   88.93   13.62
 -10  10   1   84.96   12.73
  10  10   1   74.00    8.12
  10  10  -1   89.75    9.71
  10 -10  -1   64.13    7.94
  10 -10   1   93.06    8.15
 -10 -10   1   77.32   12.19
 -10  10  -2    6.40    2.76
  10  10   2    4.17    2.63
  10  10  -2    5.62    2.31
  10 -10  -2    3.51    3.39
  10 -10   2    7.89    4.04
 -10 -10   2    1.38    1.66
 -10  10  -3  113.48   11.27
 -10  10   3  123.37   11.80
  10  10   3   88.31    9.79
  10  10  -3  111.50    7.48
  10 -10  -3   99.44    9.43
  10 -10   3  126.86    9.98
 -10 -10   3  106.37    6.81
 -10  10  -4    7.08    2.22
 -10  10   4   22.00    6.19
  10  10   4   14.33    5.53
  10  10  -4    9.59    3.33
  10 -10  -4   18.70    6.06
  10 -10   4   15.57    5.80
 -10 -10   4    3.14    1.48
 -10  10  -5   47.92    6.78
 -10  10   5   91.75    7.28
  10  10   5   43.83    9.64
  10  10  -5   71.24    9.00
  10 -10  -5   56.89    8.26
  10 -10   5   95.80    8.14
 -10 -10   5   56.38    7.55
 -10  10  -6   58.87    8.74
 -10  10   6   87.21   11.25
  10  10  -6   66.53    7.76
  10  10   6   76.96    8.02
  10 -10  -6   60.39    7.86
  10 -10   6   79.52    8.01
 -10 -10   6   62.41    5.85
 -10  10  -7  148.89   15.20
 -10  10   7  143.12   20.26
  10 -10  -7  139.65   12.93
  10 -10   7  143.60   18.08
 -10 -10   7  158.27   13.30
 -10  10  -8    9.43    3.70
 -10  10   8   11.12    3.26
  10  10   8   13.93    5.14
  10  10  -8   12.80    3.65
  10 -10  -8    9.36    2.85
  10 -10   8   16.44    5.23
 -10 -10   8   15.53    5.44
 -10  10  -9   35.29    5.24
 -10  10   9   38.24    5.66
  10  10   9   33.15    6.96
  10 -10  -9   30.30    8.01
  10 -10   9   31.59    9.03
 -10 -10   9   41.43    4.84
 -10  10 -10   21.39    4.77
 -10  10  10   13.62    5.03
  10  10  10   20.75    5.08
  10 -10  10    3.28    3.50
 -10  10 -11   10.78    3.01
 -10  10  11   37.29    6.97
  10  10  11   18.25    5.24
  10 -10 -11   22.28    6.15
  10 -10  11   19.76    6.48
 -10  10 -12   37.91    6.38
 -10  10  12   39.30    6.23
  10  10  12   43.91    6.50
  10 -10 -12   55.60    8.37
  10 -10  12   45.78    6.64
 -10  10  13    6.54    2.98
  10  10  13    6.34    2.73
  10 -10 -13    3.62    2.85
  10 -10  13   11.32    5.41
 -10  10  14    7.86    4.04
  10  10  14    8.57    3.12
  10 -10 -14    0.47    2.66
  10 -10  14    2.89    3.22
 -10  11   0    3.31    2.52
  10  11   0    4.46    2.19
  10 -11   0    2.79    3.70
 -10  11  -1   85.85    8.70
 -10  11   1  120.03   11.59
  10  11  -1   86.88    7.41
  10  11   1   86.78    9.33
  10 -11  -1   90.30    8.99
  10 -11   1  106.39    8.34
 -10 -11   1   96.09    7.42
 -10  11  -2    8.24    3.13
 -10  11   2   20.87    5.50
  10  11  -2   29.15    5.32
  10  11   2   14.87    4.59
  10 -11  -2   11.49    5.02
  10 -11   2   16.59    4.67
 -10 -11   2    9.99    2.54
 -10  11  -3   31.52    7.56
 -10  11   3   56.86   11.60
  10  11  -3   26.33    4.99
  10  11   3   25.86    5.54
  10 -11  -3   20.84    5.33
  10 -11   3   39.16    8.83
 -10 -11   3   19.74    4.50
 -10  11  -4   16.09    4.08
 -10  11   4   10.64    4.19
  10  11  -4   14.23    4.00
  10  11   4   17.19    4.96
  10 -11  -4   18.05    5.37
  10 -11   4    8.85    3.62
 -10 -11   4   16.27    3.97
 -10  11  -5   31.22    6.60
 -10  11   5   28.64    6.11
  10  11  -5   22.63    4.50
  10  11   5   35.29    7.53
  10 -11   5   30.70    6.31
 -10 -11   5   19.80    3.81
 -10  11  -6    4.46    2.36
 -10  11   6   10.92    3.58
  10  11   6   15.41    5.36
  10  11  -6    7.35    2.41
  10 -11  -6    5.91    2.02
  10 -11   6   15.05    6.22
 -10 -11   6    8.33    3.22
 -10  11  -7   32.91    4.68
 -10  11   7   44.93    5.88
  10  11  -7   24.20    6.10
  10  11   7   35.20    4.74
  10 -11  -7   14.17    4.90
  10 -11   7   26.88    8.51
 -10 -11   7   33.36    4.39
 -10  11  -8   11.69    4.00
 -10  11   8    6.96    3.20
  10  11   8    6.01    3.91
  10 -11   8   16.27    6.07
 -10 -11   8   11.88    3.70
 -10  11  -9   16.94    4.80
 -10  11   9   19.91    5.20
  10  11   9   16.86    5.71
  10 -11   9   15.16    4.88
 -10 -11   9   22.96    5.85
 -10  11 -10   29.02    6.76
 -10  11  10   28.73    7.23
  10  11  10   33.73    9.72
  10 -11 -10   23.27    6.45
  10 -11  10   25.95    7.67
 -10 -11  10   20.17    5.57
 -10  11 -11    5.23    2.28
 -10  11  11    8.27    2.62
  10  11  11    6.85    2.20
  10 -11 -11   -0.04    2.97
  10 -11  11    2.96    3.25
 -10 -11  11    7.55    3.21
 -10  11  12   43.39   11.62
  10  11  12   58.60   12.28
  10 -11 -12   45.19    9.45
  10 -11  12   28.84    9.08
 -10 -11  12   51.21   11.49
 -10  11  13    5.04    3.77
  10  11  13    1.51    2.81
  10 -11 -13    5.12    3.03
  10 -11  13    5.22    3.36
 -10 -11  13    3.71    3.43
 -10  12   0    8.00    3.58
  10  12   0   -1.02    1.98
  10 -12   0    4.05    3.47
 -10  12  -1    5.94    2.27
 -10  12   1   -1.87    2.61
  10  12  -1    8.82    3.96
  10  12   1    4.26    3.30
  10 -12  -1   10.18    5.20
  10 -12   1    6.82    5.88
 -10  12  -2   12.24    3.90
 -10  12   2    9.34    4.48
  10  12   2   15.48    5.48
  10 -12  -2    3.61    4.27
  10 -12   2   20.80    6.47
 -10 -12   2   14.54    4.00
 -10  12  -3   18.71    4.32
 -10  12   3   27.76    6.56
  10  12   3   19.66    4.34
  10  12  -3   21.26    4.20
  10 -12  -3   22.22    5.26
  10 -12   3   18.86    4.62
 -10 -12   3   20.67    4.09
 -10  12  -4   19.35    5.54
 -10  12   4   52.44    6.38
  10  12   4   19.45    5.47
  10  12  -4   30.05    7.71
  10 -12  -4   22.50    6.48
  10 -12   4   21.26    6.34
 -10 -12   4   25.31    6.35
 -10  12  -5   98.45   11.13
 -10  12   5   91.19   14.12
  10  12  -5   86.53    6.99
  10  12   5   88.85    8.31
  10 -12  -5   78.66   12.03
  10 -12   5   88.99    7.98
 -10 -12   5   81.24    6.99
 -10  12  -6    4.79    2.77
 -10  12   6    7.82    4.06
  10  12  -6    2.77    1.47
  10  12   6    4.50    2.71
  10 -12  -6    1.98    2.05
 -10 -12   6    3.31    2.59
 -10  12  -7   22.40    6.19
 -10  12   7   20.73    5.49
  10  12   7   17.25    5.95
  10 -12   7   23.87    6.72
 -10 -12   7   26.46    5.65
 -10  12  -8    2.17    1.02
 -10  12   8    4.26    1.63
  10 -12  -8    9.84    3.01
  10 -12   8   -0.18    3.49
 -10 -12   8    3.20    2.19
 -10  12  -9    8.61    3.01
 -10  12   9    3.30    1.79
  10  12   9    2.50    2.79
  10 -12  -9    8.95    3.64
 -10 -12   9    7.19    2.35
 -10  12 -10    7.12    2.58
 -10  12  10    7.44    4.32
  10  12  10    4.91    3.24
  10 -12 -10    9.33    2.87
  10 -12  10    8.64    4.55
 -10 -12  10    5.05    2.51
 -10  12  11    9.45    4.52
  10  12  11    5.50    2.19
  10 -12 -11    5.88    4.23
  10 -12  11    4.45    2.47
 -10 -12  11   -1.24    2.08
 -10  12  12    3.77    2.63
  10  12  12    4.89    2.78
  10 -12 -12    9.99    4.08
  10 -12  12    1.29    3.10
 -10 -12  12    2.37    2.32
 -10  13   0    3.16    2.50
  10  13   0    0.63    2.36
  10 -13   0    4.29    3.59
 -10  13  -1   18.87    5.08
 -10  13   1   35.00    4.84
  10  13   1   11.18    4.63
  10  13  -1   17.10    5.07
  10 -13  -1   11.35    4.28
  10 -13   1    9.52    4.19
 -10  13  -2    3.66    2.65
 -10  13   2   10.59    4.37
  10  13   2    4.10    2.55
  10  13  -2    4.33    2.27
  10 -13  -2   11.05    4.90
  10 -13   2    1.75    3.62
 -10  13  -3   20.25    4.93
 -10  13   3   24.03    6.14
  10  13  -3   20.31    4.81
  10  13   3   19.76    5.19
  10 -13  -3   22.48    6.10
  10 -13   3   14.25    5.87
 -10  13  -4    7.91    5.57
  10  13  -4    2.88    1.43
  10  13   4    2.66    2.78
  10 -13  -4    3.76    3.20
  10 -13   4   10.67    3.67
 -10 -13   4    1.56    2.00
 -10  13   5    9.87    3.39
  10  13  -5    9.70    3.09
  10  13   5   22.10    5.86
  10 -13  -5   16.52    4.82
  10 -13   5   22.30    6.99
 -10 -13   5   12.38    3.97
 -10  13  -6   -0.42    1.78
 -10  13   6    3.25    2.95
  10  13  -6    1.81    0.74
  10  13   6    6.26    2.84
  10 -13   6    0.83    3.52
 -10 -13   6    5.01    3.25
 -10  13  -7   22.09    6.88
 -10  13   7   20.06    6.54
  10  13   7    4.38    2.92
  10 -13  -7   18.13    5.95
  10 -13   7   19.32    6.46
 -10 -13   7   21.90    5.95
 -10  13  -8   14.98    4.81
 -10  13   8   13.86    4.21
  10  13   8   14.74    5.36
  10 -13  -8   14.59    5.80
  10 -13   8   23.80    7.41
 -10  13  -9   16.49    5.80
 -10  13   9   13.62    5.22
  10  13   9   15.76    5.56
  10 -13  -9   14.10    4.19
  10 -13   9   18.11    5.42
 -10 -13   9   17.11    4.94
 -10  13 -10   29.92    7.37
 -10  13  10   41.00    9.19
  10  13  10   40.82   10.79
  10 -13 -10   30.59    7.06
  10 -13  10   68.89   13.91
 -10 -13  10   47.81    9.58
 -10  13  11    8.40    3.37
  10  13  11    4.05    3.27
  10 -13 -11    9.46    3.99
  10 -13  11    4.33    3.36
 -10 -13  11    0.83    2.13
 -10  14   0  169.97   41.59
  10  14   0  113.51   17.12
  10 -14   0  115.73   18.87
 -10  14  -1    2.47    1.88
  10  14  -1    6.90    3.25
  10  14   1    2.77    2.38
  10 -14  -1   13.68    5.55
 -10  14  -2   89.11   14.07
 -10  14   2  103.37   17.45
  10  14  -2   79.30   16.02
  10  14   2   66.35   12.83
  10 -14  -2   59.64    9.99
  10 -14   2  118.63   19.03
 -10  14  -3   17.59    5.02
 -10  14   3   17.70    5.16
  10  14  -3   12.35    4.26
  10  14   3   20.53    5.48
  10 -14  -3   12.78    3.94
  10 -14   3   20.42    6.60
 -10  14  -4    6.90    3.44
 -10  14   4    8.67    3.20
  10  14  -4    9.90    3.33
  10  14   4   -0.36    2.50
  10 -14  -4   -0.39    2.97
  10 -14   4    9.42    4.47
 -10  14   5   15.88    5.07
  10  14  -5    7.43    2.62
  10  14   5   21.27    6.59
  10 -14   5    7.38    3.32
 -10  14  -6    3.89    2.06
 -10  14   6    3.13    2.94
  10  14   6    4.77    2.96
  10 -14  -6    8.05    4.85
  10 -14   6    6.46    3.61
 -10 -14   6    4.24    2.01
 -10  14  -7   16.94    5.01
 -10  14   7    9.28    3.64
  10  14   7   14.08    4.93
  10 -14  -7   18.52    6.13
  10 -14   7    7.23    3.86
 -10 -14   7   14.71    4.21
 -10  14  -8   16.19    5.00
 -10  14   8   16.41    6.06
  10  14   8   14.76    5.43
  10 -14   8    9.40    4.12
 -10 -14   8   15.60    4.84
 -10  14  -9    4.59    1.92
 -10  14   9   -0.51    2.76
  10  14   9    5.71    3.23
  10 -14  -9    9.08    3.37
  10 -14   9    1.72    3.31
 -10 -14   9    6.73    2.59
 -10  15   0    4.81    2.76
  10  15   0    4.56    2.70
  10 -15   0   12.23    6.66
 -10  15  -1   31.38    8.21
 -10  15   1   36.52    6.90
  10  15   1   31.79    6.02
  10  15  -1   30.33    5.67
  10 -15  -1   24.72    6.21
  10 -15   1   19.45    6.46
 -10  15  -2    1.55    2.06
 -10  15   2    5.97    3.08
  10  15  -2    6.12    2.82
  10  15   2    2.38    2.84
  10 -15  -2    7.18    3.73
  10 -15   2    5.25    3.62
 -10  15  -3   10.41    3.16
 -10  15   3   14.28    8.84
  10  15  -3   11.80    3.95
  10  15   3   15.49    4.84
  10 -15   3    7.77    3.66
 -10  15  -4   19.29    5.86
 -10  15   4   18.85    5.46
  10  15  -4    8.18    3.06
  10  15   4   14.14    4.83
  10 -15   4    5.98    3.56
 -10  15  -5    3.00    2.01
  10  15   5   -2.11    2.88
  10 -15  -5    8.62    4.19
  10 -15   5    5.74    3.13
 -10  15  -6    9.72    3.60
 -10  15   6    8.33    3.73
  10  15   6   17.23    6.01
  10 -15   6    8.37    3.75
 -10  15  -7   13.52    4.49
 -10  15   7    2.09    1.98
  10  15   7    6.78    3.00
  10 -15  -7    9.07    4.33
  10 -15   7   15.36    5.78
 -10  16   0   84.22   20.46
  10  16   0   67.14   15.59
  10 -16   0   74.02   15.23
 -10  16  -1    7.37    3.55
 -10  16   1    2.03    2.71
  10  16  -1    8.05    3.80
  10  16   1    2.10    1.86
  10 -16  -1    9.79    4.25
  10 -16   1    8.96    4.15
 -10  16  -2   57.62   14.20
 -10  16   2   49.73   12.32
  10  16  -2   35.06   10.32
  10  16   2   46.26   11.55
  10 -16   2   29.93    8.58
 -10  16  -3    5.41    2.15
 -10  16   3    6.17    2.83
  10  16  -3    3.15    1.90
  10  16   3    1.44    2.52
  10 -16  -3   12.37    6.49
  10 -16   3   12.60    5.78
 -10  16  -4    7.65    3.45
 -10  16   4    3.85    1.64
  10  16   4   -0.80    2.55
  10 -16  -4    3.12    3.18
  10 -16   4   11.81    4.52
 -11   0   0    8.37    3.34
  11   0   0    3.34    2.57
 -11   0  -1   27.03    5.95
 -11   0   1   33.26    5.56
  11   0  -1   31.36    7.85
  11   0   1   33.41    4.35
 -11   0  -2   80.81   12.37
 -11   0   2   72.44    8.52
  11   0  -2   72.46    8.50
  11   0   2   80.38   11.38
 -11   0  -3   12.38    3.04
 -11   0   3   10.36    2.88
  11   0  -3   19.68    4.43
  11   0   3   13.68    3.28
 -11   0  -4  332.21   20.48
 -11   0   4  285.48   17.60
  11   0  -4  275.60   13.72
  11   0   4  283.98   13.55
 -11   0  -5   73.34   14.57
 -11   0   5   89.78   13.66
  11   0  -5   90.02   13.27
  11   0   5   73.88   10.58
 -11   0  -5   40.23    7.53
 -11   0  -6    2.36    1.55
 -11   0   6    6.42    2.48
  11   0  -6    0.99    2.07
  11   0   6    5.54    1.97
 -11   0  -6    0.15    0.74
 -11   0  -7    5.71    1.92
 -11   0   7   13.05    4.41
  11   0  -7   26.50    6.38
  11   0   7   11.52    3.37
 -11   0  -8    6.51    2.15
 -11   0   8    7.55    2.94
  11   0  -8    5.57    2.91
  11   0   8   13.85    3.03
 -11   0  -9    4.30    1.56
 -11   0   9    2.80    1.33
  11   0  -9    5.40    2.68
  11   0   9    1.76    1.79
 -11   0 -10   36.83    6.83
 -11   0  10   35.48    5.63
  11   0 -10   45.16   10.18
  11   0  10   49.56    6.54
 -11   0 -11    1.84    1.01
 -11   0  11    4.63    2.08
  11   0 -11    1.88    1.63
  11   0  11    8.22    3.01
 -11   0 -12   15.84    4.33
 -11   0  12    1.54    1.68
  11   0 -12    4.24    1.67
 -11   0 -13   10.81    3.90
 -11   0  13   11.25    3.47
  11   0 -13   12.30    4.40
 -11   0 -14    9.63    3.14
  11   0 -14    8.36    3.89
 -11   0 -15    3.19    1.27
  11   0 -15    7.27    2.60
 -11   0 -16    3.32    1.85
  11   0 -16    6.64    2.51
  11   0  17    4.16    2.94
  11   0 -17    6.98    3.11
 -11  -1   0  109.83   15.36
 -11   1   0  128.92   11.81
  11   1   0  104.00   11.33
  11  -1   0  101.67   12.24
 -11  -1  -1  124.98   17.23
 -11  -1   1  124.17   17.42
 -11   1  -1  143.82   12.56
 -11   1   1  147.21   12.72
  11   1  -1  134.01    7.43
  11   1   1  111.48   12.08
  11  -1  -1  107.51   14.89
  11  -1   1  108.85   11.92
 -11  -1  -2   60.16    8.82
 -11  -1   2   50.22    7.66
 -11   1  -2   52.90    7.56
 -11   1   2   65.11    8.63
  11   1  -2   51.50    6.25
  11  -1  -2   47.42    8.20
  11   1   2   37.16    4.44
  11  -1   2   44.59    8.08
 -11  -1  -2   52.34    5.90
 -11  -1  -3    7.77    2.57
 -11   1  -3   11.29    3.26
 -11  -1   3    2.47    1.17
 -11   1   3   15.88    3.93
  11   1  -3    8.01    2.31
  11  -1  -3    2.65    1.85
  11   1   3    4.35    1.57
  11  -1   3    4.60    2.17
 -11  -1  -3    7.22    1.87
 -11  -1  -4   67.17   10.01
 -11  -1   4   72.72    9.22
 -11   1   4   73.57    8.81
  11   1  -4   72.33    8.46
  11  -1  -4   59.71    7.15
  11   1   4   55.49    6.85
  11  -1   4   69.67    7.91
 -11  -1  -4   46.59    6.58
 -11   1  -5   12.20    3.88
 -11  -1   5   12.13    4.23
 -11   1   5    6.24    3.39
  11   1  -5    8.36    3.24
  11  -1  -5   15.86    4.89
  11   1   5    4.75    1.77
  11  -1   5    7.23    2.49
 -11  -1  -5    5.18    1.58
 -11  -1  -6   21.78    6.06
 -11   1  -6   19.93    5.40
 -11  -1   6   13.69    3.76
 -11   1   6   13.58    3.85
  11   1  -6   17.71    5.42
  11  -1  -6   11.65    4.30
  11   1   6   11.57    3.84
 -11  -1  -6    8.97    2.24
 -11  -1  -7   71.87    8.56
 -11   1  -7   71.13    9.50
 -11  -1   7   69.64    6.73
 -11   1   7   70.07    7.03
  11   1  -7   70.34   12.80
  11  -1  -7   50.20    5.47
  11  -1   7   59.42    8.77
 -11  -1  -8   48.99    9.19
 -11   1  -8   40.44    6.47
 -11  -1   8   41.43    5.82
 -11   1   8   46.72    6.82
  11   1  -8   42.37    7.96
  11  -1  -8   34.85    7.25
  11   1   8   24.38    5.72
  11  -1   8   39.94    5.40
 -11  -1  -9   84.39   10.65
 -11   1  -9   69.31    8.65
 -11  -1   9   55.84    6.73
 -11   1   9   88.19    7.21
  11   1  -9   63.60   12.94
  11  -1  -9   43.22    7.14
  11   1   9   33.76    7.73
  11  -1   9   86.86    6.31
 -11  -1 -10   30.87    4.96
 -11   1 -10   27.85    6.69
 -11  -1  10   19.81    5.12
 -11   1  10   24.22    5.81
  11   1 -10   31.70    5.39
  11  -1 -10   26.68    6.75
  11  -1  10   27.59    6.77
 -11  -1 -11   58.06    8.91
 -11   1 -11   61.18    8.64
 -11  -1  11   43.77    8.22
 -11   1  11   51.45   10.22
  11   1 -11   50.69   11.59
  11  -1 -11   58.18   12.63
  11  -1  11   35.27    7.77
 -11  -1 -12   22.65    4.71
 -11   1 -12   15.98    4.59
 -11  -1  12   15.81    4.28
 -11   1  12    7.96    2.58
  11   1 -12   19.89    4.84
  11  -1 -12   17.39    5.89
  11  -1  12    8.87    2.90
 -11  -1 -13   48.10    8.02
 -11   1 -13   67.50   10.27
 -11  -1  13   49.17    7.67
 -11   1  13   41.03    8.63
  11   1 -13   55.07   11.68
  11  -1 -13   60.07    9.63
 -11  -1 -14   22.17    5.25
 -11   1 -14   24.88    5.56
 -11   1  14   21.53    5.08
  11   1 -14   18.27    5.37
  11  -1 -14   20.78    5.53
 -11  -1 -15   32.20    6.45
 -11   1 -15   29.95    8.56
  11   1 -15   48.48   12.17
  11  -1 -15   22.01    9.34
 -11   1 -16   17.13    5.35
  11   1  16   23.32    5.07
  11   1 -16   13.72    4.86
  11  -1 -16   13.37    4.68
  11   1  17    7.95    3.98
  11  -1  17   13.46    4.73
  11   1 -17   10.09    3.81
  11  -1 -17   12.41    4.45
 -11  -2   0   48.83    8.15
 -11   2   0   53.73    8.22
  11   2   0   44.42    5.20
  11  -2   0   52.74    6.58
 -11  -2  -1   16.81    4.34
 -11  -2   1    7.35    2.11
 -11   2  -1    8.93    2.80
 -11   2   1    7.66    2.51
  11   2  -1   11.04    2.42
  11   2   1    6.02    1.95
  11  -2  -1   10.67    3.25
  11  -2   1   12.08    3.00
 -11  -2  -1   11.37    2.28
 -11  -2  -2   30.71    7.10
 -11  -2   2   25.38    5.21
 -11   2  -2   26.31    5.18
 -11   2   2   31.68    6.69
  11   2  -2   21.02    4.96
  11   2   2   20.83    4.73
  11  -2  -2   18.01    4.61
  11  -2   2   29.94    5.75
 -11  -2  -2   24.05    4.33
 -11  -2  -3    2.16    1.75
 -11  -2   3    5.80    2.69
 -11   2  -3    8.93    3.41
 -11   2   3    5.82    2.99
  11   2  -3    7.76    2.67
  11   2   3    5.33    1.56
  11  -2  -3    3.23    1.75
  11  -2   3   12.10    3.05
 -11  -2  -3    3.29    1.30
 -11  -2  -4  327.30   19.89
 -11  -2   4  290.30   18.68
 -11   2  -4  293.55   20.92
 -11   2   4  320.26   22.09
  11   2  -4  360.90   18.88
  11   2   4  253.10   12.89
  11  -2  -4  309.60   16.55
  11  -2   4  309.47   16.24
 -11  -2  -4  284.34   14.26
 -11  -2  -5   92.58   15.46
 -11   2  -5   68.73   12.21
 -11  -2   5   69.64   11.75
 -11   2   5   85.44   14.79
  11   2  -5   92.46   15.50
  11  -2  -5   54.85    8.57
  11   2   5   39.96    7.03
  11  -2   5   86.53   12.48
 -11  -2  -5   52.13    7.93
 -11  -2  -6  300.60   20.12
 -11   2  -6  209.23   19.52
 -11  -2   6  212.77   19.16
 -11   2   6  301.62   21.00
  11  -2  -6  221.89   13.71
  11   2   6  175.26   10.28
  11  -2   6  287.86   16.28
 -11  -2  -7   93.52   11.57
 -11   2  -7   65.47    9.72
 -11  -2   7   62.86    7.93
 -11   2   7   75.99   10.74
  11   2  -7   70.18   14.59
  11  -2  -7   62.86    6.79
  11   2   7   48.73    5.01
  11  -2   7   60.23    9.83
 -11  -2  -8  109.91   12.20
 -11   2  -8  109.80   12.38
 -11  -2   8  104.88    9.62
 -11   2   8   96.31    7.66
  11   2  -8   94.30   15.81
  11  -2  -8   91.50    6.76
  11   2   8   71.97    9.24
  11  -2   8  110.86    6.91
 -11  -2  -9  191.53   16.84
 -11   2  -9  172.37   15.69
 -11  -2   9  161.91   14.05
 -11   2   9  176.78   11.89
  11   2  -9  169.63   20.21
  11  -2  -9  191.07   13.07
  11  -2   9  192.13   13.46
 -11  -2 -10   62.79   10.33
 -11   2 -10   50.95    8.84
 -11  -2  10   44.22    6.43
 -11   2  10   51.68    9.02
  11   2 -10   51.52   12.34
  11  -2 -10   48.96    7.38
  11  -2  10   65.53   13.74
 -11  -2 -11   43.29    9.02
 -11   2 -11   56.44   10.61
 -11  -2  11   30.54    6.65
 -11   2  11   46.38    9.46
  11   2 -11   44.93   10.29
  11  -2 -11   44.03    9.33
  11  -2  11   25.59    7.28
 -11  -2 -12    7.47    2.13
 -11   2 -12    7.91    2.34
 -11  -2  12    2.11    1.04
 -11   2  12    5.14    2.76
  11   2 -12    9.84    4.34
  11  -2 -12   -1.01    2.95
  11  -2  12    5.20    1.95
 -11  -2 -13    9.65    3.58
 -11   2 -13   18.94    5.63
  11   2 -13   18.67    5.79
  11  -2 -13   25.44    8.34
  11  -2  13   12.50    3.78
 -11  -2 -14   32.95    9.49
 -11   2 -14   38.48    8.63
 -11   2  14   43.01    6.91
  11   2 -14   52.82   12.09
  11  -2 -14   29.67    7.35
 -11   2 -15    0.85    1.36
  11   2  15   -0.25    1.34
  11   2 -15    5.12    2.39
  11  -2 -15    5.57    2.15
 -11   2 -16    2.12    1.86
  11   2  16    6.97    3.03
  11   2 -16    3.31    2.81
  11  -2 -16    6.58    2.57
  11   2  17    5.33    2.24
  11   2 -17    3.11    2.11
  11  -2 -17    7.12    2.69
 -11  -3   0  311.43   25.69
 -11   3   0  308.20   15.57
  11   3   0  289.90   13.85
  11  -3   0  301.24   14.88
 -11  -3   0  257.49   12.13
 -11  -3  -1  183.72   15.67
 -11  -3   1  166.32   15.50
 -11   3  -1  157.82   14.62
 -11   3   1  176.91   13.92
  11   3  -1  160.57    8.77
  11   3   1  137.44    9.02
  11  -3  -1  159.71    8.72
  11  -3   1  163.22    8.61
 -11  -3  -1  153.57    7.43
 -11  -3  -2  264.79   20.44
 -11  -3   2  246.12   19.48
 -11   3  -2  284.62   16.29
 -11   3   2  251.55   13.76
  11   3  -2  249.12   14.23
  11   3   2  226.31   10.77
  11  -3  -2  276.16   13.86
  11  -3   2  270.58   13.53
 -11  -3  -2  222.82   10.77
 -11  -3  -3  104.06   18.10
 -11  -3   3  134.52   13.87
 -11   3  -3  101.52   14.72
 -11   3   3  123.30   19.91
  11   3  -3  104.37   15.43
  11   3   3   96.80   13.79
  11  -3  -3   95.12   13.92
  11  -3   3  109.13   15.59
 -11  -3  -3  101.56   14.47
 -11  -3  -4  123.36   20.78
 -11  -3   4  122.33   19.15
 -11   3  -4  136.61   10.50
 -11   3   4  132.69   14.06
  11   3  -4  109.73   17.57
  11   3   4   86.96   12.33
  11  -3  -4  108.45   17.92
  11  -3   4  124.73   20.50
 -11  -3  -4   84.39   12.12
 -11  -3  -5   64.82   11.38
 -11  -3   5   61.12   10.21
 -11   3  -5   64.15   11.30
 -11   3   5   57.81    9.26
  11   3   5   14.42    3.40
  11   3  -5   50.09   10.07
  11   3   5   19.12    4.50
  11  -3  -5   66.55   10.34
  11  -3   5   49.98   10.01
 -11  -3  -6   10.97    3.50
 -11  -3   6   12.40    4.04
 -11   3  -6   11.04    3.74
 -11   3   6   14.01    5.19
  11   3  -6    9.75    3.31
  11  -3  -6   18.66    5.12
  11  -3   6   12.63    4.22
 -11  -3  -7   38.64    7.14
 -11  -3   7   41.16    6.07
 -11   3  -7   41.49    6.97
 -11   3   7   44.05    7.12
  11   3  -7   41.30    8.43
  11  -3  -7   41.09    6.23
  11  -3   7   42.56    5.95
 -11  -3  -8   45.15    7.25
 -11   3  -8   45.42    8.02
 -11  -3   8   39.32    5.98
 -11   3   8   35.64    7.32
  11   3  -8   29.68    7.11
  11  -3  -8   55.25    8.26
  11  -3   8   23.83    4.96
 -11  -3  -9   76.36   14.50
 -11   3  -9   54.53    7.32
 -11  -3   9   54.43    6.99
 -11   3   9   71.22   10.15
  11   3  -9   58.84   11.14
  11  -3  -9   68.54    8.27
  11  -3   9   66.03    7.21
 -11  -3 -10   63.95   10.65
 -11   3 -10   81.91    9.25
 -11  -3  10   69.11    8.13
 -11   3  10   52.01    8.85
  11   3 -10   66.19   16.65
  11  -3 -10   71.66    6.29
  11  -3  10   58.85    7.79
 -11  -3 -11   79.98   10.62
 -11   3 -11   62.17    9.79
 -11  -3  11   58.46    8.04
 -11   3  11   57.82    8.66
  11   3 -11   60.37   11.99
  11  -3 -11   77.19    7.53
  11  -3  11   53.02   10.27
 -11  -3 -12   10.64    3.38
 -11   3 -12    3.50    1.14
 -11   3  12    5.14    2.21
  11   3 -12    4.07    1.99
  11  -3 -12    4.03    3.08
  11  -3  12    3.62    2.29
 -11  -3 -13   68.61   12.97
 -11   3 -13   59.18    9.72
 -11   3  13   68.24   10.78
  11   3 -13   81.70   16.50
  11  -3 -13   56.36   11.30
  11  -3  13   84.63   11.31
 -11   3 -14    8.60    2.89
 -11   3  14    7.22    2.66
  11   3  14    8.34    3.22
  11   3 -14   10.06    4.25
  11  -3 -14   11.22    5.29
  11  -3  14    9.53    2.97
 -11   3 -15   38.95    8.36
 -11   3  15   45.85    6.80
  11   3  15   50.57    7.72
  11   3 -15   58.50   14.67
  11  -3 -15   42.39    9.41
 -11   3 -16    1.97    1.08
  11   3  16    1.81    1.30
  11   3 -16    1.04    1.29
  11  -3 -16    5.63    2.10
 -11  -4   0   39.11    7.63
 -11   4   0   43.22    7.76
  11   4   0   31.14    8.38
  11  -4   0   23.91    6.63
 -11  -4   0   32.27    8.67
 -11  -4  -1   95.99   15.06
 -11  -4   1   96.61   15.90
 -11   4  -1   81.35   13.76
 -11   4   1   84.49   14.14
  11   4   1   67.94   10.85
  11   4  -1   58.27   11.10
  11  -4  -1   70.26   13.42
  11  -4   1   78.42   15.47
 -11  -4  -1   70.80   10.42
 -11  -4  -2   45.49    7.95
 -11  -4   2   52.03    8.76
 -11   4   2   48.57    8.44
  11   4   2   15.41    4.00
  11   4  -2   38.29    8.34
  11  -4  -2   55.38    8.90
  11  -4   2   41.73    8.61
 -11  -4  -2   32.13    8.98
 -11  -4  -3   42.37    8.20
 -11  -4   3   20.87    5.62
 -11   4  -3   33.29    9.49
 -11   4   3   28.94    7.73
  11   4   3    7.38    1.91
  11   4  -3   46.28    8.93
  11  -4  -3   20.96    6.12
  11  -4   3   32.93   10.05
 -11  -4  -3   19.16    4.90
 -11  -4  -4   10.02    3.40
 -11  -4   4    6.09    1.88
 -11   4  -4    5.26    2.33
 -11   4   4   16.88    4.73
  11   4  -4   22.13    5.98
  11  -4  -4   16.54    5.08
  11  -4   4   18.85    5.11
 -11  -4  -5  122.06   14.29
 -11  -4   5  139.61   12.33
 -11   4  -5  133.81    8.94
 -11   4   5  130.56   11.73
  11   4  -5  115.96   14.36
  11  -4  -5  137.83   15.75
  11  -4   5  127.98    8.70
 -11  -4  -6  123.61   13.32
 -11  -4   6  104.40   11.01
 -11   4  -6  101.37   12.07
 -11   4   6  119.29   31.68
  11   4  -6  101.62   15.79
  11  -4  -6   95.68    9.53
  11  -4   6   81.88   15.34
 -11  -4   7   30.62    6.52
 -11   4  -7   30.83    6.96
 -11   4   7   32.89    6.93
  11   4  -7   22.75    5.39
  11  -4  -7   43.35    7.33
  11  -4   7   20.27    4.94
 -11  -4  -8  113.34   12.99
 -11  -4   8  117.03   12.03
 -11   4  -8  105.55   11.46
 -11   4   8  113.28   13.64
  11   4  -8  105.52   14.70
  11  -4  -8  106.59   10.86
  11  -4   8   96.15    7.92
 -11  -4  -9   10.66    2.80
 -11  -4   9   19.40    4.63
 -11   4  -9   26.03    6.35
 -11   4   9   26.93    6.61
  11   4  -9   17.95    5.47
  11  -4  -9   27.91    7.22
  11  -4   9   17.61    5.08
 -11  -4 -10   42.76    6.75
 -11   4 -10   51.41    8.72
 -11  -4  10   56.36    8.73
 -11   4  10   43.60    7.22
  11   4 -10   45.37    9.28
  11  -4 -10   57.07    8.24
  11  -4  10   41.03    7.06
 -11  -4 -11   46.54    6.48
 -11   4 -11   40.66    8.62
 -11  -4  11   28.46    6.83
 -11   4  11   45.17    9.29
  11   4 -11   39.02    8.59
  11  -4 -11   30.50    6.39
  11  -4  11   21.30    4.05
 -11  -4 -12   55.53    8.33
 -11   4 -12   59.57   10.09
 -11   4  12   35.21    4.16
  11   4 -12   43.21    8.93
  11  -4 -12   49.29    6.48
  11  -4  12   29.76    7.67
 -11   4 -13    2.84    1.18
 -11   4  13    6.07    2.99
  11   4  13    1.93    1.48
  11   4 -13    7.34    3.20
  11  -4 -13    2.71    3.14
  11  -4  13   11.49    4.17
 -11   4 -14   28.84    7.63
 -11   4  14   48.99    8.72
  11   4  14   51.16    8.76
  11   4 -14   21.95    7.38
  11  -4 -14   46.90    9.62
 -11   4 -15    5.37    2.24
 -11   4  15   18.71    5.16
  11   4  15    8.06    3.38
  11   4 -15    7.53    2.50
  11  -4 -15   17.72    6.16
  11  -4  15    5.45    2.41
  11   4  16   15.96    5.13
  11   4 -16   10.41    3.85
  11  -4 -16   15.32    5.03
 -11  -5   0   24.77    6.65
 -11   5   0   26.77    6.82
  11   5   0   22.55    6.00
  11  -5   0   36.15    6.28
 -11  -5   0   27.53    6.75
 -11  -5  -1   88.58   15.14
 -11  -5   1  115.24   18.54
 -11   5  -1   93.90   15.09
 -11   5   1   91.14   13.60
  11   5   1   81.36   12.32
  11   5  -1   78.71   13.81
  11  -5  -1   88.37   13.13
 -11  -5   1   79.45   12.46
  11  -5   1   97.50   14.39
 -11  -5  -1   64.29   10.61
 -11  -5  -2   42.18    7.56
 -11  -5   2   63.32   10.65
 -11   5  -2   53.64   10.53
 -11   5   2   41.54    7.05
  11   5   2   30.76    7.34
  11   5  -2   40.56    7.88
  11  -5  -2   39.96    9.17
  11  -5   2   45.37    7.28
 -11  -5  -2   33.88    9.01
 -11  -5  -3  104.45   12.32
 -11  -5   3  132.92   12.45
 -11   5  -3  124.38    8.33
 -11   5   3  109.23   13.69
  11   5  -3   91.43   11.31
  11  -5  -3  113.39   10.34
  11  -5   3  108.70   11.42
 -11  -5  -4   12.41    3.75
 -11  -5   4   36.28    7.88
 -11   5  -4   37.08    8.37
 -11   5   4   18.94    5.06
  11   5  -4   15.17    4.38
  11  -5  -4   28.33    7.02
  11  -5   4   11.24    3.89
 -11  -5  -5   27.42    6.15
 -11  -5   5   46.79   12.40
 -11   5  -5   60.13    8.27
 -11   5   5   27.58    6.17
  11   5  -5   21.76    4.77
  11  -5  -5   40.73    8.41
  11  -5   5   15.52    3.91
 -11  -5  -6   20.39    6.04
 -11  -5   6   39.66    6.28
 -11   5  -6   32.45    6.52
 -11   5   6   30.88    6.63
  11   5  -6   32.70    7.55
  11  -5  -6   46.35    8.64
  11  -5   6   20.43    4.73
 -11  -5  -7   14.62    4.29
 -11  -5   7   23.40    4.87
 -11   5  -7   13.40    3.07
 -11   5   7   20.39    5.44
  11   5  -7   19.38    4.69
  11  -5  -7    9.80    3.78
  11  -5   7   16.93    4.85
 -11  -5  -8   22.47    5.27
 -11  -5   8   36.55    7.27
 -11   5  -8   37.01    7.52
 -11   5   8   11.46    3.78
  11   5  -8   31.10    7.57
  11  -5  -8   28.69    6.06
  11  -5   8   20.47    5.55
 -11  -5  -9   55.08   11.58
 -11  -5   9   45.90    8.58
 -11   5  -9   60.72   11.05
 -11   5   9   61.59    9.79
  11   5  -9   48.40    9.07
  11  -5  -9   55.68    9.94
  11  -5   9   54.48    8.11
 -11  -5 -10   10.56    3.79
 -11  -5  10   18.52    4.38
 -11   5 -10   21.47    6.41
 -11   5  10    8.90    2.79
  11   5 -10   14.43    3.75
  11  -5 -10   27.85    7.33
  11  -5  10   12.30    3.49
 -11  -5 -11   44.50   10.85
 -11   5  11   35.45    6.81
  11   5 -11   30.37    6.32
  11  -5 -11   21.42    4.41
  11  -5  11   24.31    4.77
 -11   5 -12   17.88    4.71
 -11   5  12   12.99    4.40
  11   5  12   16.70    5.36
  11   5 -12   18.82    6.23
  11  -5 -12    7.99    3.05
  11  -5  12   10.04    4.05
 -11   5 -13    3.80    1.94
 -11   5  13    8.98    3.69
  11   5  13   10.29    3.57
  11   5 -13   16.21    5.35
  11  -5 -13    4.82    4.33
  11  -5  13   10.39    3.89
 -11   5 -14    7.03    1.97
 -11   5  14    6.21    2.10
  11   5  14   10.77    4.01
  11   5 -14    9.84    2.91
  11  -5 -14    3.47    3.92
  11  -5  14    3.32    1.88
 -11   5 -15   12.07    3.15
 -11   5  15    5.13    2.00
  11   5  15    8.69    3.10
  11   5 -15   11.40    4.33
  11  -5 -15   10.23    3.79
  11  -5  15    6.85    3.84
 -11   5  16    2.94    1.91
  11   5  16    5.53    3.41
  11   5 -16   13.43    4.65
  11  -5 -16    8.90    3.70
 -11  -6   0    2.68    1.48
 -11   6   0   -0.69    2.09
 -11  -6   0    2.16    0.89
  11  -6   0    0.70    2.82
 -11  -6  -1   11.37    4.04
 -11  -6   1   19.75    4.86
 -11   6  -1   12.12    3.89
 -11   6   1   15.35    4.23
  11   6  -1   12.66    3.53
  11  -6  -1    4.96    3.10
  11  -6   1   18.71    5.02
 -11  -6  -2   12.20    3.64
 -11  -6   2    3.39    1.50
 -11   6  -2    2.65    2.30
 -11   6   2   15.07    5.38
  11   6  -2    6.36    2.01
  11  -6  -2    6.63    4.04
  11  -6   2    3.03    2.97
 -11  -6  -2    3.89    1.16
 -11  -6  -2    2.99    0.86
 -11  -6  -3   10.03    3.53
 -11  -6   3    7.86    2.42
 -11   6  -3    2.66    2.19
 -11   6   3   11.08    3.91
  11   6  -3    2.07    0.92
  11  -6  -3    7.82    4.45
  11  -6   3    4.81    3.09
 -11  -6  -4    5.41    2.06
 -11  -6   4    2.32    1.35
 -11   6  -4    4.90    1.95
 -11   6   4    3.91    2.47
  11   6  -4    8.04    2.32
  11  -6  -4    4.39    2.92
  11  -6   4   18.27    5.17
 -11  -6  -5   14.09    4.54
 -11  -6   5   10.71    3.39
 -11   6  -5   11.32    4.55
 -11   6   5    7.03    3.07
  11   6  -5    6.64    2.25
  11  -6  -5   13.61    3.76
  11  -6   5    4.41    3.01
 -11  -6  -6   34.44    7.90
 -11  -6   6   23.11    5.11
 -11   6  -6   30.16    6.34
 -11   6   6   31.59    7.23
  11   6  -6   26.96    6.51
  11  -6  -6   31.30    7.43
  11  -6   6   25.54    6.01
 -11  -6  -7    8.85    4.29
 -11  -6   7    5.39    1.89
 -11   6  -7    4.98    2.36
 -11   6   7   13.18    5.20
  11   6  -7   10.96    4.05
  11  -6  -7   13.06    5.51
  11  -6   7    9.62    3.68
 -11  -6   8   15.17    4.29
 -11   6  -8   19.00    4.80
 -11   6   8   20.22    5.38
  11   6  -8   22.07    5.32
  11  -6  -8    9.32    3.92
  11  -6   8   11.30    3.56
 -11  -6  -9   37.81    7.19
 -11  -6   9   36.86    7.68
 -11   6  -9   51.33    9.24
 -11   6   9   37.16    7.21
  11   6  -9   29.20    6.35
  11  -6  -9   40.59    7.80
  11  -6   9   29.90    6.20
 -11  -6  10   28.45    5.90
 -11   6 -10   38.84    7.98
 -11   6  10   58.85    8.31
  11   6 -10   46.36    8.01
  11  -6 -10   43.88    7.76
  11  -6  10   58.70    6.73
 -11   6 -11   62.73    9.93
 -11   6  11   53.75    6.85
  11   6  11   90.67   12.53
  11   6 -11   57.50    8.84
  11  -6 -11   75.48    7.59
  11  -6  11   61.81    6.65
 -11   6 -12   36.80    8.55
 -11   6  12   43.37    8.47
  11   6  12   40.22    9.16
  11   6 -12   51.78    9.62
  11  -6 -12   41.55    7.38
  11  -6  12   64.09   10.48
 -11   6 -13   28.26    7.85
 -11   6  13   27.39    7.42
  11   6  13   29.43    8.31
  11   6 -13   32.00    9.12
  11  -6 -13   35.73    7.39
  11  -6  13   36.87    6.91
 -11   6 -14   14.40    4.36
 -11   6  14    7.66    2.32
  11   6  14   21.00    6.56
  11   6 -14   33.68    6.30
  11  -6 -14   15.81    5.44
  11  -6  14   23.15    6.56
 -11   6  15    5.91    2.41
  11   6  15   15.08    5.10
  11   6 -15   15.37    6.02
  11  -6 -15   12.18    4.45
  11  -6  15   18.14    4.69
 -11  -7   0   30.33    7.06
  11  -7   0   13.87    4.44
 -11  -7   0    7.75    2.23
 -11  -7  -1   22.28    5.13
 -11  -7   1    4.53    2.23
 -11   7  -1   12.06    4.01
 -11   7   1   36.49   10.26
  11   7  -1   21.65    4.43
  11  -7  -1   11.02    4.19
  11  -7   1   17.62    5.35
 -11  -7  -1    9.20    2.53
 -11  -7  -2   27.15    6.05
 -11  -7   2    9.11    3.31
 -11   7  -2   17.34    4.61
 -11   7   2   28.50    6.83
  11   7  -2   25.83    5.59
  11  -7  -2   11.19    3.98
  11  -7   2   28.93    7.93
 -11  -7  -3  180.21   16.84
 -11  -7   3  130.25   13.25
 -11   7  -3  127.83   16.76
 -11   7   3  188.64   16.58
  11   7  -3  162.27   12.99
  11  -7  -3  127.56   11.50
  11  -7   3  187.97   11.84
 -11  -7  -4   13.86    3.54
 -11  -7   4   14.71    3.82
 -11   7  -4   10.04    3.59
 -11   7   4   16.57    5.00
  11   7  -4   10.17    3.01
  11  -7  -4    9.80    3.71
  11  -7   4   12.30    5.57
 -11  -7  -5   85.03    8.59
 -11  -7   5   59.03    7.65
 -11   7  -5   74.69    7.82
 -11   7   5   58.87    8.44
  11   7  -5   81.91    8.20
  11  -7  -5   64.01   11.27
  11  -7   5   67.56   13.24
 -11  -7  -6    9.59    3.27
 -11  -7   6   24.92    4.70
 -11   7  -6   31.79    6.74
 -11   7   6   13.02    4.09
  11   7  -6   22.41    4.58
  11  -7  -6    6.74    3.51
  11  -7   6   37.66    8.29
 -11  -7  -7  131.57   13.36
 -11  -7   7   95.27   11.28
 -11   7  -7  116.64    7.83
 -11   7   7  117.43   16.43
  11   7  -7  134.53   15.76
  11  -7  -7  127.10    9.94
  11  -7   7  131.49    9.53
 -11  -7   8   15.31    4.11
 -11   7  -8   20.59    4.81
 -11   7   8   33.88    7.27
  11   7  -8   29.05    5.61
  11  -7  -8   10.94    3.86
  11  -7   8   33.54    7.37
 -11  -7   9   25.54    5.40
 -11   7  -9   44.18    8.88
 -11   7   9   44.30    9.12
  11   7   9   36.47    8.47
  11   7  -9   36.61    7.53
  11  -7  -9   32.85    7.08
  11  -7   9   37.86    7.59
 -11   7 -10    6.94    2.01
 -11   7  10   10.61    3.46
  11   7  10    5.19    2.84
  11   7 -10    7.75    2.29
  11  -7 -10   11.69    4.04
  11  -7  10    8.42    3.52
 -11   7 -11    6.42    2.15
 -11   7  11   12.02    4.72
  11   7  11    3.05    2.53
  11   7 -11    5.09    2.55
  11  -7 -11   12.62    5.15
  11  -7  11    8.39    3.05
 -11   7 -12    5.94    1.85
 -11   7  12    7.66    3.40
  11   7  12    8.76    4.35
  11   7 -12    9.40    2.74
  11  -7 -12    4.72    2.97
  11  -7  12    4.77    1.88
 -11   7 -13    0.00    1.46
 -11   7  13    8.48    2.62
  11   7  13    6.68    2.86
  11   7 -13    7.23    2.78
  11  -7 -13    3.88    3.07
  11  -7  13    5.18    4.02
 -11   7 -14   -1.28    1.40
 -11   7  14    6.44    2.92
  11   7  14   -0.37    2.38
  11   7 -14    5.73    2.98
  11  -7 -14   -2.19    2.89
  11  -7  14    6.94    3.67
 -11   7  15    4.66    2.20
  11   7  15    6.04    3.01
  11   7 -15    6.22    2.92
  11  -7 -15    1.76    1.96
  11  -7  15    2.96    2.62
 -11  -8   0   36.63   10.61
 -11   8   0   41.11    6.60
  11  -8   0   36.27   10.32
 -11  -8   0   38.82    6.01
 -11  -8   1  292.26   20.82
 -11  -8  -1  282.31   19.69
 -11   8  -1  280.84   16.16
 -11   8   1  272.27   15.49
  11  -8  -1  273.17   15.55
  11  -8   1  290.52   16.47
 -11  -8   1  241.00   13.18
 -11  -8  -2   54.60    7.59
 -11  -8   2   44.28    7.10
 -11   8  -2   61.48    8.18
 -11   8   2   43.18    8.48
  11  -8  -2   54.92    7.42
  11  -8   2   45.34    5.97
 -11  -8   2   38.50    7.49
 -11  -8  -3  146.06   14.69
 -11  -8   3  132.55   12.68
 -11   8  -3  113.61   13.90
 -11   8   3  141.75   14.45
  11   8  -3  129.61   12.57
  11  -8  -3  122.73   14.54
  11  -8   3  122.96    9.19
 -11  -8  -4  113.10   11.87
 -11  -8   4   97.31    9.51
 -11   8  -4   96.15   12.59
 -11   8   4  105.92    8.52
  11   8  -4   89.04   10.07
  11  -8  -4  123.05    9.38
  11  -8   4   98.51    8.57
 -11  -8  -5  109.48   14.11
 -11  -8   5   86.40    9.53
 -11   8  -5   78.73   11.05
 -11   8   5  112.96   16.18
  11   8  -5   98.09   10.59
  11  -8  -5   80.61    7.57
  11  -8   5  103.72   15.52
 -11  -8   6   50.71    8.64
 -11   8  -6   53.06    7.35
 -11   8   6   67.99    8.42
  11   8   6   49.62    9.59
  11   8  -6   73.31    8.02
  11  -8  -6   44.02    9.64
  11  -8   6   66.59    6.72
 -11  -8   7   11.87    3.45
 -11   8  -7   10.28    3.25
 -11   8   7   10.61    3.53
  11   8   7    7.55    3.96
  11   8  -7   11.06    2.85
  11  -8  -7   15.00    5.38
  11  -8   7    8.51    3.62
 -11  -8   8    3.91    1.92
 -11   8  -8   17.89    4.10
 -11   8   8   12.42    4.69
  11   8   8    9.73    4.27
  11   8  -8    7.42    2.38
  11  -8  -8   10.67    4.44
  11  -8   8   13.18    4.45
 -11   8  -9   34.76    5.91
 -11   8   9   44.40   10.20
  11   8   9   18.70    6.30
  11   8  -9   45.55    6.28
  11  -8  -9   27.71    5.59
  11  -8   9   41.80    7.74
 -11   8 -10   20.80    5.23
 -11   8  10   43.31    7.51
  11   8  10   10.01    3.81
  11   8 -10   20.80    5.82
  11  -8 -10   13.51    5.59
  11  -8  10   12.51    4.84
 -11   8 -11   -0.66    1.50
 -11   8  11    3.32    2.36
  11   8  11   11.11    3.87
  11   8 -11    4.09    2.59
  11  -8 -11    2.63    3.17
  11  -8  11    4.32    2.33
 -11   8 -12   15.66    4.35
 -11   8  12   28.79    5.83
  11   8  12   34.48    6.90
  11   8 -12   29.93    6.05
  11  -8 -12   12.89    4.12
  11  -8  12   27.15    4.72
 -11   8 -13   10.75    3.33
 -11   8  13    9.37    3.98
  11   8  13   15.03    5.12
  11   8 -13   15.02    4.96
  11  -8 -13   13.12    5.20
  11  -8  13   13.74    5.02
 -11   8  14   51.74   11.48
  11   8  14   51.67   11.50
  11   8 -14   47.68   12.96
  11  -8  14   48.09    9.64
 -11  -9   0    3.44    2.48
 -11   9   0   12.26    4.42
  11  -9   0   15.70    4.93
 -11  -9   1    5.93    2.05
 -11  -9  -1    4.90    1.96
 -11   9  -1   11.75    4.99
  11  -9  -1    9.11    4.66
  11  -9   1    4.17    3.31
 -11  -9   1    1.00    0.89
 -11  -9   2   51.15    8.83
 -11   9  -2   60.73   10.11
 -11   9   2   70.67   10.54
  11  -9  -2   51.59    7.60
  11  -9   2   60.81    9.04
 -11  -9   2   58.30    7.38
 -11  -9   3   48.57    8.38
 -11   9  -3   44.18    8.17
 -11   9   3   32.23    5.46
  11   9   3   64.88   15.19
  11  -9  -3   62.63    9.76
  11  -9   3   53.70    9.15
 -11  -9   3   52.58    6.90
 -11  -9   4  114.38   12.04
 -11   9  -4  111.28   15.69
 -11   9   4  130.28   17.21
  11   9   4  142.05   16.20
  11  -9  -4  108.56   11.42
  11  -9   4  141.75    9.96
 -11  -9   4  139.49   10.12
 -11  -9   5   67.09    8.46
 -11   9  -5   94.32   11.42
 -11   9   5   86.63   11.28
  11   9   5   95.52    8.91
  11  -9  -5  109.92   10.70
  11  -9   5   79.12   11.03
 -11  -9   6   80.47   10.45
 -11   9  -6   97.22    8.56
 -11   9   6   88.10    8.75
  11   9  -6   99.39   10.84
  11  -9  -6   72.27   17.05
  11  -9   6  107.96   10.48
 -11   9  -7    8.51    3.18
 -11   9   7    6.60    2.44
  11   9   7    8.58    4.51
  11   9  -7    5.60    1.65
  11  -9  -7    7.86    4.74
  11  -9   7    4.87    2.82
 -11   9  -8   86.84    9.44
 -11   9   8   66.22    7.44
  11   9   8   85.37   11.40
  11   9  -8   65.28    7.48
  11   9  -8   72.44    9.54
  11  -9  -8   68.54   12.77
  11  -9   8   68.68   11.98
 -11   9  -9   26.50    6.82
 -11   9   9   24.94    6.75
  11   9   9   18.17    5.44
  11   9  -9   24.07    6.57
  11  -9  -9   13.00    4.63
  11  -9   9   15.35    5.69
 -11   9 -10   39.61    7.54
 -11   9  10   27.04    7.58
  11   9  10   34.25    7.47
  11   9 -10   41.30    7.58
  11  -9 -10   34.13    7.96
  11  -9  10   17.69    5.21
 -11   9  11    7.37    2.92
  11   9  11   17.58    5.32
  11   9 -11   12.30    3.54
  11  -9  11   15.36    4.62
 -11   9 -12   36.49    6.83
 -11   9  12   16.57    4.92
  11   9  12   26.85    6.09
  11   9 -12   33.64    6.82
  11  -9 -12   37.01    7.13
  11  -9  12   24.15    5.04
 -11   9  13    8.06    3.08
  11   9  13    8.48    3.67
  11   9 -13   13.14    4.68
  11  -9  13    5.68    3.32
 -11   9  14   23.56    6.44
  11   9  14   15.97    5.42
  11   9 -14   19.61    5.76
  11  -9 -14    6.87    3.56
  11  -9  14   10.26    4.96
 -11  10   0  125.88   14.70
  11  10   0  106.87    7.71
  11 -10   0   88.29    7.69
 -11  10  -1  197.95   19.66
 -11  10   1  218.72   21.89
  11  10  -1  219.87   13.32
  11  10   1  187.76   17.02
  11 -10  -1  201.86   12.67
  11 -10   1  223.29   14.63
 -11  10  -2   74.59    9.04
 -11  10   2   74.09    7.73
  11  10  -2   62.20    6.40
  11  10   2   75.26   10.59
  11 -10  -2   64.49    7.34
  11 -10   2   66.47    7.21
 -11 -10   2   55.68   10.45
 -11  10  -3   43.79   10.74
 -11  10   3   70.22   10.97
  11  10   3   45.69    8.51
  11  10  -3   52.60    8.92
  11 -10  -3   42.71    8.53
  11 -10   3   55.92   10.72
 -11 -10   3   40.54    6.83
 -11  10  -4   53.59    9.52
 -11  10   4   49.54    9.24
  11  10   4   22.65    6.24
  11  10  -4   39.58    7.37
  11 -10   4   31.85    7.27
 -11 -10   4   40.59    7.96
 -11  10  -5    7.82    2.48
 -11  10   5   10.51    3.52
  11  10   5   17.52    4.06
  11  10  -5   16.89    3.93
  11 -10  -5   12.46    4.03
  11 -10   5   22.13    6.85
 -11 -10   5   10.59    3.26
 -11  10  -6   -1.64    1.83
 -11  10   6    6.82    2.96
  11  10   6    3.64    2.88
  11  10  -6    3.23    1.15
  11 -10  -6   14.28    5.34
  11 -10   6    8.42    3.97
 -11 -10   6    1.24    1.84
 -11  10  -7   19.67    5.80
 -11  10   7   17.72    5.16
  11  10   7    3.92    2.66
  11  10  -7   13.93    4.34
  11 -10  -7   12.95    5.27
  11 -10   7   12.25    5.44
 -11 -10   7   18.83    5.13
 -11  10  -8    0.46    1.98
 -11  10   8    6.47    3.11
  11  10   8    6.47    4.62
  11 -10  -8    1.75    2.89
  11 -10   8   -1.70    2.83
 -11 -10   8    4.75    2.34
 -11  10  -9    3.27    2.26
 -11  10   9    2.92    2.14
  11  10   9   11.28    4.77
  11 -10  -9    2.12    3.10
  11 -10   9    1.66    2.82
 -11  10  10    8.41    4.09
  11  10  10    3.07    2.93
  11 -10 -10    9.76    4.67
  11 -10  10   10.42    4.80
 -11  10 -11    6.45    2.17
 -11  10  11    3.79    2.69
  11  10  11   -2.65    2.59
  11  10 -11   -0.66    2.00
  11 -10 -11   15.79    5.73
  11 -10  11    5.52    4.04
 -11  10 -12   19.91    4.76
 -11  10  12    9.88    3.57
  11  10  12   24.68    6.81
  11  10 -12   32.73    7.46
  11 -10  12   18.55    5.81
 -11  10  13    5.96    2.80
  11  10  13   -3.56    2.68
  11  10 -13    8.21    3.29
  11 -10 -13   10.02    5.01
  11 -10  13   16.51    6.27
 -11  11   0   27.69    5.44
  11  11   0   19.57    4.56
  11 -11   0   13.52    4.33
 -11  11   1    3.78    2.51
  11  11   1    2.37    2.51
  11  11  -1    1.05    2.00
  11 -11  -1    3.90    3.03
  11 -11   1   15.55    6.31
 -11  11  -2   26.10    5.49
 -11  11   2   13.63    4.84
  11  11  -2   11.62    4.28
  11  11   2   15.49    4.74
  11 -11  -2    6.41    3.20
  11 -11   2    8.82    3.74
 -11  11  -3   23.62    4.89
 -11  11   3   14.45    5.12
  11  11  -3   26.45    5.27
  11  11   3   33.56    5.75
  11 -11  -3   10.03    4.06
  11 -11   3   30.87    6.68
 -11 -11   3   19.53    3.96
 -11  11  -4    4.65    2.48
 -11  11   4    6.65    2.37
  11  11  -4    0.77    0.95
  11  11   4    6.80    3.96
  11 -11  -4    0.70    3.07
  11 -11   4    2.64    3.52
 -11 -11   4    2.97    1.42
 -11  11  -5    6.53    2.87
 -11  11   5   11.02    4.58
  11  11  -5   13.41    4.17
  11  11   5   20.34    5.59
  11 -11  -5   14.53    5.51
  11 -11   5    4.09    2.14
 -11 -11   5    8.17    3.31
 -11  11  -6   37.61    9.11
  11  11  -6   33.02    8.06
  11  11   6   38.91    8.09
  11 -11  -6   26.62    7.00
 -11 -11   6   37.37    7.03
 -11  11  -7    7.36    2.47
 -11  11   7    4.67    1.95
  11  11   7    7.34    3.27
  11  11  -7    2.78    1.37
  11 -11  -7   13.65    5.44
  11 -11   7   12.86    5.85
 -11 -11   7    6.20    3.52
 -11  11  -8   24.33    5.93
 -11  11   8   16.90    5.73
  11  11   8   26.76    7.30
  11 -11  -8   15.82    5.56
  11 -11   8    9.92    3.99
 -11 -11   8   26.29    6.33
 -11  11  -9    3.12    1.54
 -11  11   9   21.52    6.30
  11  11   9    8.46    3.52
  11 -11  -9   20.88    6.40
  11 -11   9   15.18    4.79
 -11 -11   9   18.59    5.40
 -11  11 -10   52.47    8.20
 -11  11  10   45.88   11.13
  11  11  10   73.36   12.23
 -11 -11  10   62.24   12.53
 -11  11 -11   12.28    3.99
 -11  11  11   17.70    5.23
  11  11  11   10.44    3.95
  11 -11 -11   14.45    5.59
  11 -11  11   21.11    6.12
 -11 -11  11   13.33    4.65
 -11  11  12    7.10    2.43
  11  11  12    9.97    4.80
  11 -11 -12    6.84    4.62
  11 -11  12    3.69    3.36
 -11 -11  12   10.16    4.28
 -11  12   0   14.64    4.76
  11  12   0   10.09    4.41
  11 -12   0    7.38    3.26
 -11  12  -1   51.08    6.16
 -11  12   1   75.70    8.38
  11  12   1   46.80    5.93
  11  12  -1   56.11    6.76
  11 -12  -1   49.58    7.60
  11 -12   1   53.65    5.74
 -11  12  -2   12.46    4.73
 -11  12   2    2.64    1.70
  11  12  -2    2.50    2.21
  11  12   2    0.90    2.26
  11 -12  -2    2.20    3.06
  11 -12   2   -0.16    3.41
 -11  12  -3   52.62   10.86
  11  12  -3   35.24    7.96
  11  12   3   58.26    9.50
  11 -12  -3   64.74    9.25
  11 -12   3   33.71    7.78
 -11  12  -4   32.39    7.97
 -11  12   4   36.81    7.69
  11  12   4   31.76    7.99
  11  12  -4   40.95    5.87
  11 -12  -4   19.87    5.11
  11 -12   4   34.93    8.16
 -11  12  -5    6.43    2.63
 -11  12   5    6.77    2.26
  11  12  -5    2.11    1.47
  11  12   5    6.03    2.95
  11 -12  -5    8.81    3.99
  11 -12   5   10.78    4.08
 -11 -12   5    1.76    1.49
 -11  12  -6   11.97    3.74
 -11  12   6   12.46    4.83
  11  12   6    5.82    2.42
  11  12  -6    3.49    1.50
  11 -12  -6   11.82    4.29
  11 -12   6   20.82    6.58
 -11 -12   6   14.03    3.70
 -11  12  -7   -0.17    1.66
 -11  12   7    3.67    3.76
  11  12   7    2.90    2.59
  11 -12  -7    6.23    2.60
  11 -12   7   -0.58    3.43
 -11 -12   7    5.80    2.67
 -11  12  -8    7.83    1.90
 -11  12   8    6.59    2.73
  11 -12  -8    2.86    4.46
  11 -12   8   10.00    6.03
 -11 -12   8    3.49    3.03
 -11  12  -9   16.09    4.51
 -11  12   9   13.12    4.53
  11  12   9   19.46    6.13
  11 -12   9   15.29    5.74
 -11 -12   9    7.35    2.76
 -11  12 -10    2.59    2.14
 -11  12  10    5.28    2.21
  11  12  10    6.98    4.28
  11 -12 -10    7.69    4.68
  11 -12  10    2.11    3.35
 -11 -12  10    4.13    2.31
 -11  12  11   11.44    4.37
  11  12  11    7.91    3.64
  11 -12 -11   13.55    5.92
  11 -12  11   13.10    5.77
 -11 -12  11    6.95    3.39
 -11  13   0    3.24    3.37
  11  13   0    4.43    3.16
  11 -13   0    3.74    3.35
 -11  13  -1   22.59    6.27
 -11  13   1   20.14    6.37
  11  13   1    6.65    2.84
  11  13  -1    9.87    3.37
  11 -13  -1    5.42    3.60
  11 -13   1    4.29    3.66
 -11  13  -2    1.33    1.50
 -11  13   2    9.87    3.85
  11  13  -2    2.43    1.24
  11  13   2    3.42    2.43
  11 -13   2    9.13    4.11
 -11  13  -3    2.30    2.35
 -11  13   3   11.33    3.10
  11  13  -3    8.68    3.18
  11  13   3   11.93    4.69
  11 -13  -3    7.86    2.97
  11 -13   3   11.11    4.29
 -11  13  -4    2.87    2.23
 -11  13   4    9.11    4.65
  11  13  -4    6.69    2.73
  11  13   4    3.41    2.75
  11 -13  -4   13.21    5.38
  11 -13   4   18.52    5.26
 -11  13  -5   27.78    4.80
  11  13  -5   25.40    7.21
  11  13   5   20.16    6.53
  11 -13   5   25.31    8.19
 -11  13  -6   29.13    5.32
 -11  13   6   43.00    6.83
  11  13   6   32.64    6.39
  11 -13  -6   21.51    6.84
  11 -13   6   27.32    5.29
 -11  13  -7   18.49    6.95
 -11  13   7   11.42    3.66
  11  13   7    9.44    3.67
  11 -13  -7   23.41    5.90
  11 -13   7   15.98    6.16
 -11 -13   7   15.39    4.89
 -11  13  -8   29.28    6.35
 -11  13   8   30.83    7.15
  11  13   8   24.99    6.46
  11 -13  -8   18.72    4.74
  11 -13   8    8.55    4.08
 -11 -13   8   13.24    4.35
 -11  13  -9   11.27    3.60
 -11  13   9   11.70    4.78
  11  13   9   16.92    6.03
  11 -13  -9   14.11    5.78
  11 -13   9   14.39    6.21
 -11 -13   9   16.84    5.08
 -11  14   0    2.11    2.39
  11  14   0    7.62    2.63
  11 -14   0    3.73    3.39
 -11  14  -1   38.21    6.27
 -11  14   1   23.56    7.76
  11  14   1   34.78    5.69
  11  14  -1   24.88    7.68
  11 -14  -1   27.26    6.29
  11 -14   1   15.25    4.76
 -11  14  -2    4.11    1.72
 -11  14   2   13.20    5.90
  11  14   2    3.80    2.73
  11  14  -2    7.55    2.54
  11 -14  -2    2.42    3.31
  11 -14   2    6.37    3.15
 -11  14  -3   28.88    6.58
 -11  14   3   34.43    6.80
  11  14  -3   28.36    5.52
  11  14   3   31.61    6.57
  11 -14  -3   24.57    6.04
  11 -14   3   28.57    6.25
 -11  14  -4   15.10    5.10
  11  14  -4   12.25    3.70
  11  14   4   19.01    5.67
  11 -14  -4   18.85    6.57
  11 -14   4    5.79    3.50
 -11  14  -5   18.99    5.35
 -11  14   5   41.98    8.25
  11  14   5   36.05    7.14
  11 -14  -5   27.36    6.44
  11 -14   5   33.20    7.15
 -11  14  -6    5.26    2.39
 -11  14   6    7.88    4.42
  11  14   6   11.38    4.72
  11 -14   6    3.66    2.60
 -11  14  -7    7.98    2.76
 -11  14   7   20.58    6.23
  11  14   7    3.13    2.49
  11 -14  -7   14.19    5.91
  11 -14   7   17.00    6.64
 -11  14   8    5.03    2.91
  11  14   8   10.37    5.37
  11 -14  -8    6.78    3.31
  11 -14   8    5.48    3.61
 -11  15   0   13.09    4.89
  11  15   0   14.49    5.26
  11 -15   0    7.99    4.97
 -11  15  -1    9.52    4.15
 -11  15   1   12.81    5.60
  11  15   1    5.47    2.54
  11  15  -1    3.46    2.31
  11 -15  -1    3.28    3.51
  11 -15   1    4.84    3.45
 -11  15  -2   26.26    6.85
 -11  15   2   18.59    4.98
  11  15  -2    6.65    2.68
  11  15   2    6.62    2.99
  11 -15  -2   16.93    5.77
  11 -15   2    0.21    3.10
 -11  15  -3   38.49    8.95
 -11  15   3   51.98   11.04
  11  15  -3   54.39   10.48
  11  15   3   50.08   12.65
  11 -15  -3   20.24    5.22
  11 -15   3   20.56    5.03
 -11  15  -4   30.58    8.46
 -11  15   4   43.72   14.02
  11  15   4   26.15    8.75
  11 -15  -4   32.57    8.91
  11 -15   4   15.11    5.84
 -11  15  -5   18.34    5.29
  11  15   5    8.21    4.31
  11 -15   5   10.46    5.48
 -12   0   0  643.67   37.79
  12   0   0  621.75   31.61
 -12   0  -1  314.89   27.64
 -12   0   1  316.59   20.75
  12   0  -1  330.20   17.19
  12   0   1  299.99   15.81
 -12   0  -2  156.44   15.39
 -12   0   2  160.53   14.40
  12   0  -2  141.56    9.15
  12   0   2  148.06    8.19
 -12   0  -3  282.13   21.48
 -12   0   3  308.77   16.71
  12   0  -3  329.24   17.33
  12   0   3  289.66   14.98
 -12   0  -4  311.05   22.04
 -12   0   4  316.54   21.93
  12   0  -4  310.03   17.72
  12   0   4  292.74   16.43
 -12   0  -5    2.97    1.28
 -12   0   5    0.28    2.00
  12   0  -5    9.25    4.28
  12   0   5    1.13    1.03
 -12   0  -6   57.39    9.45
 -12   0   6   50.84    7.57
  12   0  -6   45.60    6.43
  12   0   6   42.15    6.68
 -12   0  -7    1.74    1.40
 -12   0   7    3.76    2.20
  12   0  -7   -1.68    2.33
  12   0   7    1.65    1.01
 -12   0  -8   10.52    3.31
 -12   0   8    2.95    1.96
  12   0  -8    8.96    4.15
  12   0   8    7.13    2.72
 -12   0  -9    2.52    1.09
 -12   0   9    9.31    2.96
  12   0  -9    3.70    2.06
  12   0   9    6.72    2.29
 -12   0 -10    4.82    2.24
 -12   0  10   10.43    3.58
  12   0 -10   10.30    3.99
 -12   0 -11   15.46    4.40
 -12   0  11    9.86    3.51
  12   0 -11   11.65    3.33
 -12   0 -12   31.81    6.54
 -12   0  12   32.63    3.91
  12   0 -12   27.54    9.07
 -12   0 -13    3.69    1.56
 -12   0  13    4.12    2.07
  12   0 -13    2.89    2.15
 -12   0 -14    9.06    2.91
  12   0 -14    7.32    2.70
 -12   0 -15   -1.00    1.71
  12   0 -15    8.71    3.77
 -12   0 -16    3.18    1.27
  12   0 -16    7.08    3.58
 -12  -1   0    3.38    1.94
 -12   1   0    5.45    2.92
  12   1   0    3.74    1.82
  12  -1   0    2.40    1.56
 -12  -1  -1   68.02   11.23
 -12  -1   1   64.07   11.11
 -12   1  -1   77.80   12.59
 -12   1   1   64.22   11.31
  12   1  -1   68.41    9.97
  12   1   1   69.74   10.16
  12  -1  -1   63.09    9.41
  12  -1   1   62.14   10.05
 -12  -1  -2  106.15   18.41
 -12   1  -2  110.31   17.96
 -12  -1   2   96.14   16.15
 -12   1   2   97.93   16.87
  12   1  -2  105.48   15.10
  12   1   2   98.40   15.43
  12  -1  -2  102.88   15.37
  12  -1   2   93.13   13.31
 -12  -1  -3    1.28    1.35
 -12   1  -3   -3.38    2.05
 -12  -1   3    2.52    2.07
 -12   1   3    5.47    2.03
  12   1  -3    3.14    2.37
  12  -1  -3    2.01    1.93
  12   1   3    1.71    1.15
  12  -1   3    3.96    2.04
 -12  -1  -4   67.29    8.38
 -12  -1   4   37.92    8.85
 -12   1   4   53.75    5.76
  12   1  -4   59.04    6.09
  12  -1  -4   58.02   12.13
  12   1   4   32.28    8.24
  12  -1   4   52.82    5.32
 -12   1  -5   22.70    5.38
 -12  -1   5   24.07    5.64
 -12   1   5   28.57    6.63
  12   1  -5   16.64    4.21
  12  -1  -5   15.24    5.09
 -12  -1  -6   94.84    7.88
 -12   1  -6   94.29   10.17
 -12  -1   6   93.45    7.05
 -12   1   6   94.39    6.89
  12   1  -6  106.54    7.26
  12  -1  -6   91.70    7.03
  12   1   6   78.18   10.76
  12  -1   6   70.89   11.88
 -12  -1  -7   79.05   12.14
 -12   1  -7   94.24   10.96
 -12  -1   7   73.66    9.72
 -12   1   7   91.00    9.16
  12   1  -7   72.68   15.02
  12  -1  -7   84.38    6.46
  12   1   7   54.21    7.13
  12  -1   7   57.11   11.44
 -12  -1  -8   23.37    5.08
 -12   1  -8   22.29    5.33
 -12  -1   8   19.83    4.27
 -12   1   8   26.66    6.04
  12   1  -8   15.38    4.78
  12  -1  -8    6.74    2.83
  12   1   8    4.94    1.72
  12  -1   8   13.00    5.23
 -12  -1  -9  106.93   11.94
 -12   1  -9  109.76   13.12
 -12  -1   9  100.30   10.24
 -12   1   9  100.22    7.08
  12   1  -9   89.21   17.91
  12  -1  -9  115.82    8.54
  12  -1   9   66.00   18.26
 -12  -1 -10   70.28    8.86
 -12   1 -10   58.03    8.61
 -12  -1  10   65.76    6.23
 -12   1  10   68.84    8.75
  12   1 -10   62.36   11.41
  12  -1 -10   57.10   10.97
  12  -1  10   62.08    5.63
 -12  -1 -11    5.71    2.60
 -12   1 -11   15.59    4.59
 -12  -1  11   11.18    4.06
 -12   1  11    6.55    2.41
  12   1 -11    6.45    2.66
  12  -1 -11   15.91    4.94
 -12  -1 -12   34.28    5.51
 -12   1 -12   46.29    6.92
 -12  -1  12   38.36    3.98
  12   1 -12   44.50    9.30
  12  -1 -12   35.17    8.91
 -12  -1 -13    9.50    2.86
 -12   1 -13    7.07    2.68
 -12   1  13    8.12    2.81
  12   1 -13    4.10    4.48
  12  -1 -13    4.31    1.70
 -12  -1 -14   -0.03    1.98
 -12   1 -14    7.50    2.15
  12   1 -14    7.64    2.34
  12  -1 -14    8.72    2.62
 -12  -1 -15    3.70    1.77
 -12   1 -15    3.54    1.60
  12   1 -15    6.41    3.34
  12  -1 -15    6.95    2.86
 -12   1 -16    3.82    2.12
  12   1 -16    6.03    3.21
  12  -1 -16    3.22    1.70
 -12  -2   0  281.03   26.74
 -12   2   0  281.60   15.41
  12   2   0  266.10   13.86
  12  -2   0  299.80   15.84
 -12  -2  -1  297.79   23.05
 -12  -2   1  352.48   30.17
 -12   2  -1  321.40   20.60
 -12   2   1  327.67   21.79
  12   2  -1  324.37   16.84
  12   2   1  303.34   15.69
  12  -2  -1  292.67   16.08
  12  -2   1  321.95   16.78
 -12  -2  -2  234.85   20.32
 -12  -2   2  270.08   21.61
 -12   2  -2  276.31   18.96
 -12   2   2  243.21   18.48
  12   2  -2  273.09   14.44
  12   2   2  210.93   11.03
  12  -2  -2  266.75   14.42
  12  -2   2  255.70   13.54
 -12  -2  -2  214.02   10.91
 -12  -2  -3  110.90   14.09
 -12  -2   3  112.98   14.04
 -12   2  -3  112.57   13.95
 -12   2   3  102.99    9.90
  12   2  -3  128.30    9.51
  12   2   3   93.63    7.86
  12  -2  -3  120.71   16.49
  12  -2   3   99.64    8.65
 -12  -2  -3   66.07    7.08
 -12  -2  -4  178.49   17.71
 -12  -2   4  196.14   18.79
 -12   2  -4  187.74   18.88
 -12   2   4  199.56   12.40
  12   2  -4  199.76   14.26
  12   2   4  149.76    9.35
  12  -2  -4  223.27   13.67
  12  -2   4  180.06   10.69
 -12  -2  -5  165.65   15.54
 -12  -2   5  163.99   15.41
 -12   2  -5  163.95   16.84
 -12   2   5  194.59   17.59
  12   2  -5  188.48   11.64
  12  -2  -5  151.17    9.85
  12   2   5  122.14    7.20
  12  -2   5  162.98    9.69
 -12   2  -6   72.35   11.01
 -12  -2   6   85.82    8.24
 -12   2   6   65.74   10.06
  12   2  -6   61.49    9.93
  12  -2  -6   70.20    9.37
  12   2   6   50.88    6.73
  12  -2   6   62.24   12.66
 -12  -2  -7    8.57    3.43
 -12   2  -7    6.59    2.73
 -12  -2   7    2.22    1.05
 -12   2   7    2.04    2.03
  12   2  -7    4.80    2.37
  12  -2  -7    7.67    4.09
  12  -2   7    4.28    1.60
 -12  -2  -8    9.58    3.53
 -12   2  -8   17.26    4.00
 -12  -2   8   22.11    4.45
 -12   2   8    6.79    3.15
  12   2  -8   20.26    4.82
  12  -2  -8   18.76    5.02
  12  -2   8   13.75    2.86
 -12  -2  -9   -1.04    2.22
 -12   2  -9    3.70    1.60
 -12  -2   9    3.30    1.88
 -12   2   9    5.03    1.42
  12   2  -9    7.12    2.80
  12  -2  -9    1.95    2.51
  12  -2   9    4.28    2.44
 -12  -2 -10    9.64    2.77
 -12   2 -10    8.78    2.83
 -12  -2  10    4.34    1.16
 -12   2  10    6.48    2.27
  12   2 -10   20.03    5.44
  12  -2 -10   19.13    5.62
  12  -2  10    9.54    3.07
 -12  -2 -11   42.03    9.53
 -12   2 -11   35.85    7.19
 -12  -2  11   27.76    5.82
 -12   2  11   32.64    6.88
  12   2 -11   35.09    7.44
  12  -2 -11   21.64    5.27
  12  -2  11   18.70    3.97
 -12  -2 -12    6.75    2.24
 -12   2 -12    5.72    2.32
 -12  -2  12    6.68    2.15
 -12   2  12    9.03    3.48
  12   2 -12   15.72    5.44
  12  -2 -12    8.23    3.79
 -12  -2 -13   38.38    6.63
 -12   2 -13   44.74    9.38
 -12   2  13   23.49    6.91
  12   2 -13   37.40    8.71
  12  -2 -13   32.12   12.81
 -12  -2 -14    8.26    3.21
 -12   2 -14    9.33    3.19
 -12   2  14    4.44    1.78
  12   2 -14    2.62    2.87
  12  -2 -14    6.57    2.26
 -12   2 -15   16.37    5.04
  12   2 -15   11.62    4.43
  12  -2 -15   20.73    5.25
 -12   2 -16    3.13    1.82
  12   2  16    5.29    2.58
  12   2 -16    0.71    2.49
  12  -2 -16    6.64    2.49
 -12  -3   0   -1.06    2.32
 -12   3   0    1.72    2.32
  12   3   0    2.17    1.51
  12  -3   0    6.05    3.69
 -12  -3  -1   93.46   11.42
 -12  -3   1   70.05    8.88
 -12   3  -1   62.94    9.49
 -12   3   1   67.54    7.25
  12   3   1   67.88    7.54
  12   3  -1   65.70    8.81
  12  -3  -1   62.74    9.09
  12  -3   1   57.29   11.99
 -12  -3  -1   45.78   13.00
 -12  -3  -2   33.11    7.67
 -12  -3   2   29.94    6.84
 -12   3  -2   41.86    8.36
 -12   3   2   19.20    4.62
  12   3  -2   30.47    7.31
  12  -3  -2   16.62    4.42
  12  -3   2   28.85    6.30
 -12  -3  -2   23.92    4.71
 -12  -3  -3    8.15    2.75
 -12  -3   3    4.24    1.66
 -12   3  -3    7.33    3.38
 -12   3   3   12.04    4.34
  12   3  -3    7.42    2.81
  12   3   3    8.67    2.77
  12  -3  -3    1.81    1.37
  12  -3   3    6.05    2.32
 -12  -3  -4  106.79   12.98
 -12  -3   4  116.46   12.12
 -12   3  -4   99.76   11.85
 -12   3   4   92.30   10.25
  12   3  -4   70.69   12.37
  12   3   4   80.54    6.76
  12  -3  -4   87.63    8.32
  12  -3   4   96.47    8.80
 -12  -3  -5   73.07   11.53
 -12  -3   5   65.99    9.45
 -12   3  -5   65.34   10.23
 -12   3   5   68.35   10.11
  12   3  -5   63.93   12.57
  12  -3  -5   77.81   10.39
  12  -3   5   81.16   21.18
 -12  -3  -6   65.48   10.10
 -12  -3   6   50.33    7.92
 -12   3  -6   38.39    7.66
 -12   3   6   47.32    6.83
  12   3  -6   44.44    8.21
  12  -3  -6   56.43    8.25
  12  -3   6   63.31    8.36
 -12  -3  -7   48.94    6.33
 -12   3  -7   50.60    7.61
 -12  -3   7   39.38    7.95
 -12   3   7   48.78    6.52
  12   3  -7   39.85   11.13
  12  -3  -7   52.97    6.73
  12  -3   7   52.95    7.36
 -12  -3  -8   71.97    8.96
 -12   3  -8   57.40    9.76
 -12  -3   8   39.08    6.40
 -12   3   8   50.91    7.33
  12   3  -8   58.04   12.72
  12  -3  -8   57.12    8.37
  12  -3   8   45.80    9.80
 -12  -3  -9   30.06    6.10
 -12   3  -9   25.68    5.01
 -12  -3   9   20.75    4.76
 -12   3   9   20.26    5.85
  12   3  -9   25.55    5.54
  12  -3  -9   23.69    6.40
  12  -3   9   12.94    4.24
 -12  -3 -10   12.18    3.85
 -12   3 -10    6.29    1.90
 -12  -3  10   10.86    3.48
 -12   3  10   18.19    5.11
  12   3 -10   13.28    5.29
  12  -3 -10    5.30    4.44
  12  -3  10   19.87    5.17
 -12  -3 -11   43.15    6.39
 -12   3 -11   34.48    5.14
 -12  -3  11   30.05    7.86
 -12   3  11   26.11    7.08
  12   3 -11   34.14    5.98
  12  -3 -11   41.50    5.11
  12  -3  11   33.63    4.62
 -12  -3 -12   19.71    5.63
 -12   3 -12   13.76    4.19
 -12   3  12   15.40    5.59
  12   3 -12   29.82    7.94
  12  -3 -12    8.73    3.78
  12  -3  12   18.60    4.30
 -12  -3 -13    9.99    2.72
 -12   3 -13    6.17    2.27
 -12   3  13    4.41    2.29
  12   3 -13    3.23    1.77
  12  -3 -13   18.54    6.02
 -12  -3 -14    7.48    2.14
 -12   3 -14   12.38    3.38
 -12   3  14    7.37    2.19
  12   3 -14   11.26    3.53
  12  -3 -14   10.57    3.65
 -12   3 -15    5.37    1.78
  12   3  15    7.62    4.65
  12   3 -15    7.98    3.38
  12  -3 -15    5.09    3.31
 -12   3 -16   -0.71    1.38
  12   3  16    1.46    1.15
  12   3 -16   -1.92    2.88
  12  -3 -16    4.70    1.90
 -12  -4   0   18.21    4.95
 -12   4   0    9.81    3.57
  12   4   0   16.01    3.66
  12  -4   0   17.00    4.28
 -12  -4  -1    2.79    1.83
 -12  -4   1    4.08    2.10
 -12   4  -1    6.79    2.84
 -12   4   1    5.72    3.70
  12   4   1    1.93    0.98
  12   4  -1    3.13    1.29
  12  -4  -1    3.65    2.88
  12  -4   1    3.34    2.38
 -12  -4  -2   49.18    7.85
 -12  -4   2   43.50    9.79
 -12   4   2   36.43    7.89
  12   4   2   25.90    5.91
  12   4  -2   37.66    9.72
  12  -4  -2   31.43    8.29
  12  -4   2   43.10    8.70
 -12  -4  -3   22.35    5.37
 -12  -4   3    8.30    2.99
 -12   4  -3    5.58    3.20
 -12   4   3   25.57    6.18
  12   4   3    3.65    1.06
  12   4  -3   14.94    4.28
  12  -4  -3    5.58    3.65
  12  -4   3   12.21    4.48
 -12  -4  -4  106.68    9.80
 -12  -4   4  128.86   11.90
 -12   4  -4  108.05    7.46
 -12   4   4  104.24   11.82
  12   4  -4   87.08    9.96
  12  -4  -4  115.71   17.86
  12  -4   4   91.07    6.23
 -12  -4  -5   19.27    5.22
 -12  -4   5    9.85    3.27
 -12   4  -5   15.16    4.14
 -12   4   5   24.41    5.18
  12   4  -5   21.27    5.19
  12  -4  -5    9.94    3.65
  12  -4   5   21.73    5.39
 -12  -4  -6   34.93    8.44
 -12  -4   6   47.97    5.70
 -12   4  -6   50.48    7.71
 -12   4   6   43.58    7.78
  12   4  -6   32.82    7.22
  12  -4  -6   35.80    8.96
  12  -4   6   44.85    5.35
 -12  -4   7    4.75    1.96
 -12   4  -7    6.44    3.05
 -12   4   7    8.18    2.54
  12   4  -7    8.34    3.25
  12  -4  -7   10.48    3.99
  12  -4   7   16.15    4.43
 -12  -4  -8   11.22    3.08
 -12  -4   8    7.41    2.45
 -12   4  -8    7.70    2.78
 -12   4   8   17.79    5.54
  12   4  -8    8.74    3.24
  12  -4  -8   14.07    5.83
  12  -4   8    7.51    2.40
 -12  -4  -9    6.54    2.38
 -12  -4   9    6.79    2.47
 -12   4  -9    7.87    2.55
 -12   4   9    5.17    3.29
  12   4  -9   10.81    3.79
  12  -4  -9   13.58    4.92
  12  -4   9    5.76    3.21
 -12  -4 -10   66.81    8.41
 -12   4 -10   72.55   10.60
 -12  -4  10   58.68    8.27
 -12   4  10   43.02    8.34
  12   4 -10   47.70    8.88
  12  -4 -10   71.27    8.67
  12  -4  10   41.30    7.32
 -12  -4 -11    4.87    2.00
 -12   4 -11   10.10    3.20
 -12   4  11    6.73    2.62
  12   4 -11   11.95    4.04
  12  -4 -11    8.44    3.73
  12  -4  11    6.58    2.31
 -12  -4 -12   21.45    5.38
 -12   4 -12   22.68    6.56
 -12   4  12   20.82    5.66
  12   4 -12   19.26    5.46
  12  -4 -12   34.58    8.25
  12  -4  12   12.08    3.88
 -12  -4 -13   11.80    4.21
 -12   4 -13   40.62    9.32
 -12   4  13   41.49    9.59
  12   4 -13   32.70    8.97
  12  -4 -13   47.25    9.17
  12  -4  13   36.19    6.60
 -12   4 -14   21.92    4.05
 -12   4  14   18.93    5.50
  12   4  14   22.68    4.84
  12   4 -14   12.89    4.64
  12  -4 -14   16.38    5.75
 -12   4 -15   15.80    5.34
 -12   4  15   12.23    4.50
  12   4  15   16.77    4.92
  12   4 -15    9.76    3.01
  12  -4 -15   13.79    5.30
 -12  -5   0  113.87   11.98
 -12   5   0   81.03    9.96
  12  -5   0   74.26   12.75
 -12  -5  -1  453.52  118.68
 -12  -5   1  419.83  110.12
 -12   5  -1  414.99   26.58
 -12   5   1  409.89   22.47
  12   5   1  368.92   19.22
  12   5  -1  401.85   22.38
  12  -5  -1  419.46  108.14
  12  -5   1  431.68  111.13
 -12  -5  -2   67.65   10.23
 -12  -5   2   76.06   11.31
 -12   5  -2   48.74    6.79
 -12   5   2   60.95    9.40
  12   5   2   37.53    4.96
  12   5  -2   40.23    6.91
  12  -5  -2   56.87   11.42
  12  -5   2   48.02    7.14
 -12  -5  -3  228.43   18.87
 -12  -5   3  199.21   18.58
 -12   5  -3  182.18   20.35
 -12   5   3  234.51   20.77
  12   5  -3  199.65   13.39
  12  -5  -3  219.95   13.13
  12  -5   3  226.44   13.76
 -12  -5  -4   35.59    7.70
 -12  -5   4   28.96    6.53
 -12   5  -4   26.10    5.57
 -12   5   4   31.88    6.84
  12   5  -4   23.85    5.24
  12  -5  -4   25.03    5.62
  12  -5   4   24.32    6.21
 -12  -5  -5  150.23   15.26
 -12  -5   5  140.15   15.44
 -12   5  -5  148.09   15.51
 -12   5   5  153.49   16.12
  12   5  -5  121.23   12.58
  12  -5  -5  127.97   21.95
  12  -5   5  145.93   10.18
 -12  -5  -6   20.55    4.47
 -12  -5   6   28.22    6.09
 -12   5  -6   24.45    5.87
 -12   5   6   33.76    7.23
  12   5  -6   21.57    5.58
  12  -5  -6   24.78    5.81
 -12  -5  -7   11.35    3.44
 -12  -5   7   26.96    6.37
 -12   5  -7   37.52    6.61
 -12   5   7   15.62    4.32
  12   5  -7   16.83    4.93
  12  -5  -7   25.13    6.72
 -12  -5  -8   28.11    5.61
 -12  -5   8   20.24    4.84
 -12   5  -8   19.92    4.70
 -12   5   8   22.10    5.80
  12   5  -8   18.20    4.76
  12  -5  -8   12.63    4.18
  12  -5   8   25.20    5.62
 -12  -5  -9   40.34    8.97
 -12  -5   9   23.86    5.59
 -12   5  -9   23.55    5.95
 -12   5   9   26.52    6.42
  12   5  -9   24.08    6.58
  12  -5  -9   41.69    8.82
  12  -5   9    9.89    2.75
 -12  -5 -10   45.92    6.71
 -12  -5  10   40.97    8.75
 -12   5 -10   37.41    7.65
 -12   5  10   37.12    7.91
  12   5 -10   35.38    9.70
  12  -5 -10   43.71    7.75
  12  -5  10   32.96    6.32
 -12  -5 -11    9.78    2.84
 -12   5 -11    7.38    3.36
 -12   5  11    4.83    1.63
  12   5 -11    9.53    2.50
  12  -5 -11    2.79    2.74
  12  -5  11    8.21    3.44
 -12   5 -12    0.39    0.93
 -12   5  12    7.76    3.10
  12   5 -12    8.59    2.86
  12  -5 -12   -6.19    2.88
  12  -5  12    1.80    2.32
 -12   5 -13   12.63    3.89
 -12   5  13   17.02    5.51
  12   5  13   16.05    5.29
  12   5 -13   20.65    5.89
  12  -5 -13   11.23    4.00
  12  -5  13    9.60    3.06
 -12   5 -14    3.05    1.57
 -12   5  14   10.68    3.24
  12   5  14    2.29    1.52
  12   5 -14    5.48    2.05
  12  -5 -14   11.29    3.96
  12  -5  14   -0.35    2.06
 -12   5 -15    9.34    3.09
 -12   5  15   11.54    4.27
  12   5  15   10.18    4.31
  12   5 -15    8.57    4.02
  12  -5 -15    7.84    4.29
 -12  -6   0   15.83    4.04
 -12   6   0   22.55    5.93
  12   6   0    4.19    1.69
  12  -6   0    5.44    2.96
 -12  -6  -1   42.03    6.46
 -12  -6   1   41.55    6.72
 -12   6   1   33.05    7.43
  12   6   1   21.32    4.74
  12   6  -1   29.56    6.45
  12  -6  -1   40.46    7.18
  12  -6   1   33.70    7.41
 -12  -6  -2   21.75    5.01
 -12  -6   2   36.23   10.39
 -12   6  -2   34.31    7.92
 -12   6   2   26.42    6.11
  12   6  -2   27.98    6.03
  12  -6  -2   32.61    8.46
  12  -6   2   31.22    7.26
 -12  -6  -3   45.55    6.65
 -12  -6   3   51.03    6.84
 -12   6  -3   39.96    7.76
 -12   6   3   60.36    8.64
  12   6  -3   40.83    8.74
  12  -6  -3   36.70    8.77
  12  -6   3   47.66    7.87
 -12  -6  -4   12.98    4.16
 -12  -6   4    6.38    2.01
 -12   6  -4    5.60    2.69
 -12   6   4    8.65    2.73
  12   6  -4    8.13    2.49
  12  -6  -4   11.89    5.01
  12  -6   4   11.69    5.08
 -12  -6  -5  115.16   13.55
 -12  -6   5  108.49   12.59
 -12   6  -5  111.85   14.49
 -12   6   5  113.51   14.38
  12   6  -5  109.18   12.02
  12  -6  -5  113.89    8.75
  12  -6   5  142.12   10.08
 -12  -6  -6   10.54    3.36
 -12  -6   6    5.52    1.98
 -12   6  -6   12.28    4.21
 -12   6   6   19.22    5.73
  12   6  -6   16.68    4.80
  12  -6  -6   14.34    5.09
  12  -6   6   16.87    5.26
 -12  -6  -7  120.58   13.62
 -12  -6   7   83.44   11.15
 -12   6  -7   72.65   10.05
 -12   6   7  103.92   10.94
  12   6  -7   81.32   13.49
  12  -6  -7   78.44   15.97
  12  -6   7  102.44    9.28
 -12  -6  -8   14.66    3.91
 -12  -6   8   16.20    4.25
 -12   6  -8   10.66    3.11
 -12   6   8   15.57    4.85
  12   6  -8   19.29    4.54
  12  -6  -8   14.15    5.31
  12  -6   8    8.95    3.70
 -12  -6  -9   37.92    8.55
 -12  -6   9   29.67    6.01
 -12   6  -9   39.41    6.96
 -12   6   9   35.88    8.20
  12   6  -9   38.23    7.95
  12  -6  -9   24.51    5.16
  12  -6   9   34.66    6.46
 -12  -6 -10   41.36    6.02
 -12   6 -10   46.77    5.51
 -12   6  10   43.43    5.83
  12   6 -10   40.66    7.57
  12  -6 -10   50.00    7.10
  12  -6  10   39.86    7.69
 -12   6 -11   31.33    7.10
 -12   6  11   33.68    7.61
  12   6  11    9.41    3.30
  12   6 -11   17.91    5.24
  12  -6 -11   13.54    5.18
  12  -6  11    8.20    3.10
 -12   6 -12   37.15    9.09
 -12   6  12   43.36    7.88
  12   6  12   31.05    7.78
  12   6 -12   32.28    8.48
  12  -6 -12   42.31    8.80
 -12   6  13   27.24    5.40
  12   6  13    7.34    3.27
  12   6 -13   14.12    4.65
  12  -6 -13   16.82    4.98
  12  -6  13   11.34    3.62
 -12   6 -14   21.50    5.25
 -12   6  14   16.22    5.14
  12   6  14   27.91    6.90
  12   6 -14   18.06    5.92
  12  -6 -14    9.45    3.91
  12  -6  14   14.97    5.02
 -12   6  15    6.03    2.90
  12   6  15    9.09    3.57
  12   6 -15   15.03    4.96
  12  -6 -15   15.17    5.17
 -12  -7   0  347.85   26.54
 -12   7   0  365.43   23.05
  12  -7   0  326.25   20.48
 -12  -7   0  261.65   15.76
 -12  -7  -1  192.36   18.05
 -12  -7   1  172.46   16.09
 -12   7  -1  159.70   11.15
 -12   7   1  171.11   12.21
  12   7  -1  144.35   11.35
  12  -7  -1  164.69   11.64
  12  -7   1  160.12   20.19
 -12  -7  -2  226.29   20.32
 -12  -7   2  200.46   19.63
 -12   7  -2  181.57   18.90
 -12   7   2  210.74   23.13
  12   7  -2  179.02   15.69
  12  -7  -2  186.88   24.64
  12  -7   2  202.20   14.86
 -12  -7  -3  164.16   19.15
 -12  -7   3  140.83   14.35
 -12   7  -3  152.06   15.74
 -12   7   3  170.75   15.89
  12   7  -3  150.71   11.71
  12  -7  -3  144.87   16.27
  12  -7   3  149.80   10.47
 -12  -7  -4  171.33   17.12
 -12  -7   4  129.20   13.34
 -12   7  -4  153.29   15.94
 -12   7   4  162.39   16.64
  12   7  -4  123.42   14.77
  12  -7  -4  149.28   10.42
  12  -7   4  152.76   10.03
 -12  -7  -5   51.99    8.27
 -12  -7   5   46.35    6.61
 -12   7  -5   51.97    9.00
 -12   7   5   54.51    8.08
  12   7  -5   47.54    8.07
  12  -7  -5   43.07    9.78
  12  -7   5   58.77    8.78
 -12  -7  -6   90.93   10.81
 -12  -7   6   55.68   11.14
 -12   7  -6   80.47    9.08
 -12   7   6   73.87    9.30
  12   7  -6   72.04   10.39
  12  -7  -6   79.25    9.42
  12  -7   6   76.82    8.94
 -12  -7  -7   32.12    7.28
 -12  -7   7   27.81    6.04
 -12   7  -7   45.55    8.06
 -12   7   7   45.14    9.07
  12   7  -7   46.81    8.80
  12  -7  -7   22.51    6.19
  12  -7   7   34.62    6.37
 -12  -7  -8   27.59    5.95
 -12  -7   8   16.04    4.98
 -12   7  -8   20.92    4.11
 -12   7   8   30.29    7.34
  12   7  -8   21.27    4.21
  12  -7  -8   15.75    5.27
  12  -7   8   25.42    5.27
 -12  -7   9   15.47    4.84
 -12   7  -9   29.10    7.67
 -12   7   9   38.31    6.97
  12   7   9   27.27    7.75
  12   7  -9   39.27    5.49
  12  -7  -9   23.21    6.75
  12  -7   9   31.33    8.09
 -12   7 -10   30.99    6.86
 -12   7  10   36.89    8.50
  12   7  10   33.78    7.65
  12   7 -10   35.50    8.84
  12  -7 -10   31.04    8.03
  12  -7  10   30.06    7.09
 -12   7 -11   21.58    5.63
 -12   7  11   19.79    5.19
  12   7  11   29.68    7.80
  12   7 -11   22.47    5.45
  12  -7 -11   20.50    6.01
  12  -7  11   22.69    6.25
 -12   7 -12    7.24    2.19
 -12   7  12   25.83    4.73
  12   7  12   13.52    4.96
  12   7 -12   16.42    5.08
  12  -7 -12   14.80    5.46
  12  -7  12    7.22    2.72
 -12   7 -13   10.28    3.33
 -12   7  13   13.61    4.50
  12   7  13    5.42    2.11
  12   7 -13    4.54    2.63
  12  -7 -13    6.41    3.58
  12  -7  13    7.31    3.83
 -12   7  14    3.91    3.02
  12   7  14    3.73    2.69
  12   7 -14    2.26    1.99
  12  -7 -14    3.77    3.16
  12  -7  14    2.02    2.23
 -12  -8   0   30.74    5.25
 -12   8   0   39.27    7.97
  12  -8   0   39.87    6.79
 -12  -8  -1   11.73    3.71
 -12  -8   1    7.55    2.33
 -12   8  -1   14.82    4.73
 -12   8   1   15.81    4.51
  12  -8  -1   11.24    4.67
  12  -8   1    4.90    3.00
 -12  -8   1    7.08    1.81
 -12  -8  -2    3.24    2.17
 -12  -8   2    1.25    1.04
 -12   8  -2    0.01    2.54
 -12   8   2    3.75    2.85
  12  -8  -2   11.66    4.93
  12  -8   2   12.34    4.82
 -12  -8  -3    7.83    3.08
 -12  -8   3    5.76    1.87
 -12   8  -3    5.62    1.54
 -12   8   3    2.24    2.54
  12   8  -3    6.65    1.97
  12  -8  -3    8.17    3.04
  12  -8   3    7.01    2.79
 -12  -8  -4    3.65    2.41
 -12  -8   4    1.51    1.01
 -12   8  -4    7.21    2.44
 -12   8   4    6.41    1.93
  12   8  -4    4.72    1.87
  12  -8  -4    1.34    3.25
  12  -8   4    4.22    3.19
 -12  -8  -5   39.59    8.10
 -12  -8   5   21.02    5.18
 -12   8  -5   24.03    5.76
 -12   8   5   26.79    6.54
  12   8  -5   30.78    5.77
  12  -8  -5   29.76    6.68
  12  -8   5   25.02    5.67
 -12  -8  -6    6.10    1.77
 -12  -8   6    4.47    1.13
 -12   8  -6   13.94    4.95
 -12   8   6   12.37    4.75
  12   8  -6    1.79    1.02
  12  -8  -6    9.93    4.87
  12  -8   6   12.02    3.98
 -12  -8   7   51.81    8.08
 -12   8  -7   66.10   10.52
 -12   8   7   77.83    7.82
  12   8   7   74.09   11.64
  12   8  -7   63.95    9.55
  12  -8  -7   52.50   10.64
  12  -8   7   86.14    8.93
 -12  -8   8   18.85    5.06
 -12   8  -8   17.69    4.97
 -12   8   8    5.53    3.70
  12   8   8   19.92    5.71
  12   8  -8   17.13    5.32
  12  -8  -8   25.34    6.96
  12  -8   8    9.65    3.55
 -12   8  -9   71.31   12.69
 -12   8   9   85.61   13.75
  12   8   9   48.42    7.27
  12   8  -9   79.34   15.58
  12  -8  -9   64.12    9.30
  12  -8   9   90.03   12.15
 -12   8 -10   16.55    4.59
 -12   8  10   10.07    3.25
  12   8  10   12.25    4.66
  12   8 -10    6.29    1.69
  12  -8 -10   16.77    6.37
  12  -8  10   11.22    3.20
 -12   8 -11   14.98    4.06
 -12   8  11   26.87    5.63
  12   8  11    7.36    2.99
  12   8 -11   23.25    7.01
  12  -8 -11   10.58    3.78
  12  -8  11   17.11    5.31
 -12   8 -12    4.02    1.49
 -12   8  12    0.64    2.30
  12   8  12    1.46    2.66
  12   8 -12    0.09    2.13
  12  -8 -12   16.00    5.69
  12  -8  12    7.47    3.13
 -12   8 -13    2.99    1.10
 -12   8  13   10.21    3.85
  12   8  13    3.60    2.68
  12   8 -13    8.22    3.28
  12  -8 -13   -1.88    3.17
  12  -8  13   10.45    4.70
 -12  -9   0   62.25    7.82
 -12   9   0   60.35    7.67
  12  -9   0   49.51    9.43
 -12  -9  -1   81.49    9.82
 -12  -9   1   82.89   10.30
 -12   9  -1   82.10   10.12
  12  -9  -1   83.28    8.56
  12  -9   1   79.21    9.14
 -12  -9  -2   16.22    4.89
 -12  -9   2   20.42    5.35
 -12   9  -2   24.16    5.93
 -12   9   2   23.45    5.86
  12  -9  -2   18.85    6.18
  12  -9   2   17.62    6.07
 -12  -9   2   12.28    2.84
 -12  -9  -3   15.95    4.52
 -12  -9   3   15.20    4.46
 -12   9  -3   24.91    5.64
 -12   9   3    4.71    2.60
  12  -9  -3   22.67    6.31
  12  -9   3   16.78    5.81
 -12  -9   3   21.93    4.83
 -12  -9   4    1.42    1.15
 -12   9  -4   15.04    5.29
 -12   9   4    2.68    1.98
  12   9   4    3.53    2.09
  12  -9  -4    5.80    3.31
  12  -9   4    0.63    2.88
 -12  -9   5   26.27    5.49
 -12   9  -5   22.68    4.90
 -12   9   5   29.96    6.14
  12   9   5   28.34    5.77
  12  -9  -5   30.68    6.10
  12  -9   5   23.55    5.11
 -12  -9   6    2.92    1.13
 -12   9  -6    8.06    3.57
 -12   9   6    0.57    2.34
  12   9   6   10.86    4.87
  12   9  -6    8.08    2.86
  12  -9  -6   -2.72    2.77
  12  -9   6    2.79    2.69
 -12  -9   7    6.74    2.06
 -12   9  -7    4.63    2.87
 -12   9   7    3.04    2.17
  12   9   7    1.84    2.69
  12   9  -7    3.05    1.66
  12  -9  -7    3.92    2.97
  12  -9   7    6.18    3.07
 -12   9  -8    0.04    1.71
 -12   9   8    3.27    1.63
  12   9   8    9.77    4.14
  12   9  -8    4.01    1.68
  12  -9  -8   15.40    5.17
  12  -9   8   21.54    6.13
 -12   9  -9    8.06    2.61
 -12   9   9    7.48    2.95
  12   9   9    4.81    3.13
  12   9  -9   10.58    3.23
  12  -9  -9    5.93    3.47
  12  -9   9    3.26    2.66
 -12   9 -10   10.83    3.70
 -12   9  10   15.74    4.89
  12   9  10   12.50    4.75
  12   9 -10    7.35    2.83
  12  -9 -10    9.32    3.86
  12  -9  10    9.56    4.34
 -12   9 -11   14.18    3.95
 -12   9  11    9.01    4.07
  12   9  11   18.31    6.22
  12   9 -11    7.41    2.85
  12  -9 -11   13.57    5.45
  12  -9  11    7.15    4.75
 -12   9 -12   31.77    8.88
 -12   9  12   33.09    9.77
  12   9  12   52.96   11.24
  12   9 -12   38.31   10.67
  12  -9 -12   31.43    7.46
  12  -9  12   31.95    7.06
 -12   9  13    6.76    3.21
  12   9  13    3.04    3.69
  12   9 -13    0.74    0.85
  12  -9 -13    5.04    3.38
  12  -9  13    8.94    4.69
 -12  10   0   -1.71    2.45
  12  10   0    5.54    2.48
  12 -10   0    1.90    3.98
 -12  10  -1    5.04    2.30
 -12  10   1   14.81    5.09
  12  10   1   13.83    5.07
  12  10  -1    4.97    1.69
  12 -10  -1   11.65    5.08
  12 -10   1    8.56    4.44
 -12  10  -2   40.76    7.20
 -12  10   2   30.03    6.15
  12  10   2   37.60    7.08
  12  10  -2   45.82    6.51
  12 -10  -2   27.49    6.08
  12 -10   2   49.63    7.78
 -12  10  -3   26.01    6.17
 -12  10   3   28.24    6.47
  12  10   3   23.00    5.51
  12  10  -3   29.48    5.99
  12 -10  -3   29.37    5.68
  12 -10   3   23.92    5.29
 -12  10  -4   48.65    6.55
 -12  10   4   30.69    8.09
  12  10   4   36.47    6.08
  12  10  -4   28.71    7.42
  12 -10  -4   43.74    6.76
  12 -10   4   11.55    4.47
 -12 -10   4   21.38    5.52
 -12  10  -5   78.97   11.27
 -12  10   5   77.86   11.19
  12  10   5  109.00    9.42
  12  10  -5   91.91    7.66
  12 -10  -5   97.84   10.03
  12 -10   5   73.15    6.88
 -12 -10   5  106.85    8.31
 -12  10  -6   20.60    5.07
 -12  10   6    6.02    2.22
  12  10   6   17.01    5.76
  12  10  -6   11.64    3.86
  12 -10  -6   21.15    5.05
  12 -10   6   11.56    5.10
 -12 -10   6   19.10    4.13
 -12  10  -7   20.32    5.62
 -12  10   7   14.11    4.83
  12  10  -7   14.66    4.16
  12 -10  -7   18.36    6.18
  12 -10   7   21.04    5.48
 -12 -10   7   19.67    4.53
 -12  10  -8   32.34    8.24
 -12  10   8   29.06    7.58
  12  10   8   46.13    9.04
  12 -10  -8   35.02    7.88
  12 -10   8   14.31    5.04
 -12 -10   8   36.00    6.30
 -12  10  -9   29.20    4.57
 -12  10   9   24.83    7.50
  12  10   9   12.94    5.07
  12 -10  -9   16.70    5.26
  12 -10   9    5.98    2.87
 -12  10 -10   22.03    4.88
 -12  10  10   20.19    5.37
  12  10  10    9.03    3.70
  12  10 -10   19.59    6.29
  12 -10 -10   11.88    4.08
  12 -10  10    7.91    3.15
 -12  10 -11   17.25    4.10
 -12  10  11   24.63    6.02
  12  10  11   20.54    5.55
  12  10 -11   17.98    4.05
  12 -10 -11   17.41    4.75
  12 -10  11   14.34    5.23
 -12  10 -12    7.87    2.90
 -12  10  12   -1.50    2.40
  12  10  12    5.29    3.08
  12  10 -12   -0.20    2.07
  12 -10 -12    4.63    3.49
  12 -10  12    6.60    3.71
 -12  11   0   -2.72    2.24
  12  11   0    2.72    2.44
  12 -11   0    8.00    3.13
 -12  11  -1   34.78    5.79
 -12  11   1   21.32    6.69
  12  11  -1   21.18    5.92
  12  11   1   23.02    6.74
  12 -11  -1   10.24    4.98
  12 -11   1   29.60    8.37
 -12  11  -2    1.10    2.38
  12  11  -2    3.73    2.11
  12  11   2    6.74    2.13
  12 -11  -2    7.43    4.16
  12 -11   2   14.35    5.89
 -12  11  -3    7.99    3.09
 -12  11   3    5.85    2.68
  12  11   3   -1.55    2.67
  12  11  -3    1.54    2.03
  12 -11  -3    6.36    4.18
  12 -11   3    4.11    4.81
 -12  11  -4   14.35    4.38
 -12  11   4   28.58    6.98
  12  11   4   29.59    7.69
  12  11  -4   26.69    7.14
  12 -11  -4   14.55    5.50
  12 -11   4   32.65    7.44
 -12  11  -5   18.49    5.15
  12  11  -5   13.89    4.06
  12  11   5   14.91    5.01
  12 -11  -5    7.34    3.59
  12 -11   5   21.55    6.25
 -12 -11   5    6.57    2.21
 -12  11  -6    9.25    3.82
 -12  11   6   13.01    4.15
  12  11   6    9.75    3.38
  12  11  -6   10.51    3.49
  12 -11  -6    8.13    4.74
  12 -11   6    3.63    3.46
 -12 -11   6    8.32    2.85
 -12  11  -7    6.02    2.96
 -12  11   7    1.41    2.65
  12  11   7    5.07    2.93
  12 -11  -7    6.61    2.92
  12 -11   7    3.37    3.28
 -12 -11   7    7.70    2.66
 -12  11  -8    4.63    2.15
 -12  11   8    4.05    1.93
  12  11   8    3.23    2.98
  12 -11  -8    6.19    3.30
  12 -11   8   11.03    5.93
 -12 -11   8    8.53    3.91
 -12  11  -9    4.12    2.61
 -12  11   9    3.86    2.13
  12  11   9   10.53    5.65
  12 -11  -9    6.34    3.04
  12 -11   9    7.75    4.26
 -12 -11   9   11.00    3.67
 -12  11 -10    6.55    3.13
 -12  11  10    6.71    4.21
  12  11  10   16.81    5.15
  12 -11 -10   12.91    5.75
  12 -11  10   11.26    4.07
 -12 -11  10    5.82    2.70
 -12  11 -11    8.11    2.97
 -12  11  11    7.94    3.98
  12  11  11   27.50    7.85
  12 -11 -11   12.37    6.02
  12 -11  11    5.91    3.07
 -12 -11  11    8.29    3.08
 -12  12   0   49.87    8.34
  12  12   0   48.53    8.92
  12 -12   0   48.42   11.08
 -12  12  -1    8.18    3.20
 -12  12   1   16.86    5.21
  12  12  -1    5.19    2.37
  12  12   1   10.39    3.70
  12 -12  -1   16.25    5.95
  12 -12   1    4.41    3.43
 -12  12  -2   35.50    7.25
 -12  12   2   21.88    6.16
  12  12   2   31.06    8.54
  12  12  -2   16.33    4.76
  12 -12  -2   28.90    7.53
  12 -12   2   25.77    7.19
 -12  12  -3   27.42    6.56
 -12  12   3   31.65    7.47
  12  12   3   23.63    6.05
  12  12  -3   31.17    7.40
  12 -12  -3   23.53    6.57
  12 -12   3   26.23    7.28
 -12  12  -4   13.97    4.97
 -12  12   4   14.52    4.27
  12  12  -4   14.39    4.23
  12  12   4   20.99    6.32
  12 -12  -4   14.81    5.59
  12 -12   4   17.58    6.16
 -12  12  -5   75.21    9.93
 -12  12   5   95.88   13.68
  12  12   5   59.52    8.90
  12  12  -5   67.35   10.86
  12 -12  -5   52.76   10.94
  12 -12   5   84.09   12.74
 -12  12  -6   27.53    6.59
 -12  12   6   43.29    6.27
  12  12   6   29.66    5.82
  12 -12  -6   27.50    5.71
  12 -12   6   47.29    7.84
 -12  12  -7   44.10    8.41
 -12  12   7   54.14    9.37
  12  12   7   38.67    6.97
  12 -12  -7   50.13    9.73
  12 -12   7   55.17    9.92
 -12 -12   7   33.98    5.72
 -12  12  -8    5.51    1.84
 -12  12   8   21.28    6.21
  12  12   8    1.60    2.91
  12 -12  -8   17.27    5.68
  12 -12   8   18.34    4.75
 -12 -12   8   14.34    4.57
 -12  12   9   24.79    7.26
  12  12   9   15.12    5.51
  12 -12  -9    6.12    3.62
  12 -12   9   18.58    6.28
 -12 -12   9   14.68    4.69
 -12  13   0   12.12    4.18
  12  13   0    5.61    2.14
  12 -13   0    4.16    3.31
 -12  13  -1    7.95    2.50
 -12  13   1    8.65    3.81
  12  13   1   15.80    4.91
  12  13  -1   10.43    3.86
  12 -13  -1    9.12    3.75
  12 -13   1   15.58    5.80
 -12  13  -2    6.10    1.60
 -12  13   2    9.87    3.80
  12  13  -2    2.26    1.63
  12  13   2    9.19    4.82
  12 -13  -2   10.41    4.83
  12 -13   2   11.47    5.37
 -12  13  -3    8.93    3.32
 -12  13   3    5.16    2.73
  12  13  -3    6.29    2.14
  12  13   3    1.24    2.56
  12 -13  -3   10.19    4.49
  12 -13   3    3.66    3.49
 -12  13  -4    2.94    2.16
 -12  13   4   -1.10    2.33
  12  13   4   13.52    5.49
  12  13  -4   -1.51    1.73
  12 -13  -4    9.19    3.82
  12 -13   4    5.15    3.86
 -12  13  -5   14.93    4.52
 -12  13   5    8.19    4.40
  12  13  -5    5.91    2.55
  12  13   5    6.74    3.21
  12 -13  -5    9.68    5.22
  12 -13   5   16.95    7.09
 -12  13  -6    8.40    3.37
 -12  13   6   14.44    6.17
  12  13   6    8.81    3.60
  12 -13  -6   13.38    5.60
  12 -13   6    7.59    3.94
 -12  13  -7    3.24    2.40
 -12  13   7    3.65    2.82
  12  13   7    3.74    2.74
  12 -13  -7   11.03    5.95
  12 -13   7    7.54    4.39
 -12  13  -8   12.34    4.09
 -12  13   8    9.25    4.42
  12  13   8   14.10    4.70
  12 -13  -8    8.78    4.03
  12 -13   8    7.04    3.63
 -12  14   0   13.49    5.41
  12  14   0   14.07    5.19
  12 -14   0   19.17    5.44
 -12  14  -1   59.13   11.84
 -12  14   1   40.73    9.66
  12  14   1   51.16   10.54
  12  14  -1   39.63    8.33
  12 -14  -1   22.25    6.08
  12 -14   1   38.20    8.84
 -12  14  -2    3.87    2.38
 -12  14   2   12.49    4.71
  12  14   2    2.74    2.68
  12  14  -2    7.25    3.19
  12 -14  -2   12.39    6.18
  12 -14   2    7.37    4.84
 -12  14  -3   20.94    6.08
 -12  14   3   21.93    5.49
  12  14  -3   15.18    4.68
  12 -14  -3   16.49    6.13
  12 -14   3   15.65    5.80
 -12  14  -4    9.11    3.85
  12  14  -4    1.75    1.79
  12  14   4    5.63    3.54
  12 -14  -4    6.99    5.06
  12 -14   4    4.93    3.42
 -12  14  -5   22.13    6.63
 -12  14   5   23.03    7.38
  12  14   5    9.00    3.52
  12 -14  -5   -0.75    3.46
  12 -14   5   19.02    6.35
 -12  15   0    3.54    2.27
  12  15   0    7.32    3.77
  12 -15   0   11.44    3.84
 -12  15  -1    9.86    4.26
 -12  15   1   10.17    4.48
  12  15  -1   19.03    5.54
  12  15   1    1.68    2.62
  12 -15  -1    8.01    4.99
  12 -15   1   -2.37    3.06
 -13   0   0    0.49    1.75
  13   0   0   -0.55    1.31
 -13   0  -1   11.16    3.88
 -13   0   1    8.50    3.00
  13   0  -1    3.70    2.37
  13   0   1   11.57    3.81
 -13   0  -2    2.52    1.59
 -13   0   2    5.97    2.39
  13   0  -2    3.07    1.84
  13   0   2    2.32    1.28
 -13   0  -3  136.35   17.22
 -13   0   3  169.55   18.87
  13   0  -3  153.80    9.14
  13   0   3  150.70    8.45
 -13   0  -4    1.86    1.49
 -13   0   4    3.34    2.47
  13   0  -4    6.62    3.26
  13   0   4    2.37    0.95
 -13   0   5   72.91    7.94
  13   0  -5   58.83    6.76
  13   0   5   32.41    8.62
 -13   0  -6    7.21    2.37
 -13   0   6   18.12    4.51
  13   0  -6   20.74    5.16
  13   0   6    7.94    2.61
 -13   0  -7  130.09   15.23
 -13   0   7  143.02    9.58
  13   0  -7  141.09    9.32
  13   0   7   98.71    7.83
 -13   0  -8   97.21   11.94
 -13   0   8   94.79   11.35
  13   0  -8  123.96   10.83
 -13   0  -9  104.22   14.71
 -13   0   9   87.93    9.31
  13   0  -9   93.75   17.81
 -13   0 -10    5.91    2.17
 -13   0  10    1.67    1.63
  13   0 -10    8.29    3.82
 -13   0 -11   51.48    8.17
 -13   0  11   43.01    6.29
  13   0 -11   44.34    9.92
 -13   0 -12    6.40    1.70
 -13   0  12    0.92    1.06
  13   0 -12    6.88    3.41
 -13   0 -13    6.56    1.44
  13   0 -13    6.49    2.14
 -13   0 -14    2.90    1.76
  13   0 -14    6.08    2.72
 -13   0 -15   17.73    5.61
  13   0 -15   11.15    4.33
 -13  -1   0   36.90    6.34
 -13   1   0   36.71    6.55
  13   1   0   35.07    6.84
  13  -1   0   33.14    7.78
 -13  -1  -1    2.71    1.71
 -13  -1   1    7.22    3.00
 -13   1  -1   13.03    4.08
 -13   1   1    3.47    2.42
  13   1  -1    2.79    1.46
  13   1   1    3.42    1.82
  13  -1  -1    0.55    1.15
  13  -1   1    5.98    2.69
 -13  -1  -2   10.33    3.93
 -13  -1   2   12.64    4.06
 -13   1  -2   11.61    3.67
 -13   1   2    9.84    3.73
  13   1  -2    8.50    2.95
  13  -1  -2    7.14    2.59
  13   1   2    3.81    1.78
  13  -1   2    9.23    3.06
 -13  -1  -3   10.78    3.75
 -13   1  -3   14.36    4.04
 -13  -1   3   10.52    3.58
 -13   1   3    6.31    3.36
  13   1  -3    8.40    3.19
  13  -1  -3    8.98    3.58
  13   1   3    5.46    1.86
  13  -1   3    8.69    3.22
 -13  -1  -4   37.83    6.59
 -13   1  -4   30.89    6.93
 -13  -1   4   25.33    5.73
 -13   1   4   41.81    6.74
  13   1  -4   33.13    6.75
  13  -1  -4   20.72    4.99
  13   1   4   17.89    5.10
  13  -1   4   23.50    6.83
 -13  -1  -5   20.98    4.95
 -13   1  -5   15.01    3.54
 -13  -1   5    7.13    2.61
 -13   1   5   18.46    3.99
  13   1  -5   13.52    3.52
  13  -1  -5   21.09    4.83
  13   1   5    5.85    2.02
  13  -1   5   13.30    4.03
 -13  -1  -6    7.20    2.34
 -13   1  -6    6.24    2.16
 -13  -1   6   10.48    4.04
 -13   1   6   11.90    4.14
  13   1  -6   18.23    4.70
  13  -1  -6   -0.61    2.18
  13   1   6    2.79    1.30
  13  -1   6    6.11    2.34
 -13  -1  -7   -0.02    2.03
 -13   1  -7    8.84    4.55
 -13  -1   7    1.85    1.74
 -13   1   7    5.90    2.56
  13   1  -7    5.62    2.31
  13  -1  -7    2.05    2.43
  13  -1   7    2.36    1.07
 -13  -1  -8   10.83    3.68
 -13   1  -8    3.65    1.91
 -13  -1   8    8.85    2.38
 -13   1   8   -2.00    1.91
  13   1  -8    6.83    2.36
  13  -1  -8    4.69    2.61
  13  -1   8    2.30    1.32
 -13  -1  -9   13.01    3.59
 -13   1  -9   21.05    4.34
 -13  -1   9    8.29    2.72
 -13   1   9    6.18    3.33
  13   1  -9    7.90    2.76
  13  -1  -9   12.45    3.99
 -13  -1 -10   31.29    8.11
 -13   1 -10   44.06    6.06
 -13  -1  10   44.23    6.10
 -13   1  10   34.56    4.13
  13   1 -10   42.58    8.50
  13  -1 -10   26.00    6.95
 -13  -1 -11   20.57    5.27
 -13   1 -11   18.50    4.23
 -13  -1  11   15.60    4.85
 -13   1  11   27.08    5.84
  13   1 -11   28.79    6.61
  13  -1 -11   20.40    5.02
 -13  -1 -12   86.27   18.35
 -13   1 -12   87.38   15.95
 -13  -1  12   64.59   13.41
 -13   1  12   80.00   13.28
  13   1 -12   65.47   19.49
  13  -1 -12   77.96   22.32
 -13  -1 -13   49.18    7.89
 -13   1 -13   35.83    6.91
 -13   1  13   32.72    4.88
  13   1 -13   41.31    8.78
 -13  -1 -14   29.57    6.68
 -13   1 -14   39.33    9.86
  13   1 -14   33.46    6.92
  13  -1 -14   33.23    8.44
 -13  -1 -15   27.18    8.02
 -13   1 -15   21.34    5.47
  13   1 -15   17.35    5.81
  13  -1 -15   18.50    5.56
 -13  -2   0    5.24    2.06
 -13   2   0    7.10    3.08
  13   2   0    3.14    1.71
  13  -2   0    7.33    3.33
 -13  -2  -1   44.83    7.65
 -13  -2   1   49.96    8.30
 -13   2  -1   37.82    6.77
 -13   2   1   36.17   10.31
  13   2  -1   36.45   10.31
  13   2   1   36.11    9.53
  13  -2  -1   39.73    9.43
  13  -2   1   30.11    6.57
 -13  -2  -2   76.92   11.80
 -13  -2   2   69.32   10.57
 -13   2  -2   72.98   11.23
 -13   2   2   58.61    9.22
  13   2  -2   76.17    9.65
  13   2   2   51.71    6.42
  13  -2  -2   57.24    7.66
  13  -2   2   60.95    9.38
 -13  -2  -3   32.76    7.84
 -13  -2   3   42.98    6.97
 -13   2  -3   43.53    6.54
 -13   2   3   22.34    5.57
  13   2  -3   32.13    6.47
  13   2   3   33.38    6.86
  13  -2  -3   49.16    9.62
  13  -2   3   29.35    5.85
 -13  -2  -4   61.03    7.91
 -13  -2   4   41.50    8.53
 -13   2  -4   49.12    8.84
 -13   2   4   53.77    7.57
  13   2  -4   46.46    8.16
  13   2   4   39.45    7.44
  13  -2  -4   52.10    6.19
  13  -2   4   54.93    5.90
 -13  -2  -5   69.84   10.37
 -13   2  -5   69.70   10.13
 -13  -2   5   77.35   12.56
 -13   2   5   67.50    7.49
  13   2  -5   57.06   12.36
  13  -2  -5   77.08   15.37
  13  -2   5   67.86    7.09
 -13   2  -6   29.43    5.07
 -13  -2   6   43.05    6.80
 -13   2   6   31.07    5.40
  13   2  -6   45.09    8.88
  13  -2  -6   40.56    6.79
  13  -2   6   27.86    7.15
 -13  -2  -7  138.29   12.51
 -13   2  -7  135.48   15.57
 -13  -2   7  148.60   15.52
 -13   2   7  132.48    9.18
  13   2  -7  113.03   13.89
  13  -2  -7  157.16   10.55
  13  -2   7  117.07    7.46
 -13  -2  -8   15.33    4.53
 -13   2  -8   32.11    5.83
 -13  -2   8   23.31    5.60
 -13   2   8   19.80    5.26
  13   2  -8   19.35    4.76
  13  -2  -8   20.65    6.04
  13  -2   8    9.22    2.93
 -13  -2  -9   25.07    5.39
 -13   2  -9   31.23    6.67
 -13  -2   9   25.10    5.16
 -13   2   9   38.70    6.81
  13   2  -9   22.69    5.35
  13  -2  -9   17.90    4.13
  13  -2   9   18.31    3.45
 -13  -2 -10    5.42    1.72
 -13   2 -10    8.93    3.73
 -13  -2  10    3.78    1.31
 -13   2  10    0.26    1.80
  13   2 -10   -0.37    2.17
  13  -2 -10    1.04    2.55
  13  -2  10    1.01    1.52
 -13  -2 -11   10.38    3.31
 -13   2 -11    8.07    2.66
 -13  -2  11   15.37    4.62
 -13   2  11    4.19    2.04
  13   2 -11   15.23    5.12
  13  -2 -11   -0.04    2.73
 -13  -2 -12    3.15    1.32
 -13   2 -12    1.07    2.11
 -13   2  12    3.24    2.36
  13   2 -12    7.15    3.53
  13  -2 -12   11.50    3.78
 -13  -2 -13   -0.52    2.10
 -13   2  13    4.44    2.35
  13   2 -13    4.93    2.29
  13  -2 -13    6.89    2.49
 -13  -2 -14   15.94    5.05
 -13   2 -14   14.94    4.52
  13   2 -14   10.78    4.84
  13  -2 -14   -0.35    2.79
 -13  -2 -15    6.64    2.45
 -13   2 -15   11.53    3.77
  13   2 -15    8.53    4.08
  13  -2 -15    4.52    2.45
 -13  -3   0  219.33   19.84
 -13   3   0  196.25   16.80
  13   3   0  163.83   13.72
  13  -3   0  182.89   10.65
 -13  -3  -1    8.30    2.60
 -13  -3   1    3.42    2.09
 -13   3  -1    3.61    2.68
 -13   3   1    5.07    2.71
  13   3  -1    6.96    2.64
  13   3   1    2.53    1.24
  13  -3  -1    2.39    1.66
  13  -3   1    1.97    2.00
 -13  -3  -2   77.83   10.97
 -13  -3   2   97.87   11.50
 -13   3  -2   94.66    6.83
 -13   3   2   69.64    9.24
  13   3  -2   56.02    9.61
  13   3   2   54.45    8.23
  13  -3  -2   91.56    6.50
  13  -3   2   66.48   12.45
 -13  -3  -3    8.17    3.23
 -13  -3   3    8.02    3.29
 -13   3   3    7.36    2.63
  13   3  -3    6.93    2.68
  13   3   3    2.45    0.91
  13  -3  -3    9.76    3.05
  13  -3   3    3.31    1.98
 -13  -3  -4    7.29    2.33
 -13  -3   4    7.87    2.46
 -13   3  -4   16.64    3.58
 -13   3   4   12.15    3.71
  13   3  -4   14.26    3.06
  13  -3  -4    9.17    4.30
  13  -3   4    5.54    2.28
 -13  -3  -5    5.12    2.18
 -13  -3   5    2.69    1.46
 -13   3  -5    1.21    1.63
 -13   3   5    4.92    3.41
  13   3  -5    2.98    1.94
  13  -3  -5    2.52    3.89
  13  -3   5    2.14    1.62
 -13  -3  -6   -1.18    2.28
 -13  -3   6    5.04    1.78
 -13   3  -6    4.82    1.39
 -13   3   6    3.31    2.50
  13   3  -6    6.78    2.98
  13  -3  -6    6.44    4.08
  13  -3   6    1.46    1.84
 -13  -3  -7   10.04    3.29
 -13   3  -7   20.47    5.59
 -13  -3   7   10.37    2.89
 -13   3   7   20.82    5.82
  13   3  -7   11.31    3.88
  13  -3  -7   17.73    5.33
  13  -3   7   10.57    3.80
 -13  -3  -8   55.49   11.19
 -13   3  -8   54.43   10.69
 -13  -3   8   59.54    7.67
 -13   3   8   41.43    9.02
  13   3  -8   41.36    8.44
  13  -3  -8   53.42    9.36
  13  -3   8   29.46    7.23
 -13  -3  -9   39.08    7.70
 -13   3  -9   27.56    6.50
 -13  -3   9   25.76    5.05
 -13   3   9   42.70    7.28
  13   3  -9   27.24    5.26
  13  -3  -9   38.54    7.92
  13  -3   9   33.43    5.92
 -13  -3 -10   48.15    7.15
 -13   3 -10   51.71    8.06
 -13  -3  10   49.37    6.47
 -13   3  10   50.50    7.14
  13   3 -10   37.61    5.97
  13  -3 -10   58.46    6.08
  13  -3  10   35.82    7.58
 -13  -3 -11    5.70    2.41
 -13   3 -11   13.37    4.39
 -13  -3  11   15.21    4.07
 -13   3  11   11.43    3.88
  13   3 -11   17.95    5.81
  13  -3 -11   23.07    6.42
  13  -3  11    1.21    1.92
 -13  -3 -12   10.17    3.07
 -13   3 -12   23.41    5.85
 -13   3  12   19.41    5.56
  13   3 -12   13.33    4.54
  13  -3 -12   23.15    6.20
 -13  -3 -13    6.49    2.61
 -13   3 -13    9.79    3.96
 -13   3  13    1.62    1.78
  13   3 -13   -1.39    2.88
  13  -3 -13    6.44    3.06
 -13  -3 -14   16.04    5.21
 -13   3 -14    6.84    2.31
 -13   3  14    2.11    1.30
  13   3 -14    3.72    2.09
  13  -3 -14    8.51    2.67
 -13   3 -15    1.92    0.98
  13   3  15   -0.48    2.39
  13   3 -15    7.91    2.92
  13  -3 -15    4.12    3.49
 -13  -4   0    9.28    3.03
 -13   4   0    9.52    3.62
  13   4   0   10.19    3.00
  13  -4   0    6.14    2.94
 -13  -4  -1    4.43    2.20
 -13  -4   1    6.42    2.74
 -13   4  -1    1.16    2.53
 -13   4   1    3.78    3.64
  13   4   1    5.54    1.95
  13   4  -1    4.65    1.90
  13  -4  -1   -0.20    2.45
  13  -4   1    4.27    2.49
 -13  -4  -2   -0.80    2.30
 -13  -4   2    4.63    1.81
 -13   4  -2    3.60    2.38
 -13   4   2    4.61    2.81
  13   4   2    2.01    0.74
  13   4  -2    4.46    2.20
  13  -4  -2   -0.69    2.14
  13  -4   2    7.37    3.50
 -13  -4  -3    2.92    2.04
 -13  -4   3    5.27    2.81
 -13   4  -3    1.79    2.00
 -13   4   3   12.63    4.37
  13   4  -3   -0.21    1.46
  13  -4  -3    3.44    2.63
  13  -4   3    3.09    2.10
 -13  -4  -4   25.19    6.17
 -13  -4   4   15.40    4.06
 -13   4  -4   30.40    6.74
 -13   4   4   32.87    7.03
  13   4  -4   26.57    6.25
  13  -4  -4   33.26    8.88
  13  -4   4   23.55    6.23
 -13  -4  -5    3.21    1.61
 -13  -4   5    5.12    1.57
 -13   4  -5    8.91    2.55
 -13   4   5    5.11    2.03
  13   4  -5    3.05    1.14
  13  -4  -5    4.16    2.69
  13  -4   5    2.93    1.89
 -13  -4  -6   18.43    4.94
 -13  -4   6   33.14    5.55
 -13   4  -6   41.77    6.95
 -13   4   6   16.44    4.58
  13   4  -6   18.23    4.66
  13  -4  -6   31.11    6.35
 -13  -4  -7   26.69    6.12
 -13  -4   7   33.33    6.54
 -13   4  -7   33.88    7.03
 -13   4   7   43.79   10.02
  13   4  -7   37.91    7.53
  13  -4  -7   39.89    7.65
  13  -4   7   28.38    5.70
 -13  -4  -8   57.00    8.56
 -13  -4   8   34.55    6.48
 -13   4  -8   39.74    7.16
 -13   4   8   38.51    6.84
  13   4  -8   32.35    8.67
  13  -4  -8   22.04    5.13
  13  -4   8   30.43    6.28
 -13  -4  -9   84.55   11.21
 -13  -4   9   57.68    9.21
 -13   4  -9   66.76    9.33
 -13   4   9   71.98    6.60
  13   4  -9   70.89   13.06
  13  -4  -9   63.32    6.48
  13  -4   9   82.08    7.38
 -13  -4 -10   23.50    6.85
 -13   4 -10   29.12    8.11
 -13  -4  10   25.11    6.63
 -13   4  10   24.86    7.44
  13   4 -10   23.50    8.52
  13  -4 -10   14.96    5.88
  13  -4  10   18.56    5.11
 -13  -4 -11    7.78    2.70
 -13   4 -11   15.17    4.07
 -13   4  11   22.02    6.01
  13   4 -11   10.46    3.49
  13  -4 -11    2.37    2.81
  13  -4  11    9.23    3.03
 -13  -4 -12   15.86    4.57
 -13   4 -12    9.40    4.45
 -13   4  12   20.09    5.46
  13   4 -12   21.58    6.13
  13  -4 -12   12.96    4.53
 -13  -4 -13   10.06    2.90
 -13   4 -13    8.46    2.79
 -13   4  13   17.92    5.83
  13   4 -13   15.38    5.07
  13  -4 -13    9.09    3.30
 -13   4 -14   -0.57    0.99
 -13   4  14    7.60    2.78
  13   4  14    6.54    2.54
  13   4 -14    7.84    3.33
  13  -4 -14    2.66    2.42
 -13  -5   0  103.39   11.60
 -13   5   0  116.43   13.13
  13   5   0   97.21    8.44
  13  -5   0  117.64    8.63
 -13  -5  -1  189.59   17.63
 -13  -5   1  217.92   20.51
 -13   5  -1  205.07   13.97
 -13   5   1  182.85   12.96
  13   5  -1  143.86   12.50
  13  -5  -1  179.93   14.80
  13  -5   1  170.46   11.55
 -13  -5  -2   91.72   10.73
 -13  -5   2   93.58   10.89
 -13   5   2   89.56   11.19
  13   5  -2   76.27   10.76
  13  -5  -2  106.95    8.36
  13  -5   2   89.87    7.25
 -13  -5  -3   53.61    7.44
 -13  -5   3   73.72    9.00
 -13   5  -3   56.57    9.30
 -13   5   3   57.55    7.40
  13   5  -3   41.51    8.36
  13  -5  -3   36.05   10.79
  13  -5   3   46.67    5.87
 -13  -5  -4  100.79   10.38
 -13  -5   4   72.99    9.03
 -13   5  -4   90.22    6.93
 -13   5   4   89.74   11.05
  13   5  -4   88.68   13.19
  13  -5  -4   96.77    7.84
  13  -5   4   66.77    9.80
 -13  -5  -5    2.25    1.39
 -13  -5   5    6.32    2.40
 -13   5  -5    2.94    2.31
 -13   5   5    4.44    2.55
  13   5  -5    4.09    1.98
  13  -5  -5    4.98    2.84
  13  -5   5    3.76    2.33
 -13  -5  -6   89.16   11.42
 -13  -5   6   87.57   10.88
 -13   5  -6   89.67   11.74
 -13   5   6   98.54   12.17
  13   5  -6   74.88   13.50
  13  -5  -6   83.65    8.15
  13  -5   6   74.20   11.75
 -13  -5  -7    6.75    2.72
 -13  -5   7    4.27    1.98
 -13   5  -7   14.00    4.37
 -13   5   7    8.66    3.40
  13   5  -7   20.81    4.94
  13  -5  -7   16.64    5.32
  13  -5   7   13.93    4.86
 -13  -5   8   32.75    7.06
 -13   5  -8   38.27    7.85
 -13   5   8   43.31    8.48
  13   5  -8   42.87    8.58
  13  -5  -8   42.53    7.43
  13  -5   8   31.87    7.33
 -13  -5  -9    6.45    2.98
 -13  -5   9    2.94    1.20
 -13   5  -9    5.98    1.86
 -13   5   9    4.27    2.37
  13   5  -9    5.10    2.11
  13  -5  -9    7.17    3.56
  13  -5   9   10.43    4.13
 -13  -5 -10   41.63    8.18
 -13  -5  10   36.92    8.73
 -13   5 -10   45.83    9.40
 -13   5  10   55.86    9.23
  13   5 -10   46.14   10.09
  13  -5 -10   54.30    8.43
  13  -5  10   23.13    5.32
 -13   5 -11    1.42    1.20
 -13   5  11    4.87    3.15
  13   5 -11    8.26    3.20
  13  -5 -11    5.88    3.22
  13  -5  11    3.72    2.06
 -13  -5 -12    8.76    2.53
 -13   5 -12   13.16    4.30
 -13   5  12   17.25    5.57
  13   5 -12   21.35    6.37
  13  -5 -12    9.12    4.75
  13  -5  12    5.73    1.96
 -13   5 -13    2.37    1.51
 -13   5  13    5.09    2.43
  13   5  13    6.27    3.95
  13   5 -13    6.81    2.29
  13  -5 -13   10.37    3.78
 -13   5 -14    0.34    1.01
 -13   5  14    2.55    1.88
  13   5  14    6.46    3.03
  13   5 -14    4.27    2.36
  13  -5 -14    2.16    2.38
 -13  -6   0    1.74    1.23
 -13   6   0    8.64    3.82
  13   6   0   -0.37    0.55
  13  -6   0    2.55    2.63
 -13  -6  -1    0.31    1.54
 -13  -6   1    8.56    3.48
 -13   6   1    3.02    2.60
  13   6  -1    2.76    0.97
  13  -6  -1    3.03    2.74
  13  -6   1    2.36    1.79
 -13  -6  -2    1.77    1.99
 -13  -6   2    2.24    2.27
 -13   6  -2    6.15    2.32
 -13   6   2   14.44    4.78
  13   6  -2    3.41    1.13
  13  -6  -2    5.06    2.38
  13  -6   2    0.51    2.28
 -13  -6  -3   37.25    6.00
 -13  -6   3   28.78    7.43
 -13   6  -3   26.73    6.85
 -13   6   3   33.31    5.94
  13   6  -3   28.77    7.07
  13  -6  -3   38.54    7.08
  13  -6   3   15.20    4.53
 -13  -6  -4   13.70    4.49
 -13  -6   4    5.13    1.47
 -13   6  -4    9.22    3.70
 -13   6   4    8.61    3.86
  13   6  -4    7.52    1.73
  13  -6  -4    4.52    2.87
  13  -6   4    6.56    2.66
 -13  -6  -5    7.91    3.01
 -13  -6   5   10.64    2.91
 -13   6  -5   13.04    3.97
 -13   6   5   16.96    5.32
  13   6  -5   19.03    4.38
  13  -6  -5   20.23    5.88
  13  -6   5   13.68    4.43
 -13  -6  -6   69.93   10.26
 -13  -6   6   25.57    5.48
 -13   6  -6   57.68    7.43
 -13   6   6   61.37    7.41
  13   6  -6   47.78    9.47
  13  -6  -6   44.24    8.17
  13  -6   6   60.57    6.46
 -13  -6  -7   50.76    7.09
 -13  -6   7   37.28    7.49
 -13   6  -7   58.04    7.74
 -13   6   7   56.55    8.00
  13   6  -7   33.86    7.96
  13  -6  -7   44.85   11.15
  13  -6   7   39.32    7.31
 -13  -6  -8   55.48    8.81
 -13  -6   8   31.66    6.09
 -13   6  -8   56.32    7.14
 -13   6   8   39.10    6.69
  13   6  -8   38.26    6.95
  13  -6  -8   44.53    5.21
  13  -6   8   29.95    8.04
 -13  -6  -9   42.41    7.99
 -13  -6   9   32.23    7.35
 -13   6  -9   33.52    7.74
 -13   6   9   44.28    8.72
  13   6  -9   47.11    9.24
  13  -6  -9   22.61    6.01
  13  -6   9   33.49    7.52
 -13  -6 -10   62.75   12.16
 -13   6 -10   52.63   10.91
 -13   6  10   52.58   10.06
  13   6 -10   43.10   12.69
  13  -6 -10   59.31   14.96
  13  -6  10   37.88    6.71
 -13   6 -11   11.15    4.41
 -13   6  11   25.50    5.24
  13   6 -11   18.81    6.88
  13  -6 -11   19.12    6.07
  13  -6  11    9.49    3.02
 -13   6 -12   23.81    5.07
 -13   6  12   15.05    4.77
  13   6  12   16.93    5.66
  13   6 -12   22.95    5.02
  13  -6 -12   13.24    4.27
  13  -6  12    8.73    3.47
 -13   6 -13    4.10    2.08
 -13   6  13   16.12    5.26
  13   6  13   16.12    6.68
  13   6 -13   12.75    5.83
  13  -6 -13   14.20    5.31
  13  -6  13   10.37    3.36
 -13  -7   0   12.03    4.19
 -13   7   0    5.81    3.53
  13  -7   0    4.18    3.95
 -13  -7  -1   30.75    5.76
 -13  -7   1   48.09    8.05
 -13   7  -1   52.61    8.21
 -13   7   1   35.21    7.44
  13  -7  -1   30.62    6.93
  13  -7   1   30.62    6.53
 -13  -7  -2   26.65    5.62
 -13  -7   2   22.40    5.43
 -13   7  -2   16.97    5.24
 -13   7   2   24.70    6.17
  13   7  -2   20.81    5.06
  13  -7  -2   10.83    3.78
  13  -7   2   14.60    4.39
 -13  -7  -3  109.15   13.68
 -13  -7   3  103.99   12.98
 -13   7  -3   95.77   12.49
 -13   7   3  116.49   10.45
  13   7  -3   98.25   13.48
  13  -7  -3   85.08   12.15
  13  -7   3   83.10   13.66
 -13  -7  -4  111.34   12.38
 -13  -7   4   75.68    9.17
 -13   7  -4   81.47   11.23
 -13   7   4   89.37   10.62
  13   7  -4   82.23   10.59
  13  -7  -4   92.71    9.04
  13  -7   4  102.10    9.58
 -13  -7  -5   92.66   12.54
 -13  -7   5   67.24    9.53
 -13   7  -5   88.25   10.97
 -13   7   5   79.74   13.56
  13   7  -5   69.86   10.78
  13  -7  -5   67.20   11.25
  13  -7   5   53.30   10.03
 -13  -7  -6  122.99   15.15
 -13  -7   6   98.27   12.83
 -13   7  -6  121.54   14.96
 -13   7   6  128.42   14.00
  13   7  -6   86.74   15.21
  13  -7  -6  127.10   11.61
  13  -7   6  107.42   11.07
 -13  -7  -7    7.07    2.69
 -13  -7   7   24.60    6.73
 -13   7  -7   33.43    4.16
 -13   7   7   30.77    8.01
  13   7  -7   35.88    5.88
  13  -7  -7   28.89    7.40
 -13  -7  -8   47.01    7.81
 -13  -7   8   33.27    7.72
 -13   7  -8   41.29    7.70
 -13   7   8   48.01    8.29
  13   7  -8   40.31    7.60
  13  -7  -8   33.71    8.56
  13  -7   8   33.32    8.13
 -13   7  -9    5.95    1.92
 -13   7   9   10.13    4.28
  13   7  -9    6.49    2.65
  13  -7  -9    6.14    3.58
  13  -7   9    1.42    2.26
 -13   7 -10    7.59    2.41
 -13   7  10    2.69    2.24
  13   7  10   16.36    4.84
  13   7 -10    4.31    1.36
  13  -7 -10   12.32    4.83
  13  -7  10   10.09    3.90
 -13   7 -11    4.68    2.03
 -13   7  11    1.95    2.46
  13   7  11    4.28    3.22
  13   7 -11   -0.13    2.21
  13  -7 -11    1.29    3.01
  13  -7  11    2.15    2.21
 -13   7 -12    1.60    2.13
 -13   7  12    6.18    4.40
  13   7  12    7.33    3.56
  13   7 -12    3.74    2.05
  13  -7 -12    2.62    3.10
  13  -7  12    1.71    2.08
 -13   7 -13    4.72    2.19
 -13   7  13    2.92    2.33
  13   7  13    5.50    3.07
  13   7 -13    9.27    3.32
  13  -7 -13    1.23    2.68
  13  -7  13   -0.52    1.96
 -13  -8   0    3.97    2.35
  13  -8   0    0.91    2.65
 -13  -8   1   39.16    8.14
 -13  -8  -1   33.16    7.02
 -13   8  -1   43.75    8.33
 -13   8   1   34.66    6.98
  13  -8   1   31.27    6.21
 -13  -8  -2    6.83    2.48
 -13  -8   2   15.92    5.09
 -13   8  -2    6.79    2.64
 -13   8   2    4.10    3.15
  13  -8  -2    5.69    3.12
  13  -8   2    2.61    2.59
 -13  -8  -3    4.86    2.45
 -13  -8   3   11.40    4.04
 -13   8  -3    1.31    2.41
 -13   8   3    4.55    2.19
  13   8  -3    4.16    1.34
  13  -8  -3    3.21    3.04
  13  -8   3    7.26    3.47
 -13  -8  -4    3.76    2.44
 -13  -8   4   18.82    4.01
 -13   8  -4   24.68    5.19
 -13   8   4   13.66    4.68
  13   8  -4   11.59    3.21
  13  -8  -4   14.63    5.49
  13  -8   4   13.69    5.00
 -13  -8  -5   19.57    6.18
 -13  -8   5   40.55    6.28
 -13   8  -5   39.67    5.77
 -13   8   5   28.54    8.49
  13   8  -5   23.01    6.46
  13  -8  -5   33.26    6.10
 -13  -8  -6    3.89    1.73
 -13  -8   6   11.73    3.56
 -13   8  -6    4.22    2.90
 -13   8   6    2.93    2.44
  13   8  -6    1.54    1.12
  13  -8  -6   11.76    5.87
  13  -8   6   -0.93    2.47
 -13  -8  -7    3.50    1.47
 -13  -8   7    6.28    2.17
 -13   8  -7    1.06    1.97
 -13   8   7   -2.61    2.22
  13   8  -7    4.64    1.37
  13  -8  -7    1.19    2.89
  13  -8   7    2.43    2.61
 -13  -8   8    6.39    2.12
 -13   8  -8   13.68    4.45
 -13   8   8    8.93    3.29
  13   8   8   12.05    4.44
  13   8  -8   14.26    4.12
  13  -8  -8   16.11    5.75
  13  -8   8   20.07    5.77
 -13   8  -9   13.05    3.38
 -13   8   9    6.28    3.47
  13   8   9    9.73    4.57
  13   8  -9   11.71    3.14
  13  -8  -9   12.70    5.05
  13  -8   9   13.37    4.39
 -13   8 -10    3.14    1.32
 -13   8  10   12.77    4.58
  13   8  10   11.25    4.53
  13   8 -10   16.71    4.60
  13  -8 -10   23.48    6.86
  13  -8  10    8.40    3.97
 -13   8 -11   41.03    7.99
 -13   8  11   29.30    7.18
  13   8  11   39.24    8.24
  13   8 -11   60.74   10.28
  13  -8 -11   61.19   10.85
  13  -8  11   29.37    5.56
 -13   8 -12    4.22    2.57
 -13   8  12   12.90    4.52
  13   8  12    6.69    3.31
  13   8 -12   15.27    4.99
  13  -8 -12    4.57    4.24
  13  -8  12   13.69    4.74
 -13  -9   0    4.82    1.52
 -13   9   0    1.81    2.40
  13  -9   0    5.35    2.64
 -13  -9  -1    3.40    1.79
 -13  -9   1    2.04    1.39
 -13   9  -1    6.68    2.86
 -13   9   1    2.20    1.35
  13  -9  -1    5.23    3.99
  13  -9   1    5.62    3.90
 -13  -9   2   17.39    4.84
 -13  -9  -2    2.48    1.66
 -13   9  -2    7.03    3.81
 -13   9   2    3.39    1.70
  13  -9  -2   15.65    5.82
  13  -9   2    2.66    2.60
 -13  -9  -3    8.97    2.97
 -13  -9   3    5.99    2.42
 -13   9  -3    8.33    3.58
 -13   9   3   10.19    3.47
  13  -9  -3    1.46    2.77
  13  -9   3    8.94    3.58
 -13  -9  -4   22.31    6.14
 -13  -9   4   19.62    5.34
 -13   9  -4   23.78    6.50
 -13   9   4    6.30    3.39
  13  -9  -4    9.30    4.69
  13  -9   4   21.22    6.17
 -13  -9   4   12.04    3.55
 -13  -9   5   31.29    6.63
 -13   9  -5   48.82    7.26
 -13   9   5   39.13    8.05
  13   9   5   34.02    8.36
  13   9  -5   36.23    7.83
  13  -9  -5   39.78    7.70
  13  -9   5   22.74    5.87
 -13  -9   6   28.66    6.92
 -13   9  -6   27.11    7.17
 -13   9   6   36.35    9.20
  13   9   6   30.41    6.94
  13   9  -6   32.82    8.04
  13  -9  -6   19.49    5.62
  13  -9   6   14.54    5.16
 -13  -9   7    4.93    2.38
 -13   9  -7   18.81    4.88
 -13   9   7   34.63    6.84
  13   9   7   13.82    5.55
  13   9  -7   25.08    6.69
  13  -9  -7   17.98    5.98
  13  -9   7   12.98    4.07
 -13   9  -8   10.17    3.55
 -13   9   8    9.07    3.22
  13   9   8   13.91    5.29
  13   9  -8    4.11    1.47
  13  -9  -8    6.94    3.17
  13  -9   8    8.45    4.14
 -13   9  -9   29.61    5.84
 -13   9   9   45.43    7.21
  13   9   9   26.99    5.51
  13   9  -9   42.80    7.24
  13  -9  -9    6.31    3.25
  13  -9   9   15.61    4.54
 -13   9 -10   11.24    2.89
 -13   9  10    0.36    2.60
  13   9  10   10.85    4.71
  13   9 -10    6.61    2.15
  13  -9 -10   11.62    5.00
  13  -9  10    5.40    2.73
 -13   9 -11    4.30    1.76
 -13   9  11    9.40    4.17
  13   9  11    2.52    2.77
  13   9 -11    4.05    1.74
  13  -9 -11    9.61    5.00
  13  -9  11    3.44    2.47
 -13  10   0   70.17    7.62
  13  10   0   66.28    7.92
  13 -10   0   52.93    6.14
 -13  10  -1   27.66    6.57
 -13  10   1   12.77    4.38
  13  10   1   18.10    5.09
  13 -10  -1    8.35    3.64
  13 -10   1    7.28    2.89
 -13  10  -2   72.25   12.48
 -13  10   2   69.35   13.50
  13  10   2   66.59    9.07
  13 -10   2   51.69   13.14
 -13  10  -3    8.41    4.20
 -13  10   3    5.94    1.79
  13  10   3   12.83    4.84
  13 -10  -3   14.53    5.47
  13 -10   3   10.39    4.05
 -13  10  -4   28.21    8.05
 -13  10   4   25.73    6.63
  13  10   4   29.16    6.54
  13 -10  -4   41.34    9.12
  13 -10   4   16.45    5.52
 -13  10  -5    7.11    3.24
 -13  10   5    9.64    4.86
  13  10   5    3.38    2.74
  13  10  -5    5.12    2.42
  13 -10  -5    3.75    3.15
  13 -10   5    8.35    4.34
 -13  10  -6   30.10    8.03
 -13  10   6   20.81    6.09
  13  10   6   11.29    4.45
  13  10  -6   19.88    4.92
  13 -10  -6    9.28    5.08
  13 -10   6   18.69    5.57
 -13 -10   6   17.04    5.26
 -13  10  -7    2.94    1.25
 -13  10   7   10.51    4.03
  13  10   7   -0.84    2.58
  13  10  -7    4.76    2.75
  13 -10  -7    6.77    3.05
  13 -10   7    1.25    2.81
 -13 -10   7    2.89    1.85
 -13  10  -8    5.71    2.27
 -13  10   8   11.10    4.92
  13  10   8    3.97    3.14
  13 -10  -8    8.47    2.66
  13 -10   8    5.12    2.84
 -13  10  -9    9.35    2.31
 -13  10   9    6.43    3.07
  13  10   9    5.70    3.50
  13 -10  -9    6.77    2.41
  13 -10   9    4.09    2.74
 -13  10 -10    4.48    1.61
 -13  10  10    8.52    4.06
  13  10  10    5.47    3.31
  13  10 -10   11.67    3.66
  13 -10 -10    1.37    3.21
  13 -10  10    9.61    4.24
 -13  11   0    5.80    3.32
  13  11   0    7.00    2.92
  13 -11   0    2.74    3.10
 -13  11  -1    6.13    2.70
 -13  11   1    2.28    2.61
  13  11  -1    6.02    2.61
  13  11   1    4.37    2.40
  13 -11  -1    4.48    2.98
  13 -11   1   -1.58    3.12
 -13  11  -2    1.22    2.38
  13  11   2    8.35    3.54
  13  11  -2    2.24    2.19
  13 -11  -2    3.71    2.10
  13 -11   2    4.86    3.22
 -13  11  -3    4.16    3.59
 -13  11   3    4.65    1.91
  13  11   3   -0.86    2.67
  13  11  -3    2.11    1.68
  13 -11  -3    3.70    3.10
  13 -11   3    1.12    2.98
 -13  11  -4    5.23    2.92
 -13  11   4    9.45    4.26
  13  11   4    5.34    2.62
  13  11  -4    4.54    1.74
  13 -11  -4    4.43    2.90
  13 -11   4    5.46    3.47
 -13  11  -5    8.82    3.93
 -13  11   5    3.94    1.92
  13  11   5   13.97    5.36
  13  11  -5    7.90    2.53
  13 -11  -5    3.74    3.10
  13 -11   5   11.96    5.51
 -13  11  -6    3.28    2.28
 -13  11   6   19.29    5.62
  13  11   6    8.77    3.35
  13  11  -6    8.04    3.16
  13 -11  -6    7.88    4.69
  13 -11   6    7.72    4.72
 -13  11  -7   15.45    4.39
 -13  11   7   20.56    4.81
  13  11   7   16.11    5.70
  13 -11  -7   20.42    5.80
  13 -11   7   23.04    5.31
 -13  11  -8    4.67    2.17
 -13  11   8   17.41    4.71
  13 -11  -8   -0.47    2.94
  13 -11   8    4.97    2.45
 -13 -11   8    8.25    3.30
 -13  11  -9   44.60   10.64
 -13  11   9   39.17   11.18
  13  11   9   26.76    7.44
  13 -11  -9   24.49    7.23
  13 -11   9   19.73    5.85
 -13 -11   9   19.51    5.57
 -13  12   0   58.14   10.01
  13  12   0   50.11    6.74
  13 -12   0   43.20    6.58
 -13  12  -1   41.16    7.44
 -13  12   1   37.93    8.82
  13  12  -1   21.82    6.04
  13  12   1   86.60   10.56
  13 -12  -1   45.70    6.16
 -13  12  -2  114.72   17.26
 -13  12   2  149.52   38.82
  13  12  -2  139.02   15.01
  13  12   2  153.51   39.91
  13 -12  -2  158.37   41.71
  13 -12   2  132.96   15.12
 -13  12  -3   57.34   10.00
 -13  12   3   76.08   13.77
  13  12   3   72.27   11.64
  13  12  -3   67.01   10.55
  13 -12   3   76.30   13.07
 -13  12  -4   39.94    9.13
 -13  12   4   51.92   10.87
  13  12  -4   33.80    6.71
  13  12   4   43.32    9.67
  13 -12  -4   42.23    7.78
  13 -12   4   22.90    5.75
 -13  12  -5    9.58    3.62
 -13  12   5    2.51    3.67
  13  12  -5   11.18    3.24
  13  12   5    6.29    4.07
  13 -12  -5    8.05    3.41
  13 -12   5    6.67    3.72
 -13  12  -6    8.06    3.46
 -13  12   6    9.74    4.39
  13  12   6    6.04    4.14
  13 -12  -6    9.92    4.27
  13 -12   6    8.43    4.93
 -13  12  -7   12.65    4.62
 -13  12   7   14.99    4.93
  13  12   7    7.34    3.42
  13 -12  -7    5.79    3.37
  13 -12   7    6.00    3.47
 -13  12  -8   -0.87    1.70
 -13  12   8    9.14    3.31
  13  12   8    3.65    4.05
  13 -12  -8    9.97    5.07
  13 -12   8    2.84    3.98
 -13  13   0    8.91    4.16
  13  13   0   13.08    5.33
  13 -13   0    4.79    3.17
 -13  13  -1    0.08    1.84
 -13  13   1    7.45    4.33
  13  13   1    8.19    4.10
  13 -13  -1    2.72    3.20
  13 -13   1    9.42    3.67
 -13  13  -2   22.44    5.22
 -13  13   2   13.94    5.02
  13  13  -2    8.89    3.51
  13  13   2   10.41    5.08
  13 -13  -2   14.13    5.77
  13 -13   2    6.75    3.47
 -13  13  -3    3.85    2.35
 -13  13   3    3.05    2.82
  13  13   3    3.69    2.77
  13  13  -3   -1.10    1.92
  13 -13  -3   -1.53    2.96
  13 -13   3   12.07    5.88
 -13  13  -4   18.63    4.80
 -13  13   4   10.49    4.38
  13  13   4   21.35    5.48
  13  13  -4   18.70    5.04
  13 -13  -4   17.23    5.84
  13 -13   4   16.72    6.08
 -13  13  -5    9.27    2.89
 -13  13   5   17.32    6.32
  13  13   5    8.26    3.17
  13 -13  -5   17.03    6.73
  13 -13   5    5.00    4.97
 -13  13  -6    6.82    3.25
 -13  13   6    6.01    2.52
  13  13   6   20.79    5.95
  13 -13  -6    8.64    4.95
  13 -13   6    9.13    5.05
 -13  14   0   41.64   13.83
  13  14   0   56.03   13.31
  13 -14   0   21.12    6.55
 -13  14  -1   20.20    6.52
 -13  14   1   15.08    4.85
  13  14  -1   13.40    5.23
  13 -14  -1    6.96    4.79
  13 -14   1   17.05    4.65
 -13  14  -2   48.77   14.01
 -13  14   2   72.01   17.18
  13  14  -2   60.59   14.12
  13  14   2   80.08   18.64
  13 -14   2   39.18    9.72
 -14   0   0   45.92    7.95
  14   0   0   45.40    8.64
 -14   0  -1  204.68   20.40
 -14   0   1  214.93   20.46
  14   0  -1  213.27   13.70
  14   0   1  201.82   12.81
 -14   0  -2   69.25   10.35
 -14   0   2   75.86    9.83
  14   0  -2   63.87    6.59
  14   0   2   57.57    8.16
 -14   0  -3   40.59    7.61
 -14   0   3   43.30    7.28
  14   0  -3   13.36    3.72
  14   0   3   19.63    5.50
 -14   0  -4   46.21    7.18
 -14   0   4   46.80    7.17
  14   0  -4   28.61    6.61
  14   0   4   28.42    6.70
 -14   0   5    5.07    2.07
  14   0  -5    5.38    2.61
  14   0   5    4.15    1.66
 -14   0  -6    5.38    2.74
 -14   0   6    4.29    3.01
  14   0  -6    0.38    1.81
 -14   0  -7    5.72    1.93
 -14   0   7    1.99    1.87
  14   0  -7    2.08    2.01
 -14   0  -8   16.56    4.98
 -14   0   8   14.18    4.71
  14   0  -8   17.76    5.10
 -14   0  -9    1.94    2.02
 -14   0   9    2.96    1.91
  14   0  -9    5.35    2.63
 -14   0 -10    7.66    3.13
 -14   0  10    0.66    1.03
  14   0 -10    5.41    2.09
 -14   0 -11    3.23    1.74
 -14   0  11    4.74    2.01
  14   0 -11    7.69    3.31
 -14   0 -12   11.93    3.41
 -14   0  12    5.28    2.63
  14   0 -12   11.07    4.69
 -14   0 -13    6.25    2.49
  14   0 -13    6.79    2.60
 -14   0 -14    2.13    1.23
  14   0 -14    4.71    2.28
 -14  -1   0    3.09    1.60
 -14   1   0    4.62    1.66
  14   1   0    4.74    2.26
  14  -1   0    3.03    1.71
 -14  -1  -1    6.04    2.62
 -14  -1   1   17.41    4.18
 -14   1  -1   11.61    4.24
 -14   1   1   15.85    4.11
  14   1  -1    5.34    2.47
  14   1   1    3.35    1.54
  14  -1  -1   10.37    3.49
  14  -1   1    0.08    1.48
 -14  -1  -2   16.62    4.25
 -14   1  -2   12.65    4.09
 -14  -1   2   12.72    4.29
 -14   1   2   14.54    3.45
  14   1  -2   10.32    3.49
  14   1   2    2.43    1.35
  14  -1  -2   11.03    4.06
  14  -1   2    4.86    2.30
 -14  -1  -3   19.82    4.93
 -14   1  -3   25.48    7.13
 -14  -1   3   27.23    6.95
 -14   1   3   10.95    3.35
  14   1  -3   15.27    4.35
  14  -1  -3   21.04    5.98
  14   1   3   19.56    4.77
  14  -1   3    9.89    3.19
 -14  -1  -4   65.32   13.81
 -14   1  -4   58.33   11.39
 -14  -1   4   53.09    8.43
 -14   1   4   53.94    9.32
  14   1  -4   45.89    6.52
  14  -1  -4   48.77    7.15
  14   1   4   44.55    7.04
  14  -1   4   34.86    7.76
 -14  -1  -5    7.98    3.27
 -14   1  -5   15.59    4.81
 -14  -1   5    6.02    2.55
 -14   1   5    6.50    3.48
  14   1  -5   13.89    4.21
  14  -1  -5    9.01    3.35
  14  -1   5    9.19    2.94
 -14  -1  -6   53.34   10.71
 -14   1  -6   52.89   11.35
 -14  -1   6   44.74    9.01
 -14   1   6   39.89    8.11
  14   1  -6   42.87    9.11
  14  -1  -6   55.50   10.28
  14  -1   6   38.80    8.23
 -14  -1  -7    9.02    2.92
 -14   1  -7   16.33    5.30
 -14  -1   7    6.90    1.96
 -14   1   7   20.05    4.31
  14   1  -7   14.09    4.25
  14  -1  -7    8.91    3.05
 -14  -1  -8   87.68   12.20
 -14   1  -8   68.84    8.75
 -14  -1   8   68.61   10.75
 -14   1   8   67.93    9.40
  14   1  -8   60.94   14.56
  14  -1  -8   71.43   11.49
 -14  -1  -9    5.66    1.99
 -14   1  -9   -0.39    2.26
 -14  -1   9    5.34    2.14
 -14   1   9    4.22    2.10
  14   1  -9    2.66    2.65
  14  -1  -9    2.40    2.25
 -14  -1 -10   34.74    9.09
 -14   1 -10   33.02    7.20
 -14  -1  10   17.97    5.44
 -14   1  10   21.57    5.63
  14   1 -10   20.55    5.36
  14  -1 -10   20.05    5.05
 -14  -1 -11    8.74    2.90
 -14   1 -11   10.04    3.36
 -14  -1  11    4.23    1.95
 -14   1  11    7.82    3.13
  14   1 -11    7.10    2.31
  14  -1 -11    5.92    2.65
 -14  -1 -12   18.55    5.15
 -14   1 -12   10.85    3.31
 -14  -1  12    3.00    1.79
 -14   1  12   17.59    5.12
  14   1 -12   13.50    3.98
  14  -1 -12    4.12    2.91
 -14  -1 -13   -3.58    1.95
 -14   1 -13    1.33    1.30
 -14   1  13    1.05    1.81
  14   1 -13    9.56    3.55
  14  -1 -13    4.45    1.99
 -14  -1 -14   -3.85    1.97
 -14   1 -14    6.02    2.29
  14   1 -14    4.92    2.84
  14  -1 -14    8.33    2.66
 -14  -2   0   38.73    8.00
 -14   2   0   26.14    6.40
  14   2   0    9.70    3.02
  14  -2   0   22.80    6.07
 -14  -2  -1  166.00   16.15
 -14  -2   1  163.71   17.76
 -14   2  -1  181.09   16.61
 -14   2   1  168.76   11.88
  14   2  -1  152.40   10.06
  14   2   1  162.21   10.40
  14  -2  -1  150.49   16.50
  14  -2   1  158.17   10.58
 -14  -2  -2   24.13    6.65
 -14  -2   2   23.27    6.00
 -14   2  -2   21.25    6.29
 -14   2   2   19.98    5.17
  14   2  -2    6.73    2.12
  14   2   2   11.28    2.99
  14  -2  -2    7.99    2.62
  14  -2   2   24.19    6.54
 -14  -2  -3  176.04   16.40
 -14  -2   3  142.73   12.98
 -14   2  -3  126.58   11.82
 -14   2   3  170.65   11.31
  14   2  -3  146.67   12.50
  14  -2  -3  128.62    8.69
  14  -2   3  145.77   11.80
 -14  -2  -4   22.63    5.71
 -14  -2   4   27.00    6.58
 -14   2   4   16.71    5.11
  14   2  -4   21.21    6.69
  14  -2  -4   14.85    4.14
  14  -2   4   12.21    3.50
 -14  -2  -5   45.06    8.97
 -14  -2   5   37.05    7.21
 -14   2  -5   32.18    7.22
 -14   2   5   34.73    6.98
  14   2  -5   23.88    6.87
  14  -2  -5   34.18    6.98
  14  -2   5   29.82    6.93
 -14  -2  -6   75.82   10.55
 -14   2  -6   70.93   10.68
 -14  -2   6   58.34    7.57
 -14   2   6   62.52    8.04
  14   2  -6   41.86   11.82
  14  -2  -6   66.59    6.59
  14  -2   6   47.13    8.01
 -14  -2  -7    5.22    2.71
 -14   2  -7   11.78    3.98
 -14  -2   7    6.84    1.96
 -14   2   7    7.81    3.21
  14   2  -7    4.75    2.07
  14  -2  -7    4.69    3.42
  14  -2   7    4.11    1.24
 -14  -2  -8    5.71    1.92
 -14   2  -8    6.55    2.18
 -14  -2   8   10.77    3.75
 -14   2   8   14.53    5.08
  14   2  -8    4.83    1.66
  14  -2  -8    5.62    2.54
  14  -2   8    8.20    2.83
 -14  -2  -9    4.51    1.50
 -14   2  -9   15.21    5.10
 -14  -2   9   12.23    3.47
 -14   2   9   11.07    3.46
  14   2  -9    7.15    2.32
  14  -2  -9   18.48    4.85
 -14  -2 -10    2.79    1.29
 -14   2 -10    5.68    1.93
 -14  -2  10    7.31    3.17
 -14   2  10    9.47    3.44
  14   2 -10   10.10    3.11
  14  -2 -10    5.59    2.82
 -14  -2 -11   10.43    3.59
 -14   2 -11    8.02    3.09
 -14  -2  11    4.26    2.24
 -14   2  11   13.89    4.31
  14   2 -11   13.16    4.34
  14  -2 -11    5.04    2.97
 -14  -2 -12   10.57    3.78
 -14   2 -12    8.43    1.98
 -14   2  12    8.44    3.02
  14   2 -12    5.11    1.98
  14  -2 -12    8.16    4.43
 -14  -2 -13    2.65    1.53
 -14   2 -13    3.98    2.02
 -14   2  13    7.46    3.05
  14   2 -13    7.29    4.44
  14  -2 -13    3.97    2.14
 -14  -2 -14    9.14    3.53
 -14   2 -14    2.06    1.05
  14   2 -14    4.08    3.17
  14  -2 -14    7.82    2.99
 -14  -3   0   84.65    7.04
 -14   3   0   84.00    6.96
  14   3   0   56.71   10.60
  14  -3   0   73.54   10.95
 -14  -3  -1   11.09    3.96
 -14  -3   1   11.02    3.90
 -14   3  -1   11.89    5.01
 -14   3   1    7.80    2.58
  14   3   1    0.84    1.13
  14   3  -1    3.84    1.49
  14  -3  -1    6.95    2.84
  14  -3   1    0.69    1.90
 -14  -3  -2   85.53    9.40
 -14  -3   2   76.32   10.67
 -14   3  -2   85.62   11.14
 -14   3   2   82.23    7.55
  14   3  -2   49.55    9.67
  14  -3  -2   63.16   10.12
  14  -3   2   58.17    9.99
 -14  -3  -3   89.89    9.40
 -14  -3   3   63.06   10.14
 -14   3  -3   71.45    9.88
 -14   3   3   79.40    8.85
  14   3  -3   62.76   11.73
  14  -3  -3   71.01   11.35
  14  -3   3   69.39   12.11
 -14  -3  -4   39.27    7.87
 -14  -3   4   50.99    9.96
 -14   3  -4   45.41    9.10
 -14   3   4   38.63    7.47
  14   3  -4   31.38    9.00
  14  -3  -4   57.84    6.27
  14  -3   4   34.42    6.18
 -14  -3  -5  117.11   14.10
 -14  -3   5  109.07   13.74
 -14   3  -5   95.73   13.10
 -14   3   5  140.20   15.31
  14   3  -5  119.48   16.18
  14  -3  -5  114.40   10.00
  14  -3   5  101.66    8.46
 -14  -3   6   82.67    9.99
 -14   3  -6   73.25   10.13
 -14   3   6   85.77    8.60
  14   3  -6   58.54   12.66
  14  -3  -6   94.62    9.16
  14  -3   6   78.21    7.28
 -14   3  -7  142.63   18.53
 -14  -3   7  139.52   19.64
 -14   3   7  177.91   36.39
  14   3  -7  141.98   24.13
  14  -3  -7  156.54   13.66
  14  -3   7  168.00   13.92
 -14  -3  -8   19.80    5.93
 -14   3  -8   22.90    6.00
 -14  -3   8   30.10    8.15
 -14   3   8   27.30    7.66
  14   3  -8   25.48    6.91
  14  -3  -8   23.13    6.19
  14  -3   8   22.60    6.07
 -14  -3  -9    6.14    2.20
 -14   3  -9   10.42    3.02
 -14  -3   9    9.21    3.32
 -14   3   9   12.34    4.76
  14   3  -9   13.93    5.31
  14  -3  -9    5.24    3.80
  14  -3   9    6.77    2.99
 -14  -3 -10    8.01    2.49
 -14   3 -10    7.63    3.56
 -14  -3  10    9.21    2.67
 -14   3  10   -0.45    1.92
  14   3 -10   10.61    3.29
  14  -3 -10   17.57    5.49
 -14  -3 -11    6.67    1.48
 -14   3 -11    6.96    2.00
 -14   3  11    9.41    3.37
  14   3 -11   16.03    4.92
  14  -3 -11   -2.36    2.87
 -14   3 -12   26.76    5.63
 -14   3  12   22.02    4.97
  14   3 -12   13.50    4.06
  14  -3 -12   14.65    5.41
 -14   3 -13    5.60    2.61
 -14   3  13    1.43    1.71
  14   3 -13    8.79    3.36
  14  -3 -13    4.34    1.93
 -14  -4   0    8.05    2.56
 -14   4   0   -1.04    2.42
  14   4   0    2.55    1.23
  14  -4   0    8.48    3.39
 -14  -4  -1    7.76    2.03
 -14  -4   1    6.35    2.75
 -14   4  -1   20.52    5.44
 -14   4   1   27.46    7.39
  14   4  -1   18.86    5.35
  14  -4  -1    8.55    3.48
  14  -4   1   26.62    6.85
 -14  -4  -2   25.11    6.40
 -14  -4   2   48.70    7.86
 -14   4  -2   36.30    6.43
 -14   4   2   34.69    5.98
  14   4  -2   38.32    7.18
  14  -4  -2   35.89    5.41
  14  -4   2   21.28    7.04
 -14  -4  -3   44.12   10.47
 -14  -4   3   65.08    9.77
 -14   4  -3   46.83    8.64
 -14   4   3   54.15    9.80
  14   4  -3   32.59    9.24
  14  -4  -3   55.52   10.02
  14  -4   3   47.00    8.34
 -14  -4  -4    6.46    2.90
 -14  -4   4    6.13    2.32
 -14   4  -4   10.65    3.40
 -14   4   4    4.89    3.09
  14   4  -4    5.22    1.88
  14  -4  -4   15.85    4.38
  14  -4   4    3.73    1.96
 -14  -4  -5   65.38    9.17
 -14  -4   5   45.26    8.51
 -14   4  -5   23.80    6.52
 -14   4   5   42.81    8.33
  14   4  -5   27.93    7.58
  14  -4  -5   27.87    5.79
  14  -4   5   16.59    4.07
 -14  -4  -6   35.04    7.38
 -14  -4   6   47.12    7.07
 -14   4  -6   36.78    7.19
 -14   4   6   41.89    8.25
  14   4  -6   31.05    6.95
  14  -4   6   11.06    3.36
 -14  -4  -7   18.74    5.22
 -14  -4   7    9.59    3.19
 -14   4  -7   18.29    5.08
 -14   4   7   22.64    6.07
  14   4  -7    7.52    2.19
  14  -4  -7   18.00    6.45
  14  -4   7   16.93    5.22
 -14  -4  -8   15.56    4.78
 -14  -4   8   19.59    5.47
 -14   4  -8   28.76    7.30
 -14   4   8   16.91    5.18
  14   4  -8   18.06    5.46
  14  -4  -8   13.95    5.05
  14  -4   8    6.82    2.88
 -14  -4  -9   69.36   12.30
 -14  -4   9   49.26    9.06
 -14   4  -9   48.52    8.69
 -14   4   9   46.59    9.54
  14   4  -9   45.98   10.58
  14  -4  -9   44.57    8.34
  14  -4   9   27.22    7.57
 -14  -4 -10    8.93    3.56
 -14  -4  10    2.05    0.96
 -14   4 -10    4.37    1.76
 -14   4  10   17.32    5.16
  14   4 -10    4.80    2.55
  14  -4 -10    8.95    5.06
  14  -4  10    4.51    1.64
 -14  -4 -11    4.73    1.67
 -14   4 -11    1.58    1.41
 -14   4  11   -2.89    1.93
  14   4 -11    1.47    1.87
  14  -4 -11    1.82    2.91
 -14  -4 -12    4.38    1.86
 -14   4 -12    5.52    1.86
 -14   4  12    4.68    2.35
  14   4 -12    6.70    3.15
  14  -4 -12    7.16    4.26
 -14  -4 -13    1.93    1.13
 -14   4 -13    2.75    1.19
 -14   4  13   -0.19    1.82
  14   4 -13    6.80    2.43
  14  -4 -13    9.30    4.06
 -14  -5   0   15.23    4.33
 -14   5   0   11.03    4.13
  14  -5   0   18.01    5.22
 -14  -5  -1    9.85    3.40
 -14  -5   1    4.08    1.35
 -14   5  -1   10.45    3.45
 -14   5   1    1.54    2.40
  14   5  -1    8.37    2.28
  14  -5  -1    7.81    3.52
  14  -5   1    6.38    3.40
 -14  -5  -2   34.28    7.51
 -14  -5   2   18.97    5.68
 -14   5   2   34.92    7.34
  14   5  -2   25.12    5.87
  14  -5  -2   21.81    6.03
  14  -5   2   13.26    3.87
 -14  -5  -3   78.37    8.83
 -14  -5   3   40.83    7.90
 -14   5  -3   57.10   10.35
 -14   5   3   58.79    7.33
  14   5  -3   37.27    7.72
  14  -5  -3   65.03    7.53
  14  -5   3   49.79    8.68
 -14  -5  -4   20.16    5.82
 -14  -5   4   22.78    5.90
 -14   5  -4   20.54    5.45
 -14   5   4   11.78    4.41
  14   5  -4   12.68    3.67
  14  -5   4   10.84    3.59
 -14  -5  -5   46.55    8.46
 -14  -5   5   57.57    7.84
 -14   5  -5   54.35    7.63
 -14   5   5   45.41    6.10
  14   5  -5   41.74    8.86
  14  -5  -5   48.00    9.63
  14  -5   5   56.73    6.32
 -14  -5  -6   36.08    7.42
 -14  -5   6   34.83    7.19
 -14   5  -6   29.21    7.50
 -14   5   6   34.23    7.32
  14   5  -6   19.32    5.73
  14  -5  -6   18.52    4.63
  14  -5   6   25.77    5.75
 -14  -5  -7   65.06    9.03
 -14  -5   7   54.70    9.11
 -14   5  -7   77.58    9.51
 -14   5   7   54.82    7.49
  14   5  -7   52.46   11.75
  14  -5  -7   51.29    6.15
  14  -5   7   61.72    6.29
 -14  -5   8   10.35    3.97
 -14   5  -8    6.31    2.19
 -14   5   8    2.06    2.47
  14   5  -8    8.80    4.66
  14  -5  -8    1.85    1.96
  14  -5   8   15.52    5.08
 -14  -5  -9    9.17    3.70
 -14  -5   9    5.21    1.44
 -14   5  -9    8.89    3.05
 -14   5   9   14.98    4.69
  14   5  -9   14.77    4.10
  14  -5  -9   25.38    7.38
  14  -5   9    9.19    3.36
 -14  -5 -10    8.81    2.65
 -14   5 -10    5.79    2.52
 -14   5  10   10.86    4.49
  14   5 -10   12.09    4.43
  14  -5 -10    1.66    2.70
  14  -5  10    2.36    1.37
 -14  -5 -11    1.45    1.40
 -14   5 -11   -0.95    2.12
 -14   5  11   -1.46    2.17
  14   5 -11    4.84    2.72
  14  -5 -11    0.88    2.62
 -14  -5 -12    5.59    2.81
 -14   5 -12    4.26    2.08
 -14   5  12    1.32    2.01
  14   5 -12    4.51    1.86
  14  -5 -12    1.31    2.72
 -14   5 -13   10.80    3.34
 -14   5  13    0.39    1.89
  14   5  13    5.82    2.09
  14   5 -13    3.64    2.66
  14  -5 -13    8.99    4.89
 -14  -6   0    2.08    2.11
 -14   6   0   -0.39    2.23
  14  -6   0    2.87    2.30
 -14  -6  -1   14.17    5.16
 -14  -6   1   12.32    3.63
 -14   6  -1    9.76    4.52
 -14   6   1   12.71    4.68
  14  -6  -1   13.08    4.30
  14  -6   1    7.76    3.53
 -14  -6  -2    8.02    2.72
 -14  -6   2    7.19    2.38
 -14   6  -2    3.61    2.45
 -14   6   2    6.60    2.26
  14  -6  -2    8.32    3.94
  14  -6   2    0.89    2.09
 -14  -6  -3    9.97    4.04
 -14  -6   3    8.53    4.46
 -14   6   3   15.08    5.16
  14   6  -3    2.96    1.12
  14  -6  -3   13.37    4.76
  14  -6   3    4.68    3.00
 -14  -6  -4    4.59    2.41
 -14  -6   4    1.64    1.60
 -14   6  -4   -0.29    2.28
 -14   6   4   -0.82    2.61
  14   6  -4    1.13    0.91
  14  -6  -4    1.43    2.32
  14  -6   4    3.22    2.16
 -14  -6  -5   14.81    4.73
 -14  -6   5    8.14    2.98
 -14   6  -5   20.39    5.95
 -14   6   5   22.23    5.94
  14   6  -5   21.62    6.19
  14  -6  -5    9.77    4.17
  14  -6   5   19.76    5.82
 -14  -6  -6   10.96    3.54
 -14  -6   6   18.26    5.01
 -14   6   6   15.79    5.28
  14   6  -6   22.01    5.85
  14  -6  -6   19.93    5.93
 -14  -6  -7   76.03   12.19
 -14  -6   7   56.70   10.98
 -14   6  -7   84.61   12.87
 -14   6   7   72.69   11.44
  14   6  -7   58.74   11.50
  14  -6  -7   78.40   10.97
  14  -6   7   53.42    8.22
 -14  -6  -8   13.07    4.68
 -14  -6   8    4.69    1.44
 -14   6  -8   12.41    3.46
 -14   6   8   10.83    4.52
  14   6  -8   19.34    5.39
  14  -6  -8   11.09    4.81
  14  -6   8    9.93    3.06
 -14  -6  -9   33.11    8.84
 -14  -6   9   22.70    6.28
 -14   6  -9   40.30    6.98
 -14   6   9   30.36    7.40
  14   6  -9   36.48    9.57
  14  -6  -9   40.79    8.03
  14  -6   9   19.14    5.12
 -14  -6 -10   16.06    4.55
 -14   6 -10   10.03    3.15
 -14   6  10   18.18    6.24
  14   6 -10    8.90    3.07
  14  -6 -10    6.62    2.80
  14  -6  10    5.68    3.02
 -14  -6 -11    8.34    2.85
 -14   6 -11   19.07    5.64
 -14   6  11   11.81    3.67
  14   6 -11   11.55    3.50
  14  -6 -11   18.22    5.87
  14  -6  11    2.93    2.16
 -14   6 -12   12.57    4.47
 -14   6  12   11.27    4.18
  14   6  12    8.84    4.57
  14   6 -12   14.54    5.03
  14  -6 -12   12.60    5.35
 -14  -7   0   69.95    9.53
 -14   7   0   64.40    9.77
 -14  -7   1   25.71    5.28
 -14  -7  -1   31.52    6.22
 -14   7  -1   28.20    5.65
 -14   7   1   19.85    4.32
  14  -7  -1   30.19    5.85
  14  -7   1   19.43    5.16
 -14  -7  -2  158.67   18.27
 -14  -7   2  155.95   18.49
 -14   7  -2  173.99   32.96
 -14   7   2  172.97   33.67
  14  -7  -2  193.25   36.48
  14  -7   2  175.34   33.21
 -14  -7  -3   13.56    4.50
 -14  -7   3   10.37    3.28
 -14   7  -3    3.88    2.89
 -14   7   3   12.67    4.18
  14  -7  -3   14.42    5.11
  14  -7   3    5.31    2.42
 -14  -7  -4   72.35    9.77
 -14  -7   4   65.15    8.75
 -14   7  -4   71.98   11.97
 -14   7   4   57.32    7.95
  14   7  -4   57.33   10.16
  14  -7  -4   57.04    5.96
  14  -7   4   69.19    7.08
 -14  -7  -5    8.40    2.70
 -14  -7   5    5.69    2.32
 -14   7  -5    7.48    3.52
 -14   7   5    9.00    3.87
  14   7  -5   12.24    4.84
  14  -7  -5   17.16    5.75
  14  -7   5    4.70    2.90
 -14  -7  -6    8.49    4.13
 -14  -7   6    8.78    2.87
 -14   7  -6    3.51    2.32
 -14   7   6    9.49    3.66
  14   7  -6    5.45    1.48
  14  -7  -6    4.55    2.22
  14  -7   6   11.93    4.53
 -14  -7  -7   20.94    6.15
 -14  -7   7   16.30    5.33
 -14   7  -7   36.37    6.83
 -14   7   7   27.99    7.47
  14   7  -7   15.34    4.59
  14  -7  -7   14.64    5.38
  14  -7   7   18.70    5.31
 -14  -7  -8    3.48    1.55
 -14  -7   8    1.99    0.89
 -14   7  -8   -0.16    2.14
 -14   7   8    3.95    2.46
  14   7  -8    3.68    1.93
  14  -7  -8    0.55    2.73
  14  -7   8    5.76    3.31
 -14  -7  -9   -1.02    2.22
 -14   7  -9    4.71    2.26
 -14   7   9    5.86    2.90
  14   7  -9    1.83    1.40
  14  -7  -9    1.20    2.66
  14  -7   9    1.08    2.06
 -14   7 -10    5.06    1.85
 -14   7  10   17.65    5.30
  14   7 -10   10.29    3.83
  14  -7 -10    6.00    3.33
  14  -7  10    8.36    2.37
 -14   7 -11    1.08    2.18
 -14   7  11   -1.51    2.41
  14   7  11    6.32    4.55
  14   7 -11    3.56    1.59
  14  -7 -11    3.29    3.07
  14  -7  11    5.45    2.44
 -14   7 -12    5.35    2.06
 -14   7  12   -0.70    2.09
  14   7  12    9.66    4.00
  14   7 -12    5.71    2.84
  14  -7 -12    7.87    3.68
  14  -7  12   10.48    3.87
 -14  -8   0    7.34    2.13
  14  -8   0    2.56    2.42
 -14  -8  -1    6.99    2.46
 -14  -8   1    8.11    2.82
 -14   8  -1    3.74    2.33
 -14   8   1   10.12    4.21
  14  -8  -1    9.41    3.83
  14  -8   1    8.65    4.17
 -14  -8  -2   25.65    7.01
 -14  -8   2   29.43    8.03
 -14   8  -2   31.27    8.55
 -14   8   2   19.07    5.43
  14  -8  -2   32.68    5.27
  14  -8   2   21.87    6.20
 -14  -8  -3    4.26    1.40
 -14  -8   3    1.48    1.03
 -14   8  -3    1.01    1.37
 -14   8   3    5.73    2.75
  14  -8  -3    0.55    2.79
  14  -8   3    9.25    3.92
 -14  -8  -4   34.68    9.83
 -14  -8   4   16.40    4.95
 -14   8  -4   35.79   10.64
 -14   8   4   20.64    4.99
  14  -8  -4   31.03    7.15
 -14  -8  -5   19.14    5.36
 -14  -8   5    9.79    3.18
 -14   8  -5   26.80    6.17
 -14   8   5   16.53    5.93
  14   8  -5   16.82    4.33
  14  -8  -5   17.83    5.16
  14  -8   5    4.93    2.76
 -14  -8  -6   53.95   11.01
 -14  -8   6   45.60    9.02
 -14   8  -6   50.26    8.96
 -14   8   6   27.48    8.26
  14   8  -6   43.03    8.82
  14  -8  -6   36.93    9.81
 -14  -8  -7   42.96    9.90
 -14  -8   7   35.13    8.26
 -14   8  -7   38.90    8.19
 -14   8   7   60.51   11.15
  14   8  -7   54.32   12.10
  14  -8  -7   60.62    9.99
  14  -8   7   63.13   10.75
 -14   8  -8   47.92    9.94
 -14   8   8   57.64    8.75
  14   8  -8   49.43    9.98
  14  -8  -8   40.60    8.32
  14  -8   8   67.56    8.89
 -14   8  -9   20.93    4.74
 -14   8   9   21.42    5.05
  14   8   9   18.87    8.36
  14   8  -9   16.17    6.05
  14  -8  -9   46.99    9.49
  14  -8   9    7.30    3.76
 -14   8 -10   13.68    4.14
 -14   8  10   31.40    8.16
  14   8  10   16.31    5.77
  14   8 -10   20.11    5.05
  14  -8 -10   10.70    4.60
  14  -8  10   19.63    5.70
 -14   8 -11   13.02    4.25
 -14   8  11   10.49    3.88
  14   8  11   24.32    6.77
  14   8 -11    7.97    3.19
  14  -8 -11   20.28    6.28
  14  -8  11   13.74    4.72
 -14  -9   0   82.26   13.22
 -14   9   0   86.77   11.97
  14  -9   0   90.96   12.45
 -14  -9  -1   10.35    3.08
 -14  -9   1    6.09    2.64
 -14   9  -1   16.06    4.98
 -14   9   1   13.28    5.24
  14  -9  -1   20.02    5.69
  14  -9   1    8.68    4.31
 -14  -9  -2   64.86   12.37
 -14  -9   2   62.73   11.58
 -14   9  -2   72.36   11.20
 -14   9   2   63.60   10.47
  14  -9  -2   42.84   11.81
  14  -9   2   70.62   10.18
 -14  -9  -3    4.30    2.45
 -14  -9   3    9.65    2.88
 -14   9  -3    7.14    3.09
 -14   9   3   11.20    4.77
  14  -9  -3   20.32    6.49
  14  -9   3    6.52    3.11
 -14  -9  -4    9.25    2.99
 -14  -9   4    3.75    1.57
 -14   9  -4    2.63    2.67
 -14   9   4   11.36    4.36
  14  -9  -4   11.62    5.25
  14  -9   4    8.68    4.07
 -14  -9  -5    7.57    3.33
 -14   9  -5    3.56    1.74
 -14   9   5   14.01    4.94
  14  -9  -5    5.22    3.12
  14  -9   5    5.13    2.08
 -14  -9   6    3.13    1.53
 -14   9  -6    4.32    2.47
 -14   9   6    3.47    1.57
  14   9   6   11.11    3.70
  14  -9  -6    9.83    3.62
  14  -9   6    7.05    3.48
 -14  -9   7    0.57    0.95
 -14   9  -7    2.21    1.48
 -14   9   7    6.12    2.12
  14  -9  -7   -0.66    2.89
  14  -9   7    7.25    2.86
 -14   9  -8    4.72    2.34
 -14   9   8    3.81    3.18
  14   9   8   13.31    5.79
  14   9  -8    3.72    1.60
  14  -9  -8    3.86    3.91
  14  -9   8    9.20    4.45
 -14   9  -9    4.23    1.76
 -14   9   9    6.28    2.99
  14   9   9    3.06    2.39
  14   9  -9    4.69    1.55
  14  -9  -9    3.15    3.10
  14  -9   9    8.18    3.18
 -14   9 -10    6.43    2.73
 -14   9  10    6.77    3.74
  14   9  10   11.50    4.96
  14   9 -10    1.61    1.47
  14  -9 -10    8.67    3.92
  14  -9  10    1.69    2.19
 -14 -10   0   16.30    4.46
 -14  10   0   15.37    5.61
  14 -10   0   16.69    5.45
 -14 -10   1    1.99    1.77
 -14  10  -1    4.98    2.84
  14 -10  -1   -0.79    2.69
  14 -10   1    3.52    2.93
 -14 -10   2   21.59    6.10
 -14  10  -2   34.48   10.98
 -14  10   2   42.18    9.06
  14  10   2   45.09    9.31
  14 -10  -2   22.50    6.27
  14 -10   2   19.86    5.59
 -14 -10   3    2.64    1.48
 -14  10  -3   -0.72    2.40
 -14  10   3   -2.03    2.82
  14  10   3    4.80    2.26
  14 -10  -3    5.30    2.45
  14 -10   3    5.92    3.80
 -14 -10   4   30.10    5.46
 -14  10  -4   43.99    6.09
 -14  10   4   47.06    7.95
  14  10   4   37.08    6.61
  14 -10   4   51.11    8.22
 -14  10  -5    5.94    3.27
 -14  10   5    4.77    2.76
  14  10   5   -2.00    3.02
  14 -10  -5    7.33    3.08
  14 -10   5    5.65    2.68
 -14  10  -6   36.91    8.03
 -14  10   6   45.31    9.63
  14  10   6   24.78    5.59
  14 -10  -6   25.33    5.56
  14 -10   6   43.21    7.86
 -14  10  -7    5.26    2.44
 -14  10   7   -1.14    2.39
  14  10   7    1.70    2.84
  14 -10  -7   15.90    5.04
  14 -10   7   11.67    4.37
 -14  10  -8   17.70    4.65
 -14  10   8    6.58    4.74
  14  10   8   18.49    6.97
  14 -10  -8   12.27    5.42
  14 -10   8   18.54    5.13
 -14  10  -9   12.61    4.02
 -14  10   9   21.66    6.93
  14  10   9    9.94    4.93
  14 -10  -9    8.58    3.85
  14 -10   9    4.61    2.66
 -14  11   0   23.29    7.02
  14  11   0   11.52    4.57
  14 -11   0    8.81    3.65
 -14  11  -1    5.88    2.87
 -14  11   1    3.28    2.35
  14  11  -1    0.78    2.37
  14  11   1   -1.32    2.44
  14 -11  -1    6.83    4.01
  14 -11   1    2.57    4.01
 -14  11  -2   24.21    5.35
 -14  11   2   20.38    5.69
  14  11  -2   16.24    5.39
  14  11   2   15.39    5.42
  14 -11  -2   12.49    4.87
  14 -11   2   12.00    3.95
 -14  11  -3   26.83    5.77
 -14  11   3   12.67    4.71
  14  11   3   13.04    5.36
  14  11  -3    4.67    2.54
  14 -11  -3   10.71    4.94
  14 -11   3   16.01    5.63
 -14  11  -4   14.53    5.52
 -14  11   4    4.45    3.39
  14  11   4   18.94    6.69
  14  11  -4    4.98    2.46
  14 -11  -4   10.32    4.73
  14 -11   4   14.26    5.18
 -14  11  -5   20.44    5.30
 -14  11   5   22.83    6.17
  14  11   5   20.43    6.17
  14  11  -5    6.01    2.36
  14 -11  -5   23.66    6.70
  14 -11   5   14.65    5.36
 -14  11  -6   10.86    3.77
 -14  11   6    4.33    1.79
  14  11   6    7.66    3.44
  14 -11  -6    5.63    3.34
  14 -11   6    5.95    3.16
 -14  11  -7    6.31    2.30
 -14  11   7    0.02    2.72
  14  11   7    3.14    1.88
  14 -11  -7   16.70    5.52
  14 -11   7    8.25    4.35
 -14  12   0    8.55    3.41
  14  12   0    8.62    3.52
  14 -12   0   -1.88    2.98
 -14  12  -1   18.66    6.39
 -14  12   1   29.00    6.53
  14  12  -1   32.47    7.54
  14  12   1   12.36    4.93
  14 -12  -1    5.97    3.31
  14 -12   1   17.11    5.23
 -14  12  -2   18.84    5.20
 -14  12   2   16.72    5.11
  14  12  -2   -1.42    2.26
  14  12   2   14.54    4.61
  14 -12  -2   12.19    5.28
  14 -12   2    9.39    3.61
 -14  12  -3   22.19    7.06
  14  12  -3   21.06    5.42
  14  12   3   31.32    7.88
  14 -12  -3   15.82    5.15
  14 -12   3   13.29    5.54
 -14  12  -4   14.50    4.23
 -14  12   4   17.13    6.06
  14  12  -4   18.67    5.53
  14  12   4   12.88    5.30
  14 -12  -4    5.31    3.58
  14 -12   4   13.35    5.97
 -14  12  -5   -1.36    2.16
 -14  12   5   -1.21    2.66
  14  12   5    6.40    3.11
  14 -12  -5    1.90    3.17
  14 -12   5    7.33    3.63
 -14  13   0   10.13    4.00
  14  13   0    6.48    3.77
  14 -13   0    4.75    3.93
 -14  13  -1    6.85    3.32
 -14  13   1   14.08    4.39
  14  13   1   12.24    4.71
  14  13  -1    0.62    2.26
  14 -13  -1    2.17    3.02
  14 -13   1    9.15    3.56
 -15   0   0    6.32    2.76
  15   0   0    4.63    2.44
 -15   0  -1   10.29    3.09
 -15   0   1    4.95    1.84
  15   0  -1    5.62    2.82
  15   0   1    3.07    2.23
 -15   0  -2    4.65    2.60
 -15   0   2    3.68    2.88
  15   0  -2    4.68    2.33
  15   0   2    3.55    1.92
 -15   0  -3  113.34   17.95
 -15   0   3   91.16   11.42
  15   0  -3  105.39    9.44
  15   0   3   47.07    8.90
 -15   0  -4    3.69    1.63
 -15   0   4    7.43    3.17
  15   0  -4    1.43    1.66
 -15   0  -5   72.26    9.99
 -15   0   5   65.76    9.25
  15   0  -5   61.87    6.36
 -15   0  -6   31.36    8.77
 -15   0   6   12.49    3.89
  15   0  -6   12.69    3.86
 -15   0  -7   22.57    6.32
 -15   0   7   18.09    4.91
  15   0  -7   21.23    5.83
 -15   0  -8    4.06    1.59
 -15   0   8   10.86    3.59
  15   0  -8    6.44    2.31
 -15   0   9   14.45    4.11
  15   0  -9    9.76    2.95
 -15   0 -10   12.84    4.63
 -15   0  10    4.58    1.88
  15   0 -10   14.48    5.52
 -15   0 -11   11.43    3.13
 -15   0  11    6.02    2.06
  15   0 -11    6.81    2.79
 -15   0 -12    5.99    2.57
 -15   0  12    2.75    1.77
  15   0 -12   12.57    4.06
 -15  -1   0   10.70    4.44
 -15   1   0    6.35    3.78
  15   1   0    7.01    2.84
  15  -1   0    4.35    2.36
 -15  -1  -1    3.43    1.81
 -15  -1   1   12.74    4.38
 -15   1  -1    5.37    3.17
 -15   1   1    7.63    3.63
  15   1  -1    6.18    2.59
  15   1   1    5.09    2.19
  15  -1  -1    5.01    2.54
  15  -1   1    5.20    2.56
 -15  -1  -2    2.07    1.11
 -15  -1   2    6.89    2.91
 -15   1  -2    2.77    1.12
 -15   1   2    8.35    2.42
  15   1  -2    2.07    1.69
  15   1   2    4.29    1.67
  15  -1  -2    8.02    3.19
  15  -1   2    6.67    2.65
 -15  -1  -3   26.77    5.33
 -15  -1   3   29.68    5.64
 -15   1  -3   24.13    4.90
 -15   1   3   21.82    5.94
  15   1  -3   12.93    4.20
  15  -1  -3    9.94    3.42
 -15  -1  -4    2.31    1.59
 -15   1  -4   12.60    3.79
 -15  -1   4    8.81    2.80
 -15   1   4   17.68    4.14
  15   1  -4    4.97    1.94
  15  -1  -4    4.78    2.02
  15  -1   4    5.58    1.61
 -15  -1  -5   13.08    3.81
 -15   1  -5    9.80    3.63
 -15  -1   5    6.12    1.98
 -15   1   5   15.99    5.12
  15   1  -5    9.82    3.48
  15  -1  -5    4.70    2.24
 -15   1  -6    2.80    2.25
 -15  -1   6    6.75    2.30
 -15   1   6    4.56    2.35
  15   1  -6    1.95    1.43
  15  -1  -6    3.89    2.21
 -15  -1  -7   24.60    7.28
 -15   1  -7   10.57    3.14
 -15  -1   7   11.53    3.80
 -15   1   7   17.18    5.85
  15   1  -7   17.63    5.03
  15  -1  -7    9.91    3.17
 -15  -1  -8    5.54    2.22
 -15   1  -8   10.06    3.62
 -15  -1   8    5.60    1.57
 -15   1   8    2.00    2.21
  15   1  -8    3.82    2.07
  15  -1  -8    4.86    2.54
 -15   1  -9    3.98    2.07
 -15  -1   9    0.99    1.24
 -15   1   9    1.69    1.80
  15   1  -9    6.96    3.25
  15  -1  -9    8.36    3.77
 -15  -1 -10   18.51    4.87
 -15   1 -10   16.04    5.67
 -15  -1  10   14.78    4.18
 -15   1  10   15.94    5.15
  15   1 -10   17.40    7.22
  15  -1 -10   26.78    7.84
 -15  -1 -11    2.68    1.74
 -15   1 -11   11.43    3.19
 -15  -1  11    1.27    1.26
 -15   1  11    2.43    1.74
  15   1 -11    7.26    3.58
  15  -1 -11   -0.87    2.51
 -15  -1 -12   37.55    8.52
 -15   1 -12   36.56    9.45
 -15   1  12   28.41    6.28
  15   1 -12   26.61    7.13
  15  -1 -12   24.64    7.00
 -15  -2   0    9.53    3.40
 -15   2   0    1.95    2.44
  15   2   0    3.28    1.76
  15  -2   0    5.27    2.19
 -15  -2  -1   21.29    5.54
 -15  -2   1    6.95    2.56
 -15   2  -1   21.19    5.81
 -15   2   1    6.86    3.11
  15   2  -1    6.46    2.73
  15   2   1    7.10    1.90
  15  -2  -1    5.55    2.16
  15  -2   1    8.84    2.83
 -15  -2  -2    0.79    2.94
 -15  -2   2    9.14    3.40
 -15   2  -2   12.70    3.89
 -15   2   2    9.83    5.00
  15   2  -2    4.31    1.90
  15  -2  -2    6.62    2.26
  15  -2   2    5.27    1.92
 -15  -2  -3   71.51   10.04
 -15  -2   3   58.29    8.74
 -15   2  -3   58.03    8.31
 -15   2   3   76.09    9.77
  15   2  -3   59.48    9.98
  15  -2  -3   52.20    5.42
  15  -2   3   48.17   10.38
 -15  -2  -4   16.86    4.08
 -15  -2   4    2.16    1.58
 -15   2   4    7.72    3.65
  15   2  -4   13.14    3.88
  15  -2  -4   16.17    5.33
  15  -2   4    3.77    2.31
 -15  -2  -5   92.28   11.05
 -15  -2   5   76.27   10.52
 -15   2  -5   84.16   10.36
 -15   2   5   90.99   10.31
  15   2  -5   58.83   10.77
  15  -2  -5   66.90    6.94
  15  -2   5   66.77   10.21
 -15  -2  -6   75.27    9.90
 -15   2  -6   67.75    9.31
 -15  -2   6   54.87    7.27
 -15   2   6   56.41    9.04
  15   2  -6   43.92   13.21
  15  -2  -6   67.98    6.53
 -15  -2  -7   20.76    4.94
 -15   2  -7   21.45    5.28
 -15  -2   7    9.65    3.15
 -15   2   7   13.57    4.77
  15   2  -7   18.95    5.02
  15  -2  -7   22.11    5.31
 -15  -2  -8   10.83    3.77
 -15   2  -8    2.19    1.98
 -15  -2   8    2.47    1.86
 -15   2   8    1.82    2.17
  15   2  -8    4.78    1.69
  15  -2  -8    3.24    3.32
 -15  -2  -9    4.95    1.63
 -15   2  -9   12.22    4.06
 -15   2   9    8.33    2.76
  15   2  -9   12.60    3.77
  15  -2  -9   13.20    6.04
 -15  -2 -10   23.19    6.32
 -15   2 -10   18.37    5.60
 -15  -2  10    5.38    1.68
 -15   2  10   15.57    5.11
  15   2 -10    5.47    2.50
  15  -2 -10    9.56    4.07
 -15  -2 -11    7.73    2.54
 -15   2 -11   12.45    3.41
 -15  -2  11    3.88    1.42
 -15   2  11    7.53    3.35
  15   2 -11    3.07    1.67
  15  -2 -11    2.07    1.96
 -15  -2 -12    3.50    1.84
 -15   2 -12    8.93    3.59
 -15   2  12    6.93    2.93
  15   2 -12   13.79    4.69
  15  -2 -12    5.48    3.00
 -15  -3   0   20.45    4.68
 -15   3   0   16.49    5.10
  15  -3   0    8.73    3.38
 -15  -3  -1  115.20   14.77
 -15  -3   1  133.16   17.50
 -15   3  -1  115.04   13.33
 -15   3   1  126.25   12.42
  15   3  -1   82.85    9.29
  15  -3  -1  122.84   10.79
  15  -3   1   86.78   14.73
 -15  -3  -2   33.26    6.22
 -15  -3   2   25.00    5.10
 -15   3  -2   20.22    4.03
 -15   3   2   29.04    6.34
  15   3  -2   17.12    3.91
  15  -3  -2   12.80    4.38
  15  -3   2   19.42    3.91
 -15  -3  -3   53.69    6.64
 -15  -3   3   51.29    7.68
 -15   3  -3   55.08    8.08
 -15   3   3   58.49    9.16
  15   3  -3   38.62   10.03
  15  -3  -3   40.03    7.26
  15  -3   3   38.68    8.55
 -15  -3  -4   24.30    6.20
 -15  -3   4   23.89    5.27
 -15   3  -4   12.00    4.19
 -15   3   4   29.93    6.07
  15   3  -4   15.29    5.26
  15  -3  -4   11.20    3.31
  15  -3   4   10.98    3.70
 -15  -3  -5   12.20    4.32
 -15  -3   5   12.69    3.89
 -15   3  -5    4.48    1.82
 -15   3   5    1.48    2.37
  15   3  -5    9.82    3.14
  15  -3  -5    9.17    3.89
  15  -3   5    8.03    2.69
 -15  -3  -6   12.15    4.65
 -15  -3   6    7.21    1.97
 -15   3  -6   17.27    5.35
 -15   3   6   11.51    3.98
  15   3  -6   13.02    3.97
  15  -3  -6   19.74    5.92
  15  -3   6    7.86    2.93
 -15   3  -7    6.25    2.90
 -15  -3   7    5.96    1.86
 -15   3   7    9.88    3.98
  15   3  -7    5.54    2.56
  15  -3  -7    1.58    2.52
  15  -3   7    3.05    2.06
 -15  -3  -8   25.68    6.33
 -15   3  -8   20.65    5.58
 -15  -3   8   19.24    5.17
 -15   3   8   20.12    5.74
  15   3  -8   17.43    5.01
 -15  -3  -9    5.50    2.66
 -15   3  -9    5.01    2.03
 -15  -3   9    9.41    3.12
 -15   3   9    5.15    2.47
  15   3  -9    4.73    1.86
  15  -3  -9   -2.39    2.70
 -15  -3 -10   25.88    7.42
 -15   3 -10   20.95    4.93
 -15  -3  10   18.97    5.62
 -15   3  10   27.00    6.51
  15   3 -10   30.12    6.16
  15  -3 -10   16.08    5.32
 -15  -3 -11    9.15    4.28
 -15   3 -11   19.07    5.18
 -15   3  11   11.47    4.60
  15   3 -11    7.54    3.06
  15  -3 -11    3.48    2.59
 -15  -3 -12   13.94    4.91
 -15   3 -12   13.08    4.35
 -15   3  12   10.65    4.39
  15   3 -12   13.76    4.77
  15  -3 -12    6.09    2.96
 -15  -4   0    7.69    2.28
 -15   4   0   12.98    4.98
  15  -4   0   16.18    5.28
 -15  -4  -1   17.60    3.49
 -15  -4   1    7.87    1.97
 -15   4  -1    9.15    3.44
 -15   4   1   18.59    4.01
  15  -4  -1    7.83    2.47
  15  -4   1   11.64    3.95
 -15  -4  -2   11.67    3.93
 -15  -4   2    6.46    2.03
 -15   4  -2    4.49    2.40
 -15   4   2   14.96    5.09
  15   4  -2    2.90    0.84
  15  -4  -2    9.64    3.63
  15  -4   2    2.66    2.13
 -15  -4  -3    5.37    2.43
 -15  -4   3    4.28    1.55
 -15   4  -3    1.05    1.27
 -15   4   3    7.31    3.81
  15   4  -3    3.01    1.07
  15  -4  -3    1.25    2.07
  15  -4   3    1.71    1.85
 -15  -4  -4   12.17    4.80
 -15  -4   4    4.45    1.84
 -15   4  -4   12.77    4.69
 -15   4   4   15.71    5.23
  15   4  -4    5.18    1.76
  15  -4  -4    8.33    3.81
  15  -4   4   10.03    3.44
 -15  -4  -5    6.47    2.08
 -15  -4   5   14.08    4.63
 -15   4  -5    4.54    1.89
 -15   4   5   24.37    6.83
  15   4  -5    6.94    2.07
  15  -4  -5   12.80    4.83
  15  -4   5   11.17    4.18
 -15  -4  -6   31.01    7.05
 -15  -4   6   26.59    6.47
 -15   4  -6   10.11    2.95
 -15   4   6   24.18    5.64
  15   4  -6   19.67    4.34
  15  -4  -6   20.20    5.21
  15  -4   6    6.31    2.43
 -15  -4  -7   33.85    7.57
 -15  -4   7   58.41    9.07
 -15   4  -7   44.58    9.22
 -15   4   7   47.28    8.98
  15   4  -7   32.64   11.27
  15  -4  -7   36.68    8.18
  15  -4   7   26.39    8.77
 -15  -4  -8    5.25    2.72
 -15  -4   8   10.85    2.73
 -15   4  -8    6.66    2.31
 -15   4   8    9.88    3.27
  15   4  -8    7.35    3.22
  15  -4  -8    5.02    3.47
  15  -4   8   -2.14    1.58
 -15  -4  -9   11.04    3.89
 -15  -4   9   14.99    4.92
 -15   4  -9   12.50    4.58
 -15   4   9   24.16    6.73
  15   4  -9   23.69    6.80
  15  -4  -9    8.75    3.50
 -15  -4 -10    4.46    1.76
 -15   4 -10    4.83    2.86
 -15   4  10    5.04    3.43
  15   4 -10   10.35    3.10
  15  -4 -10   15.39    5.19
 -15  -4 -11   36.82    8.74
 -15   4 -11   25.58    5.47
 -15   4  11   27.26    6.91
  15   4 -11   32.42    8.66
  15  -4 -11   30.63    7.09
 -15  -4 -12   -0.99    2.33
 -15   4 -12    5.25    2.02
 -15   4  12    3.82    1.48
  15   4 -12    7.96    3.27
  15  -4 -12    3.27    3.00
 -15  -5   0    4.30    1.56
 -15   5   0    4.09    2.48
  15  -5   0    7.97    3.97
 -15  -5  -1   46.23    9.08
 -15  -5   1   25.81    7.30
 -15   5  -1   18.83    5.14
 -15   5   1   23.39    6.49
  15  -5   1   11.45    3.92
 -15  -5  -2    7.54    3.06
 -15  -5   2    4.82    1.61
 -15   5  -2   18.41    5.27
 -15   5   2   13.63    5.03
  15  -5  -2   17.36    4.88
  15  -5   2    9.33    3.02
 -15  -5  -3   12.05    4.38
 -15  -5   3    3.78    1.52
 -15   5  -3    2.16    2.42
 -15   5   3    8.48    3.45
  15   5  -3    3.15    1.42
  15  -5  -3    2.48    1.78
  15  -5   3    0.93    2.07
 -15  -5  -4   26.48   10.62
 -15  -5   4   16.61    4.57
 -15   5  -4   20.52    6.11
 -15   5   4   14.38    4.79
  15   5  -4   16.56    4.92
  15  -5  -4    7.39    3.03
  15  -5   4   13.66    4.62
 -15  -5  -5    9.68    3.04
 -15  -5   5   12.12    4.01
 -15   5  -5    9.90    3.72
  15   5  -5   10.60    3.27
  15  -5  -5    1.59    2.78
  15  -5   5    7.59    3.39
 -15  -5  -6   54.51   10.26
 -15  -5   6   38.45    8.62
 -15   5  -6   49.01   10.78
 -15   5   6   42.03    8.10
  15   5  -6   31.62    8.55
  15  -5  -6   45.71    8.10
  15  -5   6   35.83    9.76
 -15  -5  -7   45.60    8.35
 -15   5  -7   45.96    8.98
 -15   5   7   27.37    7.20
  15   5  -7   26.36    6.98
  15  -5  -7   30.54    8.25
  15  -5   7   24.14    7.53
 -15  -5   8   27.85    4.17
 -15   5  -8   61.30    8.96
 -15   5   8   42.55    8.26
  15   5  -8   34.34    7.67
  15  -5  -8   22.57    6.24
  15  -5   8   36.90    5.17
 -15  -5  -9   15.30    4.08
 -15  -5   9   17.66    5.91
 -15   5  -9   15.57    4.91
 -15   5   9   15.02    5.33
  15   5  -9   19.13    5.58
  15  -5  -9   15.27    4.99
  15  -5   9    6.55    3.01
 -15  -5 -10    3.30    2.36
 -15   5 -10   10.36    3.02
 -15   5  10   18.20    5.54
  15   5 -10   10.64    3.41
  15  -5 -10   10.02    3.47
 -15  -5 -11    5.97    2.64
 -15   5 -11    6.05    2.63
 -15   5  11    9.25    4.44
  15   5 -11    6.92    2.92
  15  -5 -11    4.82    2.96
 -15  -6   0   37.51    4.44
 -15   6   0   29.83    7.92
  15  -6   0   17.88    5.50
 -15  -6  -1    9.38    3.44
 -15  -6   1    6.13    1.92
 -15   6  -1    2.96    2.48
 -15   6   1    8.50    3.27
  15  -6  -1    3.82    2.40
  15  -6   1    2.82    3.34
 -15  -6  -2   15.63    4.77
 -15  -6   2    6.17    2.93
 -15   6  -2   16.87    4.77
 -15   6   2   14.33    4.27
  15  -6  -2   10.42    4.59
  15  -6   2    5.96    3.41
 -15  -6  -3   10.39    4.00
 -15  -6   3   10.52    4.01
 -15   6  -3   11.33    3.59
 -15   6   3    9.43    4.71
  15  -6  -3    5.17    1.95
  15  -6   3   13.28    4.57
 -15  -6  -4    6.32    2.55
 -15  -6   4    6.70    2.44
 -15   6  -4    4.50    2.26
 -15   6   4    4.83    2.02
  15  -6  -4    4.90    2.79
  15  -6   4    6.44    3.94
 -15  -6  -5    7.69    3.18
 -15  -6   5    5.47    1.60
 -15   6  -5    8.31    2.98
 -15   6   5    2.46    1.22
  15   6  -5    5.35    2.21
  15  -6  -5   11.56    4.88
 -15  -6  -6   -0.29    2.60
 -15  -6   6    8.84    2.47
 -15   6  -6    5.05    2.28
 -15   6   6    5.83    2.96
  15   6  -6    3.56    2.05
  15  -6  -6    5.90    2.83
 -15  -6  -7    2.33    1.60
 -15  -6   7    2.18    1.33
 -15   6  -7    7.88    2.29
 -15   6   7    9.93    3.15
  15   6  -7    7.26    2.17
  15  -6  -7    0.35    2.87
  15  -6   7   11.46    4.05
 -15  -6  -8    8.53    3.42
 -15  -6   8   12.80    4.29
 -15   6  -8   31.43    4.92
 -15   6   8   22.45    7.26
  15   6  -8   16.76    4.58
  15  -6  -8   22.27    6.64
  15  -6   8   16.85    4.95
 -15  -6  -9   16.72    5.24
 -15   6  -9    7.91    2.10
 -15   6   9    7.27    3.38
  15   6  -9    7.87    3.01
  15  -6  -9   14.14    5.05
  15  -6   9   18.47    5.58
 -15  -6 -10   24.29    6.13
 -15   6 -10   18.47    4.60
 -15   6  10    8.54    4.21
  15   6 -10    8.76    4.64
  15  -6 -10   11.39    4.06
 -15  -6 -11    9.30    3.39
 -15   6 -11   14.73    4.75
 -15   6  11   24.57    6.65
  15   6 -11    9.53    2.66
  15  -6 -11   14.73    5.13
 -15  -7   0    5.51    2.14
 -15   7   0    7.10    3.81
  15  -7   0   12.02    4.48
 -15  -7  -1   32.38    8.26
 -15  -7   1   19.91    4.74
 -15   7   1   28.45    6.69
  15  -7  -1   20.34    5.49
  15  -7   1   22.27    5.40
 -15  -7  -2   57.21    9.61
 -15  -7   2   46.05    7.56
 -15   7  -2   48.20    8.25
 -15   7   2   45.16    8.39
  15  -7  -2   47.03    9.15
  15  -7   2   22.19    5.19
 -15  -7  -3   18.92    5.26
 -15  -7   3    9.30    3.46
 -15   7  -3   15.66    4.27
 -15   7   3    3.18    2.75
  15  -7  -3   15.88    5.10
  15  -7   3   12.85    4.44
 -15  -7  -4   13.44    4.17
 -15  -7   4   32.22    7.59
 -15   7  -4   21.90    5.99
 -15   7   4   31.01    8.27
  15  -7   4   19.27    5.35
 -15  -7  -5    1.72    1.51
 -15  -7   5    3.19    1.83
 -15   7  -5   -0.42    2.33
 -15   7   5    5.25    2.67
  15  -7  -5    6.24    4.05
  15  -7   5    2.74    2.97
 -15  -7  -6   19.65    5.41
 -15  -7   6   18.15    5.07
 -15   7  -6   18.92    5.52
 -15   7   6   22.29    6.41
  15  -7  -6   15.49    5.32
  15  -7   6   10.12    3.56
 -15  -7  -7    7.20    1.96
 -15  -7   7    4.35    2.01
 -15   7  -7    2.24    1.49
 -15   7   7   -1.76    2.57
  15   7  -7   -0.80    1.56
  15  -7  -7   13.45    5.25
  15  -7   7    3.85    4.03
 -15  -7  -8    6.90    2.36
 -15  -7   8    5.68    1.77
 -15   7  -8    7.34    2.62
 -15   7   8    5.60    1.93
  15   7  -8    9.62    2.80
  15  -7  -8    0.68    2.99
  15  -7   8    4.49    2.37
 -15  -7  -9    6.68    3.71
 -15   7  -9    4.73    1.90
 -15   7   9    4.27    1.95
  15   7  -9    2.44    1.89
  15  -7  -9   -1.14    2.70
  15  -7   9    8.05    2.99
 -15   7 -10    4.45    1.43
 -15   7  10    4.48    3.13
  15   7 -10    5.93    2.35
  15  -7 -10    4.22    2.08
  15  -7  10    1.93    2.11
 -15  -8   0   67.29   12.38
 -15   8   0   80.99   12.89
  15  -8   0   33.47   12.16
 -15  -8  -1   26.79    7.78
 -15  -8   1   14.36    4.54
 -15   8  -1   16.89    5.44
 -15   8   1   35.18    7.08
  15  -8  -1   11.84    4.42
  15  -8   1   17.31    5.43
 -15  -8  -2   38.29    7.16
 -15  -8   2   57.20   11.16
 -15   8  -2   63.66   10.60
 -15   8   2   49.12    9.81
  15  -8  -2   43.92    9.68
  15  -8   2   54.95    9.75
 -15  -8  -3   11.82    3.92
 -15  -8   3   17.21    5.22
 -15   8  -3   11.87    4.20
 -15   8   3   15.51    5.21
  15  -8  -3    8.06    3.41
  15  -8   3    5.89    3.63
 -15  -8  -4   11.34    3.54
 -15  -8   4    4.90    1.68
 -15   8  -4   14.37    5.15
 -15   8   4    9.17    3.96
  15  -8  -4    9.67    3.55
  15  -8   4    7.15    3.52
 -15  -8  -5    7.96    3.21
 -15  -8   5    8.35    3.19
 -15   8  -5   14.96    5.06
 -15   8   5   10.50    4.57
  15  -8  -5    7.93    2.86
 -15  -8  -6   25.26    5.73
 -15  -8   6   10.17    4.53
 -15   8  -6   10.11    3.70
 -15   8   6   12.99    4.51
  15  -8  -6   12.14    4.53
  15  -8   6    6.29    2.79
 -15  -8  -7   12.62    3.75
 -15  -8   7   10.74    3.24
 -15   8  -7   13.96    4.91
 -15   8   7    7.85    4.33
  15  -8  -7    4.95    4.31
  15  -8   7    5.44    2.56
 -15  -8  -8    6.54    2.93
 -15   8  -8    8.53    2.99
 -15   8   8    7.61    3.40
  15   8  -8   11.90    3.90
  15  -8  -8   11.90    4.99
  15  -8   8    7.15    3.01
 -15   8  -9    3.72    2.26
 -15   8   9    5.17    1.84
  15   8   9    4.18    2.75
  15   8  -9    1.09    0.84
  15  -8  -9    4.83    3.94
  15  -8   9    6.64    3.57
 -15  -9   0   -1.78    2.17
 -15   9   0    0.40    2.35
  15  -9   0    3.48    2.92
 -15  -9   1    7.12    2.08
 -15  -9  -1    3.85    2.26
 -15   9  -1    7.91    2.65
 -15   9   1    6.39    2.67
  15  -9  -1    9.87    4.63
  15  -9   1    2.26    2.77
 -15  -9  -2    5.54    3.52
 -15  -9   2    9.24    3.05
 -15   9  -2   13.40    5.92
 -15   9   2   13.30    4.43
  15  -9  -2    7.45    2.85
  15  -9   2    7.51    3.73
 -15  -9  -3   10.18    4.26
 -15  -9   3    5.01    1.85
 -15   9  -3    6.71    2.53
 -15   9   3   14.66    5.30
  15  -9  -3   14.49    5.22
  15  -9   3   23.70    6.87
 -15  -9  -4    0.09    2.91
 -15  -9   4    4.18    1.89
 -15   9  -4    2.55    2.38
 -15   9   4    4.49    2.09
  15  -9  -4    7.83    3.01
  15  -9   4    2.41    1.64
 -15  -9  -5   26.93    6.37
 -15  -9   5   21.09    5.75
 -15   9  -5   25.19    6.95
 -15   9   5   24.95    5.07
  15  -9  -5   10.39    3.87
  15  -9   5   26.77    5.81
 -15  -9   6    8.23    3.13
 -15   9  -6   15.61    5.30
 -15   9   6   10.58    4.34
  15  -9  -6   10.10    3.93
  15  -9   6   12.15    4.68
 -15   9  -7   29.97    8.29
 -15   9   7   31.89    8.43
  15   9   7   11.23    4.33
  15  -9   7   17.69    4.72
 -15   9  -8    9.29    3.50
 -15   9   8   15.87    5.17
  15   9   8    7.45    3.71
  15  -9  -8   14.84    5.82
  15  -9   8    3.42    2.37
 -15 -10   0   58.70   11.36
 -15  10   0   77.43   14.14
  15 -10   0   62.22   10.08
 -15 -10  -1    7.00    2.65
 -15 -10   1    5.13    2.56
 -15  10  -1    3.40    1.82
 -15  10   1   -0.41    2.73
  15 -10  -1    0.44    2.81
  15 -10   1    4.93    3.10
 -15 -10   2   39.73    9.50
 -15  10  -2   67.64   12.28
 -15  10   2   57.99    9.97
 -15 -10   3    6.68    2.93
 -15  10  -3    5.19    2.92
 -15  10   3    7.98    3.06
  15  10   3    6.69    3.34
  15 -10  -3    4.93    2.06
  15 -10   3    6.20    3.99
 -15 -10   4   23.43    6.14
 -15  10  -4   39.58    8.49
 -15  10   4   36.34    7.93
  15  10   4   26.16    6.70
  15 -10  -4   20.16    5.80
  15 -10   4   23.26    5.73
 -15 -10   5    3.60    1.66
 -15  10  -5   10.05    4.36
 -15  10   5   -3.05    2.57
  15  10   5    6.30    4.28
  15 -10  -5    4.60    2.99
  15 -10   5    0.66    2.49
 -15  10  -6   10.94    4.23
 -15  10   6    9.34    5.21
  15  10   6    5.57    2.89
  15 -10  -6   12.17    5.40
  15 -10   6    6.50    3.64
 -15  10  -7    1.89    1.95
 -15  10   7    1.46    2.36
  15  10   7    3.75    3.18
  15 -10  -7    4.70    2.26
  15 -10   7    5.54    3.48
  15  11   0    3.57    2.48
  15 -11   0    2.62    2.75
 -15  11  -1    3.32    2.34
 -15  11   1    5.25    3.94
  15  11  -1   14.38    5.14
  15  11   1    1.08    2.66
  15 -11  -1    7.58    2.88
  15 -11   1   -0.61    2.87
 -15  11  -2    3.83    2.81
 -15  11   2    1.45    2.88
  15  11  -2   11.70    5.00
  15  11   2    5.26    3.03
  15 -11  -2    6.05    3.00
  15 -11   2    6.01    3.29
 -15  11  -3    6.84    3.19
 -15  11   3    6.55    2.81
  15  11   3    7.19    3.53
  15  11  -3   -2.36    2.17
  15 -11  -3    6.09    3.46
  15 -11   3    4.55    3.80
 -15  11  -4   15.75    5.52
 -15  11   4   21.65    6.78
  15  11  -4    6.63    3.28
  15  11   4    3.67    2.06
  15 -11  -4    6.57    3.44
  15 -11   4    1.95    2.52
 -16   0   0  119.99   14.71
  16   0   0  108.19    8.33
 -16   0  -1  187.80   31.42
 -16   0   1  170.33   19.28
  16   0  -1  164.54   11.85
  16   0   1  166.74   11.76
 -16   0  -2   18.18    5.56
 -16   0   2   39.97    7.02
  16   0  -2   24.00    6.39
 -16   0  -3   60.94    8.90
 -16   0   3   62.40    8.58
  16   0  -3   60.81    5.60
 -16   0  -4   25.70    6.22
 -16   0   4   38.92    8.79
  16   0  -4   14.13    4.44
 -16   0  -5   31.27    6.76
 -16   0   5   31.76    7.76
  16   0  -5   19.09    4.52
 -16   0  -6    4.36    1.42
 -16   0   6   -1.47    2.23
  16   0  -6    6.66    2.39
 -16   0  -7    6.43    3.15
 -16   0   7    6.54    2.87
  16   0  -7    5.44    2.42
 -16   0  -8    3.24    1.85
 -16   0   8   -1.06    1.86
  16   0  -8    6.80    2.41
 -16   0  -9   27.11    6.31
 -16   0   9   16.54    5.13
  16   0  -9   24.16    4.90
 -16   0 -10   -0.04    2.45
 -16   0  10    2.99    1.45
  16   0 -10    5.11    2.07
 -16   0 -11   28.50    7.75
 -16   0  11   23.43    7.11
  16   0 -11   22.17    9.39
 -16  -1   0    7.61    2.32
 -16   1   0   -0.91    2.29
  16   1   0   10.70    3.41
  16  -1   0    2.75    1.72
 -16  -1  -1    7.56    3.11
 -16  -1   1    4.66    1.85
 -16   1  -1    1.72    1.57
 -16   1   1    5.06    1.43
  16   1  -1    0.88    1.42
  16  -1   1    5.33    2.45
 -16  -1  -2   27.66    7.33
 -16  -1   2   20.28    5.31
 -16   1  -2   14.70    5.36
 -16   1   2   22.67    6.47
  16   1  -2   14.25    4.61
  16  -1  -2   15.39    4.84
 -16  -1  -3   33.12    4.95
 -16   1  -3   15.61    5.19
 -16  -1   3   17.05    5.42
 -16   1   3   28.72    7.51
  16   1  -3   10.98    4.22
  16  -1  -3   22.97    6.42
 -16  -1  -4    2.49    1.65
 -16   1  -4    2.47    1.19
 -16  -1   4    6.99    2.67
 -16   1   4    1.58    2.37
  16   1  -4    3.35    2.31
  16  -1  -4   -0.53    2.03
 -16  -1  -5   17.48    5.14
 -16   1  -5   20.70    4.53
 -16  -1   5   13.63    4.68
 -16   1   5    6.37    3.04
  16   1  -5   17.32    5.36
  16  -1  -5   11.30    3.82
 -16   1  -6   18.32    5.45
 -16  -1   6   15.92    4.31
 -16   1   6   13.66    4.47
  16   1  -6   19.76    5.17
  16  -1  -6    6.31    2.35
 -16  -1  -7   22.32    5.96
 -16   1  -7    8.02    2.53
 -16  -1   7   19.69    5.83
 -16   1   7    6.89    2.58
  16   1  -7   10.94    3.42
  16  -1  -7   13.32    4.02
 -16  -1  -8   39.64    7.20
 -16   1  -8   40.19    8.22
 -16  -1   8   33.71    5.83
 -16   1   8   36.88    5.70
  16   1  -8   29.12    6.51
  16  -1  -8   36.33    8.47
 -16  -1  -9   13.76    4.14
 -16   1  -9   20.13    4.51
 -16  -1   9   15.86    4.15
 -16   1   9   23.03    5.03
  16   1  -9   15.59    4.25
  16  -1  -9    6.58    2.85
 -16  -1 -10   27.66    7.80
 -16   1 -10   23.83    6.92
 -16  -1  10   14.01    4.66
 -16   1  10   10.61    3.27
  16   1 -10   10.19    3.35
  16  -1 -10   17.35    5.94
 -16  -1 -11    5.25    1.93
 -16   1 -11    9.59    3.10
 -16  -1  11    6.21    2.46
 -16   1  11    6.24    2.86
  16   1 -11    6.19    2.43
  16  -1 -11   10.07    3.70
 -16  -2   0   30.52    8.21
 -16   2   0   18.09    4.79
 -16  -2  -1  124.25   13.45
 -16  -2   1  124.48   14.84
 -16   2  -1  131.24   17.34
 -16   2   1  117.37   13.97
  16  -2  -1  109.60    8.66
  16  -2   1  108.92    8.46
 -16  -2  -2    7.39    2.33
 -16  -2   2   17.73    5.27
 -16   2  -2   22.68    6.22
 -16   2   2   11.29    4.12
  16   2  -2   19.60    5.29
  16  -2  -2   13.34    4.22
  16  -2   2    9.34    3.05
 -16  -2  -3  111.44   17.48
 -16  -2   3   90.83   13.64
 -16   2  -3  114.88   17.73
  16   2  -3   77.48   14.93
  16  -2  -3  100.37   15.35
  16  -2   3   72.75   12.89
 -16  -2  -4    5.48    1.62
 -16   2  -4   11.15    3.83
 -16  -2   4    3.73    1.55
 -16   2   4    3.82    2.64
  16   2  -4   -1.32    1.56
  16  -2  -4    5.22    2.78
  16  -2   4    3.01    2.18
 -16  -2  -5   42.02    7.50
 -16  -2   5   46.54    6.67
 -16   2  -5   56.49    9.92
 -16   2   5   56.11    9.00
  16   2  -5   30.09    9.00
  16  -2  -5   33.65    7.01
 -16  -2  -6   -1.65    2.30
 -16   2  -6    5.42    2.03
 -16  -2   6    1.65    1.50
 -16   2   6    4.18    2.31
  16  -2  -6    1.62    2.11
 -16  -2  -7   11.16    4.11
 -16   2  -7    1.04    1.50
 -16  -2   7   15.56    4.78
 -16   2   7   19.15    5.92
  16   2  -7    9.08    2.68
  16  -2  -7    7.05    3.04
 -16  -2  -8   -1.07    2.50
 -16   2  -8   -0.71    2.26
 -16  -2   8    4.14    3.07
 -16   2   8    7.17    2.90
  16   2  -8    4.13    1.67
  16  -2  -8    6.62    2.33
 -16  -2  -9    7.65    2.68
 -16   2  -9    5.32    2.50
 -16  -2   9    2.42    1.27
 -16   2   9    2.60    1.95
  16   2  -9    4.67    2.31
  16  -2  -9   12.07    4.30
 -16  -2 -10   24.80    6.09
 -16   2 -10   19.16    5.56
 -16  -2  10   13.99    4.94
 -16   2  10   16.85    4.56
  16   2 -10   18.55    5.74
  16  -2 -10   20.63    5.37
 -16  -2 -11    2.59    2.38
 -16   2 -11    4.16    1.56
 -16   2  11    4.75    2.57
  16   2 -11   12.71    3.94
  16  -2 -11   11.61    3.99
 -16  -3   0   71.19   12.33
 -16   3   0   61.94   11.84
  16  -3   0   48.72    6.78
 -16  -3  -1    6.16    2.31
 -16  -3   1   13.55    4.86
 -16   3  -1    7.55    3.91
 -16   3   1   12.40    4.57
  16  -3  -1    5.59    2.07
 -16  -3  -2   47.44    7.86
 -16  -3   2   37.73    8.32
 -16   3  -2   52.09    7.78
 -16   3   2   27.45    6.08
  16  -3  -2   17.22    5.45
  16  -3   2   20.15    6.15
 -16  -3  -3    7.36    2.68
 -16  -3   3   12.76    3.77
 -16   3  -3   38.30    7.94
 -16   3   3   25.75    6.28
  16   3  -3    5.04    1.06
  16  -3  -3    9.52    3.29
  16  -3   3   11.19    3.50
 -16  -3  -4   27.60    7.68
 -16  -3   4   36.52    8.69
 -16   3  -4   24.26    5.18
 -16   3   4   28.42    7.33
  16   3  -4   23.31    5.51
  16  -3  -4   18.36    5.49
  16  -3   4   14.67    4.20
 -16  -3  -5    0.56    3.02
 -16  -3   5    2.22    2.00
 -16   3  -5    2.21    1.84
 -16   3   5    8.62    3.39
  16   3  -5    4.23    1.75
  16  -3  -5   -1.45    2.24
  16  -3   5    6.43    2.56
 -16  -3  -6   27.30    6.66
 -16  -3   6   36.72    8.25
 -16   3  -6   27.62    7.38
 -16   3   6   29.57    9.13
  16   3  -6   12.62    4.17
  16  -3  -6   33.23    8.26
 -16  -3  -7    1.13    1.88
 -16  -3   7    1.78    1.61
 -16   3  -7    3.31    1.77
 -16   3   7    6.94    2.51
  16   3  -7    1.12    1.40
  16  -3  -7    0.89    2.37
 -16  -3  -8   34.12    7.74
 -16  -3   8   43.41    7.83
 -16   3  -8   36.89    7.36
 -16   3   8   37.04    6.86
  16   3  -8   23.46    6.11
  16  -3  -8   39.48    8.22
 -16  -3  -9    2.72    1.46
 -16   3  -9    3.54    1.67
 -16  -3   9    4.49    2.39
 -16   3   9    2.58    2.12
  16   3  -9    4.89    2.20
  16  -3  -9    2.00    2.29
 -16  -3 -10   13.26    5.16
 -16   3 -10   18.66    5.26
 -16  -3  10   18.72    4.79
 -16   3  10   17.83    5.29
  16   3 -10   10.35    3.46
  16  -3 -10   18.30    5.08
 -16  -4   0    5.72    2.23
 -16   4   0    0.30    2.68
  16  -4   0    5.78    2.15
 -16  -4   1    9.21    3.01
 -16   4  -1   11.35    4.16
 -16   4   1    3.82    2.55
  16  -4  -1    4.72    2.52
  16  -4   1    6.64    3.25
 -16  -4  -2    0.28    2.27
 -16  -4   2    6.44    2.38
 -16   4  -2    3.32    2.43
 -16   4   2   15.12    4.93
  16  -4  -2    3.53    2.30
  16  -4   2    8.87    3.74
 -16  -4  -3   20.29    4.92
 -16  -4   3   15.28    4.90
 -16   4   3   15.61    4.80
  16  -4  -3   14.58    4.86
  16  -4   3   14.21    5.32
 -16  -4  -4   11.74    4.18
 -16  -4   4    5.36    1.91
 -16   4  -4    9.54    2.64
 -16   4   4   12.45    4.49
  16   4  -4   14.53    3.97
  16  -4  -4    5.93    3.49
  16  -4   4   11.52    3.85
 -16  -4  -5   13.54    5.46
 -16  -4   5   46.99    8.82
 -16   4  -5   39.11    9.08
 -16   4   5   36.94    7.98
  16   4  -5   32.13    7.91
  16  -4  -5   38.52    6.88
  16  -4   5   25.37    6.15
 -16  -4   6    3.36    2.07
 -16   4  -6   11.55    3.52
 -16   4   6   11.75    4.46
  16   4  -6   13.99    4.12
  16  -4  -6    4.10    2.75
  16  -4   6    2.97    1.91
 -16  -4  -7   17.57    5.00
 -16  -4   7   14.96    4.16
 -16   4  -7    8.76    3.36
 -16   4   7    4.45    2.71
  16   4  -7   13.54    4.17
  16  -4  -7   17.46    5.36
 -16  -4   8    3.22    1.36
 -16   4  -8    3.22    2.93
 -16   4   8    3.99    3.32
  16   4  -8   -0.07    1.22
  16  -4  -8    2.26    3.42
 -16  -4   9   18.75    5.27
 -16   4   9   20.61    5.43
  16   4  -9    8.77    2.50
  16  -4  -9   18.76    5.18
 -16  -4 -10   -1.63    2.31
 -16   4 -10    4.90    2.11
 -16   4  10    3.77    2.24
  16   4 -10    8.79    2.87
  16  -4 -10   -0.10    2.53
 -16  -5   0  129.26   20.28
 -16   5   0  157.48   28.97
  16  -5   0  158.36   27.39
 -16  -5  -1   13.69    4.72
 -16  -5   1   16.72    5.40
 -16   5  -1   15.82    5.27
 -16   5   1   22.66    6.48
  16  -5   1   10.14    4.20
 -16  -5  -2  136.91   36.76
 -16  -5   2  121.36   21.92
 -16   5  -2  146.07   35.96
 -16   5   2  147.54   36.31
  16  -5  -2   68.78   22.12
  16  -5   2   89.02   23.65
 -16  -5  -3   19.91    6.15
 -16  -5   3   21.25    6.39
 -16   5  -3   22.73    6.60
 -16   5   3   24.25    6.62
  16  -5  -3   12.84    4.34
 -16  -5  -4   49.82    9.68
 -16  -5   4   33.43    9.33
 -16   5  -4   35.54    7.68
 -16   5   4   41.05    7.36
  16  -5  -4   31.83    7.95
  16  -5   4   15.60    4.73
 -16  -5  -5    9.07    2.82
 -16  -5   5    8.75    3.09
 -16   5  -5   28.60    7.46
 -16   5   5   19.94    5.83
  16  -5  -5   10.10    4.27
 -16  -5  -6   14.26    5.38
 -16  -5   6   13.55    4.01
 -16   5   6   15.92    5.43
  16   5  -6   10.24    3.37
  16  -5  -6    3.39    2.79
  16  -5   6    7.87    2.78
 -16  -5  -7   13.67    4.78
 -16  -5   7    4.43    2.45
 -16   5  -7    5.66    2.42
 -16   5   7    3.37    2.88
  16   5  -7    3.32    2.03
  16  -5  -7    3.39    2.79
  16  -5   7    6.70    2.27
 -16  -5  -8   -3.25    2.79
 -16  -5   8    5.35    1.96
 -16   5  -8    4.56    2.15
 -16   5   8    7.32    3.77
  16   5  -8   -0.44    1.94
  16  -5  -8    1.15    2.66
 -16  -5  -9    7.66    2.93
 -16   5  -9    4.83    1.60
 -16   5   9    7.78    3.86
  16   5  -9    5.33    1.92
  16  -5  -9   12.29    4.84
 -16  -6   0    3.97    1.63
 -16   6   0    6.96    3.07
  16  -6   0    3.49    3.91
 -16  -6  -1   28.06    7.60
 -16  -6   1   19.25    5.05
 -16   6  -1   27.09    6.76
 -16   6   1   36.75    7.69
  16  -6  -1   15.72    4.89
  16  -6   1   15.32    5.25
 -16  -6  -2   10.71    4.49
 -16  -6   2   15.33    5.86
 -16   6  -2    4.84    2.40
 -16   6   2    3.88    3.96
  16  -6  -2    5.84    2.68
  16  -6   2    1.90    2.48
 -16  -6  -3   17.32    4.98
 -16  -6   3    7.49    1.60
 -16   6  -3    3.15    2.52
 -16   6   3   14.65    5.19
  16  -6  -3    7.65    2.24
  16  -6   3   10.08    4.18
 -16  -6  -4   31.61    5.38
 -16  -6   4   24.34    7.38
 -16   6  -4   32.04    6.69
 -16   6   4   32.63    6.28
  16  -6  -4   23.72    7.28
  16  -6   4   20.21    5.90
 -16  -6  -5    6.75    2.80
 -16  -6   5    5.39    2.84
 -16   6  -5   12.54    4.10
 -16   6   5    6.13    2.93
  16  -6  -5    7.28    3.58
  16  -6   5    2.52    2.12
 -16  -6  -6   25.24    6.34
 -16  -6   6   29.27    6.79
 -16   6  -6   14.98    4.54
 -16   6   6   20.33    4.96
  16  -6  -6   11.18    4.73
  16  -6   6    9.59    3.73
 -16  -6  -7    8.81    3.92
 -16  -6   7   16.65    8.74
 -16   6  -7    2.61    1.60
 -16   6   7    1.13    2.39
  16  -6  -7    6.46    4.17
  16  -6   7    5.18    2.61
 -16  -6  -8    2.46    1.69
 -16  -6   8    2.38    1.51
 -16   6  -8    7.92    3.53
 -16   6   8   11.19    4.39
  16   6  -8    9.15    3.97
  16  -6  -8    3.63    2.70
  16  -6   8    2.03    2.16
 -16   6  -9   18.99    5.49
 -16   6   9   15.34    5.43
  16   6  -9   14.09    5.44
  16  -6  -9   15.80    5.14
 -16  -7   0   44.51    8.73
 -16   7   0   49.72    7.64
  16  -7   0   22.52    6.32
 -16  -7   1   11.17    3.55
 -16  -7  -1   35.30    5.04
 -16   7   1   29.99    5.69
  16  -7  -1   40.87    6.52
  16  -7   1   21.80    7.15
 -16  -7  -2   64.35   10.75
 -16  -7   2   54.74   11.04
 -16   7  -2   44.21    8.50
 -16   7   2   72.66    9.35
  16  -7  -2   39.58   10.02
  16  -7   2   44.13    7.79
 -16  -7  -3   29.59    4.79
 -16  -7   3   35.18    6.23
 -16   7  -3   33.45    5.41
 -16   7   3   36.60    5.50
  16  -7  -3    8.81    3.38
  16  -7   3    8.99    3.18
 -16  -7   4    4.44    2.06
 -16   7  -4    6.24    3.79
 -16   7   4    6.47    2.82
  16  -7  -4    6.70    3.82
  16  -7   4    2.27    2.21
 -16  -7  -5   32.11    7.18
 -16  -7   5   27.24    7.70
 -16   7  -5   29.82    6.89
 -16   7   5   34.23    6.94
  16  -7  -5    6.69    3.33
  16  -7   5   33.28    6.57
 -16  -7  -6    2.19    1.61
 -16  -7   6   -0.06    1.85
 -16   7  -6   11.92    3.94
 -16   7   6    1.46    2.88
  16  -7  -6    2.69    2.89
  16  -7   6    3.72    2.05
 -16  -7  -7   14.33    6.75
 -16  -7   7   17.16    5.39
 -16   7  -7   18.06    4.69
 -16   7   7   29.25    7.08
  16  -7  -7    8.55    4.51
  16  -7   7   11.53    4.62
 -16  -7  -8   12.54    6.01
 -16   7  -8   15.44    4.30
 -16   7   8    6.59    4.69
  16  -7  -8    3.37    2.85
  16  -7   8    8.01    3.50
 -16  -8   0    6.82    2.95
 -16   8   0    2.39    2.75
  16  -8   0    1.08    2.52
 -16  -8  -1    4.14    1.70
 -16  -8   1    2.07    1.73
 -16   8  -1    2.35    2.60
 -16   8   1    0.44    2.76
  16  -8  -1    3.72    2.23
  16  -8   1    8.43    3.77
 -16  -8  -2    7.85    3.17
 -16  -8   2    6.51    2.77
 -16   8  -2    9.39    4.03
 -16   8   2   20.48    5.45
  16  -8  -2    5.27    2.74
  16  -8   2    5.21    2.72
 -16  -8  -3    4.80    2.57
 -16  -8   3    4.20    1.97
 -16   8  -3    5.28    2.98
 -16   8   3    5.82    2.12
  16  -8  -3    8.35    2.38
  16  -8   3    3.69    2.53
 -16  -8  -4   12.27    3.82
 -16  -8   4    4.05    1.31
 -16   8  -4   -0.22    2.54
 -16   8   4    4.48    2.11
  16  -8  -4   -1.45    2.64
  16  -8   4    3.17    2.36
 -16  -8  -5    5.46    2.74
 -16  -8   5    3.38    2.52
 -16   8  -5    6.42    3.68
 -16   8   5   13.09    4.92
  16  -8  -5   14.54    5.29
  16  -8   5    1.65    2.11
 -16  -8  -6    8.47    5.11
 -16  -8   6    6.78    2.10
 -16   8  -6   15.06    5.15
 -16   8   6   18.78    6.73
  16  -8  -6   10.55    4.53
  16  -8   6    4.09    2.39
 -16  -8  -7   15.84    5.48
 -16   8  -7   14.71    4.31
 -16   8   7    7.16    3.57
  16  -8  -7    5.29    1.94
  16  -8   7   12.64    5.15
 -16  -9   0    5.76    2.70
  16  -9   0   22.97    5.76
 -16  -9   1   11.44    3.84
 -16  -9  -1    1.63    2.78
 -16   9  -1    1.65    2.43
 -16   9   1    7.09    3.18
  16  -9  -1   10.67    4.24
  16  -9   1    6.35    3.97
 -16  -9  -2   25.91    6.13
 -16  -9   2    6.49    2.90
 -16   9  -2   19.90    5.14
 -16   9   2   28.39    6.82
  16  -9  -2   20.19    5.40
  16  -9   2   12.11    4.68
 -16  -9  -3    4.20    2.02
 -16  -9   3    2.41    2.24
 -16   9  -3    3.86    2.81
 -16   9   3    7.78    3.36
  16  -9  -3    6.04    3.32
  16  -9   3    1.72    2.31
 -16  -9  -4   17.17    4.78
 -16  -9   4   11.32    4.29
 -16   9  -4   20.54    6.14
 -16   9   4   30.14    8.00
  16  -9  -4    8.12    4.25
  16  -9   4   20.31    6.16
 -16  -9  -5    2.32    1.24
 -16  -9   5    9.40    2.97
 -16   9  -5    2.77    2.54
 -16   9   5   10.69    4.49
  16  -9  -5   -0.13    2.54
  16  -9   5    9.34    4.20
 -16 -10   0    0.61    1.50
 -16  10   0    3.61    1.81
  16 -10   0    7.43    4.04
 -16 -10   1    9.54    3.18
 -16 -10  -1   10.07    3.90
 -16  10  -1   14.77    4.33
 -16  10   1    4.13    2.68
  16 -10  -1    4.76    3.08
  16 -10   1    8.86    4.43
 -16 -10  -2    5.34    2.84
 -16 -10   2   11.64    3.85
 -16  10   2    2.63    2.97
  16 -10  -2    0.63    2.86
  16 -10   2    8.61    4.37
 -16 -10   3    7.93    3.06
 -16  10  -3    7.59    2.73
 -16  10   3   12.82    4.52
  16 -10  -3   12.97    5.28
  16 -10   3    7.62    3.22
 -17   0   0    6.88    2.63
 -17   0  -1   -1.37    2.67
 -17   0   1    1.98    1.41
  17   0  -1    5.48    1.86
 -17   0  -2    5.82    2.12
 -17   0   2    2.46    1.40
  17   0  -2    1.10    1.36
 -17   0  -3    5.32    1.74
 -17   0   3   10.34    4.08
  17   0  -3    0.07    1.53
 -17   0  -4   14.27    4.65
 -17   0   4   25.83    3.95
  17   0  -4   30.60    7.07
 -17   0  -5   55.59    9.69
 -17   0   5   41.32    7.52
  17   0  -5   36.02    7.35
 -17   0  -6   57.30   11.07
 -17   0   6   48.91   10.25
  17   0  -6   34.52    7.34
 -17   0  -7   14.16    3.83
 -17   0   7   21.99    5.34
  17   0  -7   18.69    5.38
 -17   0  -8   70.24   17.50
 -17   0   8   48.36   14.15
  17   0  -8   49.94   12.92
 -17   0  -9   22.50    5.82
 -17   0   9   14.90    4.20
  17   0  -9    6.76    2.37
 -17  -1   0   39.19    7.21
 -17   1   0   43.52    8.46
  17  -1   0   19.89    4.78
 -17  -1  -1    4.78    2.70
 -17  -1   1   -0.25    1.15
 -17   1  -1    1.67    1.00
 -17   1   1   -0.34    2.29
  17  -1  -1    4.90    2.28
 -17  -1  -2   22.60    6.03
 -17   1  -2   12.27    3.52
 -17  -1   2   18.82    4.91
 -17   1   2    9.18    2.41
  17  -1  -2   13.95    3.97
 -17  -1  -3    5.87    2.93
 -17  -1   3   15.39    5.32
 -17   1  -3    3.35    2.40
 -17   1   3   15.00    4.87
  17   1  -3    3.90    2.27
  17  -1  -3    4.72    2.16
 -17  -1  -4   15.77    5.03
 -17   1  -4   24.63    7.30
 -17  -1   4   15.53    5.17
 -17   1   4   13.66    4.84
  17   1  -4   11.48    3.49
  17  -1  -4   10.25    3.53
 -17  -1  -5   13.49    4.81
 -17  -1   5    6.94    2.10
 -17   1   5   21.04    5.60
  17   1  -5    9.40    3.21
  17  -1  -5    5.04    2.31
 -17  -1  -6   10.54    4.04
 -17   1  -6   10.27    3.67
 -17  -1   6    7.74    2.29
 -17   1   6    6.58    2.10
  17   1  -6    6.03    2.46
  17  -1  -6    2.33    2.09
 -17  -1  -7    6.84    2.86
 -17   1  -7   10.41    4.07
 -17  -1   7    4.05    2.57
 -17   1   7    3.34    2.69
  17   1  -7    3.93    2.53
  17  -1  -7    6.08    2.45
 -17  -1  -8    6.03    2.31
 -17   1  -8    6.74    3.54
 -17  -1   8    7.51    2.94
 -17   1   8    1.99    2.17
  17   1  -8    7.22    3.13
  17  -1  -8    2.92    3.92
 -17  -1  -9    4.57    3.00
 -17   1  -9    6.48    2.49
 -17  -1   9    5.09    2.04
 -17   1   9    5.90    3.07
  17   1  -9    7.86    2.45
  17  -1  -9    6.18    2.67
 -17  -2   0    7.21    2.25
 -17   2   0   23.06    5.88
  17  -2   0    4.11    1.74
 -17  -2  -1   18.78    5.32
 -17  -2   1    6.68    2.82
 -17   2  -1   13.43    4.04
 -17   2   1    7.77    3.22
  17  -2  -1    9.46    3.10
  17  -2   1    6.32    2.09
 -17  -2  -2    8.60    4.44
 -17  -2   2    3.43    1.81
 -17   2  -2    2.92    1.67
 -17   2   2   17.82    4.79
  17  -2  -2    6.51    1.97
 -17  -2  -3    7.26    1.94
 -17  -2   3    8.08    2.45
 -17   2  -3   17.54    5.02
 -17   2   3   14.69    4.59
  17  -2  -3    7.18    2.51
 -17  -2  -4    6.79    1.56
 -17  -2   4   14.19    5.07
 -17   2  -4   20.42    6.50
 -17   2   4   17.24    5.48
  17   2  -4   10.84    3.30
  17  -2  -4   17.49    5.33
 -17  -2  -5   21.52    6.59
 -17  -2   5   11.66    4.12
 -17   2  -5   13.13    4.34
 -17   2   5   10.46    5.27
  17   2  -5   17.85    5.04
  17  -2  -5    9.36    3.62
 -17  -2  -6   21.70    5.36
 -17   2  -6   22.17    5.47
 -17  -2   6   16.62    5.26
 -17   2   6   15.89    5.22
  17   2  -6    6.35    2.19
  17  -2  -6   22.84    5.18
 -17   2  -7    7.54    2.93
 -17  -2   7    5.01    1.85
 -17   2   7   33.61    7.63
  17   2  -7   15.61    5.24
  17  -2  -7    5.43    2.63
 -17  -2  -8    3.01    2.06
 -17   2  -8    2.93    3.19
 -17  -2   8    7.60    3.44
 -17   2   8   14.48    5.19
  17   2  -8    9.25    3.23
  17  -2  -8    4.40    2.31
 -17  -2  -9    4.69    2.53
 -17   2  -9    4.67    2.11
 -17  -2   9    3.26    1.59
 -17   2   9    2.34    2.20
  17   2  -9   16.30    4.34
  17  -2  -9    7.56    3.16
 -17  -3   0    4.77    2.28
 -17   3   0    9.50    3.38
  17  -3   0   -0.37    1.74
 -17  -3  -1   78.93   12.80
 -17  -3   1   55.69   10.41
 -17   3  -1   73.64   10.78
 -17   3   1   67.58   11.24
  17  -3  -1   63.04    7.57
  17  -3   1   50.02    9.69
 -17  -3  -2    6.00    2.39
 -17  -3   2    5.68    2.57
 -17   3  -2    6.45    1.77
 -17   3   2    5.79    2.62
  17  -3  -2    1.11    1.87
  17  -3   2   -0.24    1.48
 -17  -3  -3    8.41    3.75
 -17  -3   3   39.18    6.81
 -17   3  -3   33.83    6.75
 -17   3   3   23.63    6.76
  17  -3  -3   28.43    5.36
 -17  -3  -4   -2.13    2.65
 -17  -3   4    5.13    1.86
 -17   3   4    7.37    3.45
  17  -3  -4    1.97    2.12
 -17  -3  -5    7.36    4.09
 -17  -3   5    7.17    3.51
 -17   3  -5    5.76    3.06
 -17   3   5    5.90    3.10
  17   3  -5    3.27    1.51
  17  -3  -5    1.63    2.05
 -17  -3  -6    4.23    2.18
 -17  -3   6    6.38    2.49
 -17   3  -6    4.67    2.13
 -17   3   6    6.09    2.95
  17   3  -6   -2.25    1.59
  17  -3  -6    1.23    2.13
 -17  -3  -7    5.78    2.78
 -17  -3   7    0.00    2.06
 -17   3  -7    7.94    3.21
 -17   3   7    4.98    2.59
  17   3  -7    8.99    3.31
  17  -3  -7    1.91    2.94
 -17  -3  -8    4.50    2.39
 -17   3  -8    2.49    1.31
 -17  -3   8    7.29    2.62
 -17   3   8    8.45    3.27
  17   3  -8    1.37    0.95
  17  -3  -8    1.69    2.23
 -17  -4   0    8.29    3.19
 -17   4   0    1.24    1.84
  17  -4   0    1.05    1.78
 -17  -4  -1    5.88    2.04
 -17  -4   1    9.70    3.74
 -17   4  -1    4.82    2.20
 -17   4   1    4.38    3.43
  17  -4  -1    4.56    2.99
  17  -4   1    0.94    1.74
 -17  -4  -2    7.72    1.76
 -17  -4   2    4.24    2.19
 -17   4  -2   10.88    3.55
 -17   4   2   11.09    4.75
  17  -4  -2   10.10    3.84
  17  -4   2    0.55    1.28
 -17  -4  -3    4.19    2.00
 -17  -4   3   11.95    4.61
 -17   4  -3    4.50    1.74
 -17   4   3    2.60    2.38
  17  -4  -3    1.80    2.04
  17  -4   3    2.74    1.63
 -17  -4  -4    7.07    2.53
 -17  -4   4    9.59    2.96
 -17   4  -4    5.58    3.08
 -17   4   4    6.20    2.56
  17  -4  -4    0.79    2.11
  17  -4   4   -0.22    1.65
 -17  -4  -5    9.88    4.13
 -17  -4   5    5.95    2.47
 -17   4  -5    8.26    3.05
 -17   4   5   16.41    5.77
  17  -4  -5    2.83    2.39
 -17  -4  -6    8.95    4.72
 -17  -4   6    6.88    2.69
 -17   4   6    7.85    4.48
  17  -4  -6    0.67    2.12
 -17  -4  -7   18.05    4.93
 -17  -4   7   10.95    3.94
 -17   4  -7    7.94    3.03
 -17   4   7    4.46    2.75
  17   4  -7    0.69    1.12
  17  -4  -7    8.30    3.15
 -17  -4   8    6.44    2.13
 -17   4  -8    4.39    2.03
 -17   4   8   27.55    7.47
  17   4  -8   22.34    7.38
  17  -4  -8    8.91    3.48
 -17  -5   0   50.03    9.13
 -17   5   0   34.23    6.72
  17  -5   0   30.21    4.67
 -17  -5  -1   39.02    8.43
 -17  -5   1   21.56    5.86
 -17   5  -1   35.11    7.06
 -17   5   1   40.28    7.41
 -17  -5  -2   30.71    7.97
 -17  -5   2   31.19    6.59
 -17   5  -2   38.29    7.57
 -17   5   2   35.56    6.75
  17  -5  -2   20.60    4.93
  17  -5   2   14.55    4.34
 -17  -5  -3   49.92   11.14
 -17  -5   3   57.67   11.65
 -17   5  -3   54.52   12.05
 -17   5   3   49.84   10.47
  17  -5  -3   45.91    8.21
  17  -5   3   57.54    9.12
 -17  -5  -4   23.16    5.96
 -17  -5   4   26.53    7.37
 -17   5  -4   11.26    2.97
 -17   5   4   26.08    6.28
  17  -5  -4   13.09    3.94
  17  -5   4   14.40    5.03
 -17  -5  -5   12.16    5.10
 -17  -5   5   42.77    9.99
 -17   5  -5   43.41    9.72
 -17   5   5   30.17    8.47
  17  -5  -5   20.51    5.14
 -17  -5  -6    8.89    3.43
 -17  -5   6   11.44    4.79
 -17   5  -6    7.70    2.71
 -17   5   6    9.92    4.50
  17  -5  -6    7.70    3.60
 -17  -5  -7   18.18    6.38
 -17  -5   7   22.40    6.52
 -17   5  -7   24.48    7.00
 -17   5   7   17.31    5.10
  17  -5  -7   12.88    4.24
 -17  -6   0    1.75    1.12
 -17   6   0    7.20    2.80
  17  -6   0    5.00    2.57
 -17  -6  -1   11.33    4.09
 -17  -6   1   14.58    4.85
 -17   6  -1    5.08    3.05
 -17   6   1    8.80    4.94
  17  -6  -1    1.22    1.12
  17  -6   1    1.46    2.29
 -17  -6  -2    6.82    2.82
 -17  -6   2    5.13    2.70
 -17   6   2    6.17    4.06
  17  -6  -2    6.83    2.90
  17  -6   2    6.09    3.12
 -17  -6  -3    5.19    2.64
 -17  -6   3   -2.08    2.15
 -17   6  -3   -2.64    2.24
 -17   6   3    8.50    4.00
  17  -6  -3   11.40    3.89
  17  -6   3    5.17    3.22
 -17  -6  -4    3.78    3.40
 -17  -6   4    5.79    2.33
 -17   6  -4    0.35    1.45
 -17   6   4    5.59    2.92
  17  -6  -4    0.11    2.38
  17  -6   4    1.97    1.88
 -17  -6  -5    1.50    1.99
 -17  -6   5    9.63    3.24
 -17   6  -5    4.89    2.06
 -17   6   5    2.72    2.73
  17  -6  -5    4.80    2.71
  17  -6   5    1.18    1.99
 -17  -6  -6   14.95    5.13
 -17  -6   6    2.15    2.32
 -17   6  -6    8.87    3.04
 -17   6   6   13.15    5.63
  17  -6  -6    4.09    2.59
 -17  -7   0    4.14    2.53
 -17   7   0   12.54    5.12
  17  -7   0    5.28    2.78
 -17  -7   1    6.37    2.33
 -17   7  -1    0.53    2.51
 -17   7   1    6.17    3.55
  17  -7  -1    7.56    3.27
  17  -7   1    0.62    2.26
 -17  -7  -2   11.69    4.49
 -17  -7   2   23.26    5.46
 -17   7  -2   22.80    5.45
 -17   7   2   20.84    5.30
  17  -7  -2   20.04    5.17
  17  -7   2   11.92    4.61
 -17  -7  -3    8.34    3.73
 -17  -7   3   11.40    5.15
 -17   7   3    3.61    4.07
  17  -7  -3    7.80    2.65
  17  -7   3    3.19    2.32
 -17  -7   4   23.03    6.27
 -17   7  -4   16.29    5.19
 -17   7   4   12.72    5.21
  17  -7  -4   16.08    5.17
  17  -7   4    6.05    2.51
 -17  -7  -5   28.13    8.13
 -17  -7   5   15.21    5.10
 -17   7  -5   30.08    9.23
 -17   7   5   23.78    6.66
  17  -7   5   10.00    3.85
 -17  -8   0    5.90    3.06
 -17   8   0   12.87    5.48
  17  -8   0   13.06    4.55
 -17  -8  -1    5.75    2.54
 -17  -8   1    4.63    2.96
 -17   8  -1    8.07    3.55
 -17   8   1   13.88    6.42
  17  -8  -1    3.57    1.75
  17  -8   1    1.88    2.56
 -17  -8  -2    2.93    2.50
 -17  -8   2   11.08    4.23
 -17   8  -2   10.96    4.27
 -17   8   2    3.88    2.96
  17  -8  -2    6.64    2.42
  17  -8   2    0.68    2.32
 -17  -8  -3    8.83    3.45
 -17  -8   3   10.14    3.29
 -17   8  -3   17.54    5.11
 -17   8   3    8.13    3.49
  17  -8  -3   25.81    7.39
  17  -8   3    2.39    2.40
 -18   0   0   39.27    8.14
 -18   0  -1   23.71    5.25
 -18   0   1   31.64    6.44
 -18   0  -2   36.78    7.02
 -18   0   2   28.71    8.39
 -18   0  -3   17.07    4.27
 -18   0   3   18.35    4.92
 -18   0  -4    5.33    2.62
 -18   0   4    3.45    3.25
  18   0  -4    1.31    1.00
 -18   0  -5    3.79    2.53
 -18   0   5   -1.73    2.16
  18   0  -5    4.50    1.99
 -18   0  -6    3.93    1.73
 -18   0   6    6.57    2.78
  18   0  -6    8.91    2.98
 -18  -1   0   10.86    4.76
 -18   1   0   19.97    4.31
 -18  -1   1   10.60    3.50
 -18  -1  -1    4.00    1.97
 -18   1  -1    2.17    1.81
 -18   1   1    7.17    3.15
 -18  -1  -2   21.07    4.89
 -18   1  -2    7.52    3.24
 -18   1   2   12.95    4.39
 -18  -1  -3    6.65    2.99
 -18  -1   3   15.89    6.20
 -18   1  -3   10.97    4.31
 -18   1   3   12.36    4.34
  18  -1  -3    7.06    2.86
 -18  -1  -4   14.19    4.10
 -18   1  -4   20.91    5.30
 -18  -1   4   14.57    5.20
 -18   1   4   24.05    6.54
  18  -1  -4    4.08    2.02
 -18  -1  -5   10.64    4.64
 -18   1  -5   21.61    5.68
 -18  -1   5   12.09    4.42
 -18   1   5    6.26    2.38
  18  -1  -5   14.97    4.79
 -18  -1  -6    8.69    3.05
 -18   1  -6    8.90    3.70
 -18  -1   6   11.12    4.24
 -18   1   6   15.62    5.36
  18   1  -6    4.14    1.75
  18  -1  -6   11.97    4.24
 -18  -2   0   21.52    6.26
 -18   2   0   15.76    5.15
 -18  -2  -1   12.65    4.23
 -18  -2   1   13.55    4.19
 -18   2  -1   15.55    4.66
 -18   2   1    3.94    2.35
  18  -2  -1    6.64    2.68
 -18  -2  -2    8.55    3.85
 -18  -2   2   22.46    6.06
 -18   2  -2    9.81    4.96
 -18   2   2   17.68    4.18
  18  -2  -2    5.98    2.36
 -18  -2  -3    4.66    2.03
 -18  -2   3    6.72    2.63
 -18   2  -3    6.23    2.07
 -18   2   3    7.80    3.56
  18  -2  -3   10.65    3.78
 -18  -2  -4   35.94    9.50
 -18  -2   4   27.61    7.22
 -18   2  -4   23.83    6.44
 -18   2   4   28.71    7.40
  18  -2  -4   12.87    4.14
 -18  -2  -5   10.75    4.67
 -18   2  -5    8.03    3.35
 -18  -2   5    9.10    3.70
 -18   2   5    3.23    1.60
  18  -2  -5    1.67    1.91
 -18  -2  -6   12.29    5.26
 -18   2  -6    8.48    2.81
 -18  -2   6    5.69    1.76
 -18   2   6    5.33    2.57
  18  -2  -6    1.84    1.99
 -18  -3   0   12.03    3.74
 -18   3   0   16.86    4.51
  18  -3   0    3.17    2.43
 -18  -3  -1    5.73    2.13
 -18  -3   1   10.33    3.36
 -18   3  -1    6.15    3.51
 -18   3   1   11.68    4.34
  18  -3  -1    2.29    1.81
 -18  -3  -2   20.59    5.11
 -18  -3   2    8.13    4.00
 -18   3  -2    6.79    2.40
 -18   3   2   13.47    4.49
  18  -3  -2    2.68    1.81
 -18  -3  -3    9.65    2.84
 -18  -3   3   14.64    4.85
 -18   3  -3    9.65    3.38
 -18   3   3    7.43    3.46
  18  -3  -3    6.58    3.02
 -18  -3  -4   16.20    5.09
 -18  -3   4    2.66    1.96
 -18   3   4    7.15    2.69
  18  -3  -4    1.25    2.07
 -18  -3  -5   25.29    8.44
 -18  -3   5   27.33    6.87
 -18   3  -5   27.92    8.88
 -18   3   5   13.19    5.67
  18  -3  -5   14.19    4.71
 -18  -4   0    8.99    3.94
 -18   4   0   21.14    5.93
  18  -4   0    3.71    2.22
 -18  -4   1   13.09    4.48
 -18  -4  -1   11.57    5.02
 -18   4  -1    2.33    3.05
 -18   4   1    2.55    2.73
  18  -4  -1    6.83    3.10
  18  -4   1    5.34    2.50
 -18  -4  -2    3.79    1.82
 -18  -4   2   -2.50    2.62
 -18   4  -2    6.95    2.53
 -18   4   2    6.05    2.33
  18  -4  -2    1.92    2.02
 -18  -4  -3    3.01    2.04
 -18  -4   3    6.19    2.39
 -18   4  -3    5.73    2.13
 -18   4   3    5.17    3.70
  18  -4  -3    6.30    3.72
 -18  -4  -4   13.86    5.56
 -18  -4   4    8.02    3.22
 -18   4  -4    7.13    3.67
 -18   4   4   10.50    4.35
  18  -4  -4    7.26    2.93
 -18  -4  -5    7.57    3.83
 -18  -4   5   15.52    4.35
 -18   4  -5   10.80    4.05
 -18   4   5   20.74    6.82
  18  -4  -5    3.04    1.80
 -18  -5   0   -1.51    2.48
 -18   5   0    8.69    3.67
  18  -5   0    0.63    1.80
 -18  -5  -1    6.12    2.13
 -18  -5   1   12.32    4.75
 -18   5  -1    6.69    3.14
 -18   5   1    7.17    3.23
  18  -5  -1    2.29    1.97
  18  -5   1    4.31    2.10
 -18  -5  -2    6.71    2.46
 -18  -5   2    3.34    1.56
 -18   5  -2    6.83    2.33
 -18   5   2    5.48    3.35
  18  -5  -2    3.43    2.21
  18  -5   2    3.15    1.95
 -18  -5  -3   10.96    4.14
 -18  -5   3   18.87    6.23
 -18   5  -3   19.25    6.35
 -18   5   3    3.81    2.95
  18  -5  -3    2.99    2.24
 -18  -6   0    4.96    2.02
 -18   6   0    6.71    4.05
  18  -6   0    5.89    3.77
 -18  -6  -1    8.72    3.95
 -18  -6   1    5.15    3.81
 -18   6  -1    6.53    2.79
 -18   6   1    8.26    3.54
  18  -6  -1    7.09    2.47
  18  -6   1    5.13    3.15

_computing_structure_solution     'SHELXT 2014/4 (Sheldrick, 2014)'
;
_shelx_hkl_checksum              97675
_shelx_shelxl_version_number     2014/7
_olex2_submission_special_instructions 'No special instructions were received'
loop_
_space_group_symop_operation_xyz
'x, y, z'
'-x+1/2, -y, z+1/2'
'-x, y+1/2, -z+1/2'
'x+1/2, -y+1/2, -z'
loop_
_atom_site_label
_atom_site_type_symbol
_atom_site_fract_x
_atom_site_fract_y
_atom_site_fract_z
_atom_site_U_iso_or_equiv
_atom_site_adp_type
_atom_site_occupancy
_atom_site_site_symmetry_order
_atom_site_calc_flag
_atom_site_refinement_flags_posn
Br1 Br 0.69980(6) 0.18339(5) 0.44838(5) 0.0421(2) Uani 1 1 d .
S1 S 0.45406(13) 0.34837(12) 0.46855(12) 0.0326(4) Uani 1 1 d .
F1 F 0.6194(4) 0.3070(3) 0.6991(3) 0.0491(12) Uani 1 1 d .
F2 F 0.6374(4) 0.6112(4) 0.7665(3) 0.0558(14) Uani 1 1 d .
F3 F 0.6450(4) 0.5243(3) 0.4922(3) 0.0477(12) Uani 1 1 d .
O1 O 0.6949(4) 0.3865(3) 0.3750(3) 0.0339(11) Uani 1 1 d .
O2 O 0.5553(4) 0.4150(4) 0.3307(3) 0.0371(12) Uani 1 1 d .
O3 O 0.4149(4) 0.4360(3) 0.4619(4) 0.0405(13) Uani 1 1 d .
O4 O 0.4420(4) 0.2996(4) 0.5440(3) 0.0383(12) Uani 1 1 d .
N1 N 0.5680(4) 0.3565(4) 0.4595(3) 0.0288(12) Uani 1 1 d .
C1 C 0.6253(5) 0.3336(5) 0.5308(4) 0.0315(16) Uani 1 1 d .
H1 H 0.5956 0.2837 0.5594 0.038 Uiso 1 1 calc R
C2 C 0.7172(5) 0.3006(4) 0.5006(5) 0.0334(16) Uani 1 1 d .
H2 H 0.7587 0.2939 0.5474 0.040 Uiso 1 1 calc R
C3 C 0.7587(5) 0.3648(6) 0.4403(5) 0.0393(18) Uani 1 1 d .
H3A H 0.7764 0.4192 0.4685 0.047 Uiso 1 1 calc R
H3B H 0.8135 0.3384 0.4168 0.047 Uiso 1 1 calc R
C4 C 0.6040(5) 0.3884(5) 0.3857(5) 0.0321(16) Uani 1 1 d .
C5 C 0.6326(5) 0.4108(5) 0.5911(4) 0.0318(16) Uani 1 1 d .
C6 C 0.6402(6) 0.5006(5) 0.5722(4) 0.0343(17) Uani 1 1 d .
C7 C 0.6427(6) 0.5681(6) 0.6285(5) 0.043(2) Uani 1 1 d .
H7 H 0.6479 0.6276 0.6124 0.051 Uiso 1 1 calc R
C8 C 0.6371(6) 0.5450(6) 0.7096(5) 0.042(2) Uani 1 1 d .
C9 C 0.6296(6) 0.4580(6) 0.7358(5) 0.042(2) Uani 1 1 d .
H9 H 0.6259 0.4434 0.7911 0.050 Uiso 1 1 calc R
C10 C 0.6277(5) 0.3932(5) 0.6751(5) 0.0337(16) Uani 1 1 d .
C11 C 0.4195(5) 0.2814(5) 0.3864(5) 0.0322(16) Uani 1 1 d .
C12 C 0.3739(6) 0.3206(6) 0.3208(5) 0.043(2) Uani 1 1 d .
H12 H 0.3637 0.3820 0.3198 0.051 Uiso 1 1 calc R
C13 C 0.3436(6) 0.2668(6) 0.2569(6) 0.046(2) Uani 1 1 d .
H13 H 0.3132 0.2924 0.2127 0.055 Uiso 1 1 calc R
C14 C 0.3586(5) 0.1743(5) 0.2585(5) 0.0358(17) Uani 1 1 d .
C15 C 0.4021(5) 0.1375(5) 0.3261(5) 0.0353(17) Uani 1 1 d .
H15 H 0.4110 0.0759 0.3284 0.042 Uiso 1 1 calc R
C16 C 0.4322(5) 0.1902(5) 0.3899(5) 0.0340(16) Uani 1 1 d .
H16 H 0.4609 0.1644 0.4350 0.041 Uiso 1 1 calc R
C17 C 0.3306(6) 0.1171(6) 0.1870(5) 0.045(2) Uani 1 1 d .
H17A H 0.2708 0.1348 0.1686 0.067 Uiso 1 1 calc GR
H17B H 0.3292 0.0554 0.2035 0.067 Uiso 1 1 calc GR
H17C H 0.3738 0.1245 0.1432 0.067 Uiso 1 1 calc GR
Br1A Br 0.69877(6) 0.76509(5) 0.48270(5) 0.03856(19) Uani 1 1 d .
S1A S 0.43093(13) 0.89305(13) 0.50800(12) 0.0353(4) Uani 1 1 d .
F1A F 0.6264(4) 0.8185(3) 0.7367(3) 0.0519(13) Uani 1 1 d .
F2A F 0.6025(4) 1.0937(4) 0.8720(3) 0.0692(17) Uani 1 1 d .
F3A F 0.5650(4) 1.0800(3) 0.5882(3) 0.0531(14) Uani 1 1 d .
O1A O 0.6740(3) 0.9710(3) 0.4429(3) 0.0357(12) Uani 1 1 d .
O2A O 0.5395(4) 0.9681(4) 0.3811(4) 0.0436(14) Uani 1 1 d .
O3A O 0.3825(4) 0.9703(4) 0.4799(4) 0.0496(15) Uani 1 1 d .
O4A O 0.4125(4) 0.8575(4) 0.5877(3) 0.0465(15) Uani 1 1 d .
N1A N 0.5436(4) 0.9175(4) 0.5122(4) 0.0291(12) Uani 1 1 d .
C1A C 0.5971(5) 0.8842(5) 0.5830(4) 0.0331(16) Uani 1 1 d .
H1A H 0.5716 0.8262 0.5992 0.040 Uiso 1 1 calc R
C2A C 0.6949(5) 0.8693(5) 0.5560(5) 0.0337(15) Uani 1 1 d .
H2A H 0.7331 0.8575 0.6042 0.040 Uiso 1 1 calc R
C3A C 0.7307(5) 0.9499(5) 0.5122(5) 0.0362(17) Uani 1 1 d .
H3AA H 0.7320 1.0005 0.5495 0.043 Uiso 1 1 calc R
H3AB H 0.7928 0.9386 0.4939 0.043 Uiso 1 1 calc R
C4A C 0.5839(5) 0.9531(5) 0.4418(5) 0.0330(16) Uani 1 1 d .
C5A C 0.5951(5) 0.9456(5) 0.6581(4) 0.0312(16) Uani 1 1 d .
C6A C 0.5822(6) 1.0371(6) 0.6597(5) 0.0392(18) Uani 1 1 d .
C7A C 0.5842(7) 1.0891(6) 0.7296(5) 0.048(2) Uani 1 1 d .
H7A H 0.5747 1.1507 0.7280 0.057 Uiso 1 1 calc R
C8A C 0.6012(6) 1.0441(7) 0.8021(5) 0.048(2) Uani 1 1 d .
C9A C 0.6151(6) 0.9542(6) 0.8064(5) 0.044(2) Uani 1 1 d .
H9A H 0.6265 0.9260 0.8562 0.053 Uiso 1 1 calc R
C10A C 0.6117(6) 0.9075(5) 0.7353(5) 0.0380(18) Uani 1 1 d .
C11A C 0.4225(5) 0.8059(5) 0.4361(4) 0.0311(15) Uani 1 1 d .
C12A C 0.3900(5) 0.8230(5) 0.3577(5) 0.0348(16) Uani 1 1 d .
H12A H 0.3762 0.8811 0.3412 0.042 Uiso 1 1 calc R
C13A C 0.3786(6) 0.7514(6) 0.3044(5) 0.0415(19) Uani 1 1 d .
H13A H 0.3560 0.7617 0.2520 0.050 Uiso 1 1 calc R
C14A C 0.4003(5) 0.6646(5) 0.3279(5) 0.0336(16) Uani 1 1 d .
C15A C 0.4354(5) 0.6513(5) 0.4063(5) 0.0357(17) Uani 1 1 d .
H15A H 0.4528 0.5939 0.4219 0.043 Uiso 1 1 calc R
C16A C 0.4451(5) 0.7198(5) 0.4609(5) 0.0339(16) Uani 1 1 d .
H16A H 0.4665 0.7090 0.5137 0.041 Uiso 1 1 calc R
C17A C 0.3870(6) 0.5860(6) 0.2712(6) 0.049(2) Uani 1 1 d .
H17D H 0.3278 0.5601 0.2805 0.073 Uiso 1 1 calc GR
H17E H 0.4336 0.5421 0.2815 0.073 Uiso 1 1 calc GR
H17F H 0.3912 0.6060 0.2153 0.073 Uiso 1 1 calc GR
loop_
_atom_site_aniso_label
_atom_site_aniso_U_11
_atom_site_aniso_U_22
_atom_site_aniso_U_33
_atom_site_aniso_U_23
_atom_site_aniso_U_13
_atom_site_aniso_U_12
Br1 0.0390(4) 0.0293(3) 0.0580(5) -0.0025(3) 0.0035(4) 0.0016(4)
S1 0.0311(9) 0.0286(8) 0.0381(11) -0.0035(8) 0.0006(7) 0.0011(7)
F1 0.069(3) 0.041(3) 0.038(3) 0.016(2) 0.000(2) -0.002(3)
F2 0.073(4) 0.057(3) 0.037(3) -0.017(2) -0.008(3) -0.004(3)
F3 0.088(4) 0.030(2) 0.025(2) 0.0042(18) -0.002(2) -0.006(2)
O1 0.028(3) 0.038(3) 0.035(3) 0.006(2) 0.003(2) -0.002(2)
O2 0.040(3) 0.040(3) 0.031(3) 0.004(2) -0.006(2) -0.002(3)
O3 0.033(3) 0.032(3) 0.057(4) -0.009(3) 0.002(3) 0.010(2)
O4 0.041(3) 0.040(3) 0.035(3) 0.002(2) 0.004(2) -0.001(2)
N1 0.027(3) 0.031(3) 0.028(3) -0.001(3) -0.001(2) -0.003(2)
C1 0.027(3) 0.032(4) 0.035(4) 0.006(3) -0.006(3) -0.002(3)
C2 0.035(4) 0.026(3) 0.039(4) 0.004(3) -0.007(3) 0.004(3)
C3 0.031(4) 0.044(4) 0.043(4) 0.005(4) -0.003(3) -0.006(3)
C4 0.038(4) 0.026(3) 0.033(4) -0.003(3) 0.001(3) -0.002(3)
C5 0.036(4) 0.030(4) 0.030(4) 0.002(3) -0.003(3) 0.000(3)
C6 0.050(5) 0.029(4) 0.024(4) 0.003(3) -0.002(3) -0.010(3)
C7 0.061(6) 0.037(4) 0.030(4) -0.005(3) -0.008(4) -0.003(4)
C8 0.049(5) 0.046(5) 0.030(4) -0.010(4) -0.007(4) -0.003(4)
C9 0.046(5) 0.056(5) 0.023(4) 0.005(4) -0.004(3) 0.003(4)
C10 0.034(4) 0.032(4) 0.036(4) 0.007(3) -0.007(3) -0.003(3)
C11 0.031(4) 0.027(4) 0.039(4) 0.005(3) 0.004(3) -0.001(3)
C12 0.046(5) 0.027(4) 0.055(5) 0.001(4) -0.013(4) -0.001(4)
C13 0.053(5) 0.033(4) 0.051(5) -0.003(4) -0.021(4) 0.001(4)
C14 0.034(4) 0.033(4) 0.040(4) -0.004(3) 0.002(3) 0.000(3)
C15 0.030(4) 0.032(4) 0.044(4) -0.004(3) 0.003(3) 0.001(3)
C16 0.028(4) 0.034(4) 0.040(4) -0.002(3) -0.002(3) -0.002(3)
C17 0.046(5) 0.047(5) 0.041(5) -0.008(4) -0.005(4) -0.009(4)
Br1A 0.0404(4) 0.0338(4) 0.0414(4) -0.0026(3) -0.0003(4) 0.0055(3)
S1A 0.0319(9) 0.0401(10) 0.0338(10) -0.0093(8) -0.0004(8) 0.0030(8)
F1A 0.073(4) 0.047(3) 0.036(3) 0.008(2) -0.003(2) 0.014(3)
F2A 0.089(4) 0.079(4) 0.039(3) -0.028(3) -0.011(3) -0.006(4)
F3A 0.094(4) 0.030(2) 0.035(3) 0.006(2) 0.002(3) -0.001(3)
O1A 0.035(3) 0.034(3) 0.038(3) 0.008(2) -0.001(2) -0.008(2)
O2A 0.049(3) 0.042(3) 0.040(3) 0.011(3) -0.009(3) -0.005(3)
O3A 0.044(3) 0.042(3) 0.063(4) -0.020(3) -0.014(3) 0.021(3)
O4A 0.040(3) 0.068(4) 0.032(3) -0.011(3) 0.009(2) -0.011(3)
N1A 0.031(3) 0.030(3) 0.026(3) 0.005(3) 0.000(2) 0.003(2)
C1A 0.038(4) 0.031(4) 0.030(4) 0.006(3) -0.003(3) -0.006(3)
C2A 0.029(3) 0.037(4) 0.034(4) 0.001(3) -0.001(3) -0.003(3)
C3A 0.031(4) 0.038(4) 0.040(4) 0.002(4) -0.004(3) -0.005(3)
C4A 0.034(4) 0.028(4) 0.037(4) 0.006(3) -0.005(3) -0.001(3)
C5A 0.037(4) 0.029(4) 0.028(4) -0.001(3) 0.001(3) -0.001(3)
C6A 0.052(5) 0.035(4) 0.030(4) -0.002(3) -0.001(4) -0.007(4)
C7A 0.071(6) 0.031(4) 0.041(5) -0.006(4) 0.003(4) -0.003(4)
C8A 0.049(5) 0.065(6) 0.030(4) -0.016(4) -0.003(4) -0.008(5)
C9A 0.055(5) 0.053(5) 0.025(4) -0.001(4) -0.004(4) -0.006(4)
C10A 0.045(5) 0.035(4) 0.034(4) 0.005(3) -0.003(3) 0.004(4)
C11A 0.028(3) 0.035(4) 0.031(4) 0.001(3) -0.004(3) -0.008(3)
C12A 0.040(4) 0.028(4) 0.036(4) 0.003(3) -0.002(3) 0.000(3)
C13A 0.055(5) 0.044(5) 0.026(4) -0.001(3) -0.001(3) -0.008(4)
C14A 0.035(4) 0.032(4) 0.034(4) -0.003(3) 0.010(3) -0.007(3)
C15A 0.035(4) 0.031(4) 0.041(4) -0.001(3) 0.000(3) -0.002(3)
C16A 0.028(3) 0.044(4) 0.030(4) 0.004(3) 0.001(3) -0.001(3)
C17A 0.051(5) 0.044(5) 0.051(5) -0.017(4) 0.009(4) -0.004(4)
loop_
_atom_type_symbol
_atom_type_description
_atom_type_scat_dispersion_real
_atom_type_scat_dispersion_imag
_atom_type_scat_source
C C 0.0033 0.0016 'International Tables Vol C Tables 4.2.6.8 and 6.1.1.4'
H H 0.0000 0.0000 'International Tables Vol C Tables 4.2.6.8 and 6.1.1.4'
Br Br -0.2901 2.4595 'International Tables Vol C Tables 4.2.6.8 and 6.1.1.4'
F F 0.0171 0.0103 'International Tables Vol C Tables 4.2.6.8 and 6.1.1.4'
N N 0.0061 0.0033 'International Tables Vol C Tables 4.2.6.8 and 6.1.1.4'
O O 0.0106 0.0060 'International Tables Vol C Tables 4.2.6.8 and 6.1.1.4'
S S 0.1246 0.1234 'International Tables Vol C Tables 4.2.6.8 and 6.1.1.4'
loop_
_geom_angle_atom_site_label_1
_geom_angle_atom_site_label_2
_geom_angle_atom_site_label_3
_geom_angle
O3 S1 O4 118.6(3)
O3 S1 N1 108.9(3)
O3 S1 C11 110.5(4)
O4 S1 N1 103.5(3)
O4 S1 C11 109.3(3)
N1 S1 C11 105.1(3)
C4 O1 C3 123.0(6)
C1 N1 S1 118.5(5)
C4 N1 S1 118.3(5)
C4 N1 C1 123.1(6)
N1 C1 H1 107.5
N1 C1 C2 108.7(6)
N1 C1 C5 112.0(6)
C2 C1 H1 107.5
C2 C1 C5 113.4(6)
C5 C1 H1 107.5
Br1 C2 H2 109.1
C1 C2 Br1 108.5(5)
C1 C2 H2 109.1
C3 C2 Br1 109.7(5)
C3 C2 C1 111.3(6)
C3 C2 H2 109.1
O1 C3 C2 111.4(6)
O1 C3 H3A 109.3
O1 C3 H3B 109.3
C2 C3 H3A 109.3
C2 C3 H3B 109.3
H3A C3 H3B 108.0
O1 C4 N1 118.6(6)
O2 C4 O1 119.4(7)
O2 C4 N1 121.9(7)
C6 C5 C1 126.8(7)
C6 C5 C10 113.9(7)
C10 C5 C1 119.2(7)
F3 C6 C5 118.2(6)
F3 C6 C7 117.0(7)
C7 C6 C5 124.7(7)
C6 C7 H7 121.2
C6 C7 C8 117.5(8)
C8 C7 H7 121.2
F2 C8 C7 118.4(8)
F2 C8 C9 118.5(7)
C7 C8 C9 123.0(8)
C8 C9 H9 121.9
C8 C9 C10 116.1(7)
C10 C9 H9 121.9
F1 C10 C5 117.9(7)
F1 C10 C9 117.4(7)
C9 C10 C5 124.7(7)
C12 C11 S1 119.2(6)
C16 C11 S1 119.7(6)
C16 C11 C12 120.9(7)
C11 C12 H12 120.4
C13 C12 C11 119.1(8)
C13 C12 H12 120.4
C12 C13 H13 119.7
C12 C13 C14 120.6(8)
C14 C13 H13 119.7
C13 C14 C17 120.3(8)
C15 C14 C13 118.5(8)
C15 C14 C17 121.1(7)
C14 C15 H15 119.3
C16 C15 C14 121.4(7)
C16 C15 H15 119.3
C11 C16 C15 119.4(8)
C11 C16 H16 120.3
C15 C16 H16 120.3
C14 C17 H17A 109.5
C14 C17 H17B 109.5
C14 C17 H17C 109.5
H17A C17 H17B 109.5
H17A C17 H17C 109.5
H17B C17 H17C 109.5
O3A S1A O4A 119.9(4)
O3A S1A N1A 108.7(3)
O3A S1A C11A 110.4(3)
O4A S1A N1A 103.1(3)
O4A S1A C11A 108.6(4)
N1A S1A C11A 104.9(3)
C4A O1A C3A 122.1(6)
C1A N1A S1A 118.3(5)
C4A N1A S1A 117.4(5)
C4A N1A C1A 123.2(6)
N1A C1A H1A 107.9
N1A C1A C2A 108.7(6)
N1A C1A C5A 114.5(6)
C2A C1A H1A 107.9
C2A C1A C5A 109.9(6)
C5A C1A H1A 107.9
Br1A C2A H2A 109.3
C1A C2A Br1A 108.8(5)
C1A C2A H2A 109.3
C3A C2A Br1A 109.7(5)
C3A C2A C1A 110.5(6)
C3A C2A H2A 109.3
O1A C3A C2A 110.6(6)
O1A C3A H3AA 109.5
O1A C3A H3AB 109.5
C2A C3A H3AA 109.5
C2A C3A H3AB 109.5
H3AA C3A H3AB 108.1
O1A C4A N1A 118.6(6)
O2A C4A O1A 120.1(7)
O2A C4A N1A 121.4(7)
C6A C5A C1A 127.7(7)
C6A C5A C10A 114.1(7)
C10A C5A C1A 118.2(7)
F3A C6A C5A 118.5(7)
F3A C6A C7A 116.7(7)
C7A C6A C5A 124.8(8)
C6A C7A H7A 122.1
C6A C7A C8A 115.9(8)
C8A C7A H7A 122.1
F2A C8A C7A 117.1(9)
F2A C8A C9A 119.5(8)
C9A C8A C7A 123.4(8)
C8A C9A H9A 121.3
C10A C9A C8A 117.3(8)
C10A C9A H9A 121.3
F1A C10A C5A 116.3(7)
F1A C10A C9A 119.2(7)
C9A C10A C5A 124.4(8)
C12A C11A S1A 120.2(6)
C16A C11A S1A 118.4(6)
C16A C11A C12A 121.3(7)
C11A C12A H12A 120.8
C13A C12A C11A 118.4(7)
C13A C12A H12A 120.8
C12A C13A H13A 119.3
C12A C13A C14A 121.3(7)
C14A C13A H13A 119.3
C13A C14A C15A 118.1(7)
C13A C14A C17A 121.9(7)
C15A C14A C17A 120.0(7)
C14A C15A H15A 119.0
C16A C15A C14A 122.1(7)
C16A C15A H15A 119.0
C11A C16A H16A 120.6
C15A C16A C11A 118.7(7)
C15A C16A H16A 120.6
C14A C17A H17D 109.5
C14A C17A H17E 109.5
C14A C17A H17F 109.5
H17D C17A H17E 109.5
H17D C17A H17F 109.5
H17E C17A H17F 109.5
loop_
_geom_bond_atom_site_label_1
_geom_bond_atom_site_label_2
_geom_bond_distance
Br1 C2 1.964(7)
S1 O3 1.433(5)
S1 O4 1.441(6)
S1 N1 1.675(6)
S1 C11 1.747(8)
F1 C10 1.351(8)
F2 C8 1.357(9)
F3 C6 1.354(8)
O1 C3 1.453(9)
O1 C4 1.338(9)
O2 C4 1.213(9)
N1 C1 1.474(9)
N1 C4 1.397(9)
C1 H1 0.9800
C1 C2 1.512(10)
C1 C5 1.519(10)
C2 H2 0.9800
C2 C3 1.502(10)
C3 H3A 0.9700
C3 H3B 0.9700
C5 C6 1.381(10)
C5 C10 1.398(10)
C6 C7 1.365(11)
C7 H7 0.9300
C7 C8 1.370(11)
C8 C9 1.372(12)
C9 H9 0.9300
C9 C10 1.385(11)
C11 C12 1.390(11)
C11 C16 1.376(10)
C12 H12 0.9300
C12 C13 1.389(11)
C13 H13 0.9300
C13 C14 1.399(11)
C14 C15 1.387(11)
C14 C17 1.503(11)
C15 H15 0.9300
C15 C16 1.378(10)
C16 H16 0.9300
C17 H17A 0.9600
C17 H17B 0.9600
C17 H17C 0.9600
Br1A C2A 1.964(7)
S1A O3A 1.429(6)
S1A O4A 1.431(6)
S1A N1A 1.686(6)
S1A C11A 1.757(8)
F1A C10A 1.347(9)
F2A C8A 1.360(9)
F3A C6A 1.355(9)
O1A C3A 1.436(9)
O1A C4A 1.343(8)
O2A C4A 1.205(9)
N1A C1A 1.481(9)
N1A C4A 1.396(9)
C1A H1A 0.9800
C1A C2A 1.512(11)
C1A C5A 1.531(10)
C2A H2A 0.9800
C2A C3A 1.495(10)
C3A H3AA 0.9700
C3A H3AB 0.9700
C5A C6A 1.381(11)
C5A C10A 1.403(10)
C6A C7A 1.379(11)
C7A H7A 0.9300
C7A C8A 1.384(12)
C8A C9A 1.360(13)
C9A H9A 0.9300
C9A C10A 1.356(11)
C11A C12A 1.389(10)
C11A C16A 1.388(10)
C12A H12A 0.9300
C12A C13A 1.388(11)
C13A H13A 0.9300
C13A C14A 1.389(11)
C14A C15A 1.391(11)
C14A C17A 1.507(11)
C15A H15A 0.9300
C15A C16A 1.365(10)
C16A H16A 0.9300
C17A H17D 0.9600
C17A H17E 0.9600
C17A H17F 0.9600
loop_
_geom_torsion_atom_site_label_1
_geom_torsion_atom_site_label_2
_geom_torsion_atom_site_label_3
_geom_torsion_atom_site_label_4
_geom_torsion
Br1 C2 C3 O1 68.3(7)
S1 N1 C1 C2 151.7(5)
S1 N1 C1 C5 -82.2(7)
S1 N1 C4 O1 -173.3(5)
S1 N1 C4 O2 4.4(9)
S1 C11 C12 C13 -177.8(7)
S1 C11 C16 C15 177.9(6)
F2 C8 C9 C10 178.7(7)
F3 C6 C7 C8 179.5(8)
O3 S1 N1 C1 114.5(5)
O3 S1 N1 C4 -62.8(6)
O3 S1 C11 C12 10.0(7)
O3 S1 C11 C16 -165.7(6)
O4 S1 N1 C1 -12.5(6)
O4 S1 N1 C4 170.2(5)
O4 S1 C11 C12 142.2(6)
O4 S1 C11 C16 -33.5(7)
N1 S1 C11 C12 -107.3(7)
N1 S1 C11 C16 77.1(7)
N1 C1 C2 Br1 -69.8(6)
N1 C1 C2 C3 51.1(8)
N1 C1 C5 C6 -38.5(10)
N1 C1 C5 C10 138.5(7)
C1 N1 C4 O1 9.5(10)
C1 N1 C4 O2 -172.8(7)
C1 C2 C3 O1 -51.9(8)
C1 C5 C6 F3 -2.5(12)
C1 C5 C6 C7 177.1(8)
C1 C5 C10 F1 2.0(11)
C1 C5 C10 C9 -177.1(8)
C2 C1 C5 C6 85.0(9)
C2 C1 C5 C10 -98.0(8)
C3 O1 C4 O2 173.3(7)
C3 O1 C4 N1 -8.9(10)
C4 O1 C3 C2 30.8(10)
C4 N1 C1 C2 -31.1(9)
C4 N1 C1 C5 95.0(8)
C5 C1 C2 Br1 165.0(5)
C5 C1 C2 C3 -74.1(8)
C5 C6 C7 C8 -0.1(14)
C6 C5 C10 F1 179.4(7)
C6 C5 C10 C9 0.3(12)
C6 C7 C8 F2 -178.6(8)
C6 C7 C8 C9 0.2(14)
C7 C8 C9 C10 0.0(14)
C8 C9 C10 F1 -179.3(7)
C8 C9 C10 C5 -0.2(13)
C10 C5 C6 F3 -179.7(7)
C10 C5 C6 C7 -0.1(13)
C11 S1 N1 C1 -127.1(5)
C11 S1 N1 C4 55.5(6)
C11 C12 C13 C14 0.2(14)
C12 C11 C16 C15 2.3(12)
C12 C13 C14 C15 1.6(13)
C12 C13 C14 C17 -176.5(8)
C13 C14 C15 C16 -1.5(12)
C14 C15 C16 C11 -0.4(12)
C16 C11 C12 C13 -2.2(13)
C17 C14 C15 C16 176.5(7)
Br1A C2A C3A O1A 62.4(7)
S1A N1A C1A C2A 150.5(5)
S1A N1A C1A C5A -86.3(7)
S1A N1A C4A O1A -178.3(5)
S1A N1A C4A O2A 2.0(10)
S1A C11A C12A C13A -175.8(6)
S1A C11A C16A C15A 177.6(6)
F2A C8A C9A C10A 178.9(8)
F3A C6A C7A C8A 179.5(8)
O3A S1A N1A C1A 139.1(5)
O3A S1A N1A C4A -52.6(6)
O3A S1A C11A C12A 13.0(7)
O3A S1A C11A C16A -164.2(6)
O4A S1A N1A C1A 10.9(6)
O4A S1A N1A C4A 179.2(5)
O4A S1A C11A C12A 146.3(6)
O4A S1A C11A C16A -30.9(7)
N1A S1A C11A C12A -104.0(6)
N1A S1A C11A C16A 78.8(6)
N1A C1A C2A Br1A -70.7(6)
N1A C1A C2A C3A 49.9(8)
N1A C1A C5A C6A -26.9(11)
N1A C1A C5A C10A 155.8(7)
C1A N1A C4A O1A -10.7(10)
C1A N1A C4A O2A 169.7(7)
C1A C2A C3A O1A -57.5(8)
C1A C5A C6A F3A 3.2(13)
C1A C5A C6A C7A -177.7(8)
C1A C5A C10A F1A -1.2(11)
C1A C5A C10A C9A 177.7(8)
C2A C1A C5A C6A 95.7(10)
C2A C1A C5A C10A -81.6(9)
C3A O1A C4A O2A -176.6(7)
C3A O1A C4A N1A 3.7(10)
C4A O1A C3A C2A 30.5(9)
C4A N1A C1A C2A -17.1(9)
C4A N1A C1A C5A 106.1(8)
C5A C1A C2A Br1A 163.4(5)
C5A C1A C2A C3A -76.0(8)
C5A C6A C7A C8A 0.4(14)
C6A C5A C10A F1A -178.9(7)
C6A C5A C10A C9A 0.1(13)
C6A C7A C8A F2A -179.3(8)
C6A C7A C8A C9A -0.2(15)
C7A C8A C9A C10A -0.1(15)
C8A C9A C10A F1A 179.1(8)
C8A C9A C10A C5A 0.2(14)
C10A C5A C6A F3A -179.5(7)
C10A C5A C6A C7A -0.4(13)
C11A S1A N1A C1A -102.7(6)
C11A S1A N1A C4A 65.5(6)
C11A C12A C13A C14A -1.0(12)
C12A C11A C16A C15A 0.4(11)
C12A C13A C14A C15A -1.0(12)
C12A C13A C14A C17A 179.1(8)
C13A C14A C15A C16A 2.9(12)
C14A C15A C16A C11A -2.5(11)
C16A C11A C12A C13A 1.4(11)
C17A C14A C15A C16A -177.2(7)
