#------------------------------------------------------------------------------
#$Date: 2016-03-04 10:52:40 +0200 (Fri, 04 Mar 2016) $
#$Revision: 177368 $
#$URL: svn://www.crystallography.net/cod/cif/1/54/27/1542718.cif $
#------------------------------------------------------------------------------
#
# This file is available in the Crystallography Open Database (COD),
# http://www.crystallography.net/
#
# All data on this site have been placed in the public domain by the
# contributors.
#
data_1542718
loop_
_publ_author_name
'Pan, Hongjie'
'Huang, Hu'
'Liu, Weigang'
'Tian, Hua'
'Shi, Yian'
_publ_section_title
;
 Phosphine Oxide-Sc(OTf)3 Catalyzed Highly Regio- and Enantioselective
 Bromoaminocyclization of (E)-Cinnamyl Tosylcarbamates. An Approach to a
 Class of Synthetically Versatile Functionalized Molecules.
;
_journal_issue                   5
_journal_name_full               'Organic letters'
_journal_page_first              896
_journal_paper_doi               10.1021/acs.orglett.5b03459
_journal_volume                  18
_journal_year                    2016
_chemical_absolute_configuration ad
_chemical_formula_moiety         'C19 H23 N O3 S'
_chemical_formula_sum            'C19 H23 N O3 S'
_chemical_formula_weight         345.44
_space_group_crystal_system      orthorhombic
_space_group_IT_number           19
_space_group_name_Hall           'P 2ac 2ab'
_space_group_name_H-M_alt        'P 21 21 21'
_symmetry_space_group_name_Hall  'P 2ac 2ab'
_symmetry_space_group_name_H-M   'P 21 21 21'
_atom_sites_solution_hydrogens   mixed
_atom_sites_solution_primary     direct
_audit_creation_date             2015-07-16
_audit_creation_method
;
Olex2 1.2
(compiled 2015.01.26 svn.r3150 for OlexSys, GUI svn.r4998)
;
_cell_angle_alpha                90
_cell_angle_beta                 90
_cell_angle_gamma                90
_cell_formula_units_Z            4
_cell_length_a                   6.101(2)
_cell_length_b                   15.371(5)
_cell_length_c                   19.086(6)
_cell_measurement_reflns_used    5462
_cell_measurement_temperature    173.1500
_cell_measurement_theta_max      27.4848
_cell_measurement_theta_min      1.7011
_cell_volume                     1789.9(10)
_computing_cell_refinement       'CrystalClear (Rigaku Inc., 2007)'
_computing_data_collection       'CrystalClear (Rigaku Inc., 2007)'
_computing_data_reduction        'CrystalClear (Rigaku Inc., 2007)'
_computing_molecular_graphics    'Olex2 (Dolomanov et al., 2009)'
_computing_publication_material  'CIFTAB (Sheldrick, 2013)'
_computing_structure_refinement  'SHELXL (Sheldrick, 2014)'
_computing_structure_solution
;
'SHELXT (Sheldrick, 2014)'
;
_diffrn_ambient_temperature      173.1500
_diffrn_detector_area_resol_mean 28.5714
_diffrn_measured_fraction_theta_full 0.996
_diffrn_measured_fraction_theta_max 0.997
_diffrn_measurement_details
;
scan:
    Number of images: 360
               Slice: -110.0000 - 70.0000
         Image width: 0.5000
            Exp time: 15.0000
       Rotation axis: Omega
               Omega: 0.0000
                 Chi: 45.0000
                 Phi: 180.0000
                 XTD: 45.1145
              2theta: -19.8258
scan:
    Number of images: 360
               Slice: -110.0000 - 70.0000
         Image width: 0.5000
            Exp time: 15.0000
       Rotation axis: Omega
               Omega: 0.0000
                 Chi: 45.0000
                 Phi: 90.0000
                 XTD: 45.1145
              2theta: -19.8258
;
_diffrn_measurement_device
;
Saturn724+ (2x2 bin mode)
;
_diffrn_measurement_device_details
;
AFC10: Fixed Chi 2 circle
;
_diffrn_measurement_device_type  'Saturn724+ CCD'
_diffrn_measurement_method       '\w scans at fixed \c = 45\%'
_diffrn_orient_matrix_type       d*Trek
_diffrn_orient_matrix_UB_11      0.0268
_diffrn_orient_matrix_UB_12      -0.1422
_diffrn_orient_matrix_UB_13      0.0770
_diffrn_orient_matrix_UB_21      -0.0298
_diffrn_orient_matrix_UB_22      0.0231
_diffrn_orient_matrix_UB_23      0.0530
_diffrn_orient_matrix_UB_31      -0.0458
_diffrn_orient_matrix_UB_32      -0.0183
_diffrn_orient_matrix_UB_33      -0.0178
_diffrn_radiation_detector       CCD
_diffrn_radiation_monochromator  'Graphite Monochromator'
_diffrn_radiation_type           MoK\a
_diffrn_radiation_wavelength     0.71073
_diffrn_reflns_av_R_equivalents  0.0419
_diffrn_reflns_av_unetI/netI     0.0380
_diffrn_reflns_laue_measured_fraction_full 0.996
_diffrn_reflns_laue_measured_fraction_max 0.997
_diffrn_reflns_limit_h_max       7
_diffrn_reflns_limit_h_min       -7
_diffrn_reflns_limit_k_max       19
_diffrn_reflns_limit_k_min       -19
_diffrn_reflns_limit_l_max       21
_diffrn_reflns_limit_l_min       -24
_diffrn_reflns_number            14060
_diffrn_reflns_point_group_measured_fraction_full 0.997
_diffrn_reflns_point_group_measured_fraction_max 0.996
_diffrn_reflns_theta_full        26.000
_diffrn_reflns_theta_max         27.479
_diffrn_reflns_theta_min         3.404
_diffrn_source                   'Sealed Tube'
_diffrn_source_current           30.0000
_diffrn_source_power             1.5000
_diffrn_source_voltage           50.0000
_exptl_absorpt_coefficient_mu    0.197
_exptl_absorpt_correction_T_max  1.0000
_exptl_absorpt_correction_T_min  0.8662
_exptl_absorpt_correction_type   multi-scan
_exptl_absorpt_process_details   'CrystalClear (Rigaku Inc., 2007)'
_exptl_crystal_colour            Colorless
_exptl_crystal_density_diffrn    1.282
_exptl_crystal_description       plate
_exptl_crystal_F_000             736
_exptl_crystal_size_max          0.5
_exptl_crystal_size_mid          0.17
_exptl_crystal_size_min          0.05
_refine_diff_density_max         0.247
_refine_diff_density_min         -0.270
_refine_diff_density_rms         0.039
_refine_ls_abs_structure_details
;
 Flack x determined using 1380 quotients [(I+)-(I-)]/[(I+)+(I-)]
 (Parsons, Flack and Wagner, Acta Cryst. B69 (2013) 249-259).
;
_refine_ls_abs_structure_Flack   0.06(4)
_refine_ls_extinction_method     none
_refine_ls_goodness_of_fit_ref   1.162
_refine_ls_hydrogen_treatment    mixed
_refine_ls_matrix_type           full
_refine_ls_number_parameters     226
_refine_ls_number_reflns         4077
_refine_ls_number_restraints     0
_refine_ls_restrained_S_all      1.162
_refine_ls_R_factor_all          0.0490
_refine_ls_R_factor_gt           0.0457
_refine_ls_shift/su_max          0.001
_refine_ls_shift/su_mean         0.000
_refine_ls_structure_factor_coef Fsqd
_refine_ls_weighting_details
'w=1/[\s^2^(Fo^2^)+(0.0196P)^2^+0.6062P] where P=(Fo^2^+2Fc^2^)/3'
_refine_ls_weighting_scheme      calc
_refine_ls_wR_factor_gt          0.0813
_refine_ls_wR_factor_ref         0.0825
_reflns_Friedel_coverage         0.731
_reflns_friedel_fraction_full    0.997
_reflns_friedel_fraction_max     0.995
_reflns_number_gt                3896
_reflns_number_total             4077
_reflns_threshold_expression     'I > 2\s(I)'
_cod_data_source_file            ol5b03459_si_009.cif
_cod_data_source_block           sa4256
_cod_original_cell_volume        1790.0(10)
_cod_database_code               1542718
_shelx_space_group_comment
;
The symmetry employed for this shelxl refinement is uniquely defined
by the following loop, which should always be used as a source of
symmetry information in preference to the above space-group names.
They are only intended as comments.
;
_diffrn_number_total             2384
_olex2_refinement_description
;
1. Fixed Uiso
 At 1.2 times of:
  All C(H) groups, All C(H,H) groups
 At 1.5 times of:
  All C(H,H,H) groups
2.a Ternary CH refined with riding coordinates:
 C1(H1B), C2(H2)
2.b Secondary CH2 refined with riding coordinates:
 C3(H3A,H3B), C4(H4A,H4B)
2.c Aromatic/amide H refined with riding coordinates:
 C5(H5), C8(H8), C9(H9), C10(H10), C11(H11), C12(H12), C14(H14), C15(H15),
 C17(H17), C18(H18)
2.d X=CH2 refined with riding coordinates:
 C6(H6A,H6B)
2.e Idealised Me refined as rotating group:
 C19(H19A,H19B,H19C)
;
_shelx_res_file
;
    sa4256.res created by SHELXL-2014/7

TITL sa4256_a.res in P2(1)2(1)2(1)
CELL 0.71073 6.1013 15.3712 19.0861 90 90 90
ZERR 4 0.002 0.005 0.0061 0 0 0
LATT -1
SYMM 0.5-X,-Y,0.5+Z
SYMM -X,0.5+Y,0.5-Z
SYMM 0.5+X,0.5-Y,-Z
SFAC C H N O S
UNIT 76 92 4 12 4
EQIV $1 1-X,0.5+Y,0.5-Z

L.S. 4 0 0
PLAN  20
HTAB O1 S1_$1
HTAB O1 O2_$1
HTAB N1 O1
BOND $H
LIST 6
fmap 2 53
MORE -1
ACTA 52
CONF
HTAB
OMIT 0 2 1
OMIT 0 1 1
OMIT 0 0 2
REM <olex2.extras>
REM <HklSrc "%.\\sa4256.hkl">
REM </olex2.extras>

WGHT    0.019600    0.606200
FVAR       0.75906
S1    5    0.533573    0.578775    0.260826    11.00000    0.02051    0.02304 =
         0.02786    0.00304   -0.00197    0.00216
O1    4    0.470106    0.839483    0.206316    11.00000    0.03611    0.02207 =
         0.04096   -0.00335   -0.00251   -0.00379
O2    4    0.465665    0.501785    0.223733    11.00000    0.03631    0.02013 =
         0.03436    0.00027   -0.00300    0.00398
O3    4    0.761824    0.592779    0.273892    11.00000    0.01937    0.04260 =
         0.03958    0.00553   -0.00220    0.00297
N1    3    0.449937    0.661375    0.216759    11.00000    0.02179    0.01794 =
         0.02667    0.00099   -0.00254   -0.00222
C1    1    0.124534    0.758908    0.215970    11.00000    0.02183    0.02450 =
         0.02559   -0.00018    0.00016    0.00478
AFIX  13
H1B   2   -0.025558    0.761205    0.197779    11.00000   -1.20000
AFIX   0
C2    1    0.218898    0.669436    0.193740    11.00000    0.02016    0.02128 =
         0.02482    0.00257   -0.00112   -0.00120
AFIX  13
H2    2    0.134295    0.624388    0.218005    11.00000   -1.20000
AFIX   0
C3    1    0.246312    0.836012    0.183443    11.00000    0.03394    0.02316 =
         0.02860    0.00181   -0.00204    0.00336
AFIX  23
H3A   2    0.242219    0.831036    0.132796    11.00000   -1.20000
H3B   2    0.172878    0.889634    0.196361    11.00000   -1.20000
AFIX   0
C4    1    0.106614    0.767809    0.295726    11.00000    0.03197    0.02467 =
         0.02879    0.00012    0.00016    0.00329
AFIX  23
H4A   2    0.054856    0.713328    0.315322    11.00000   -1.20000
H4B   2    0.250733    0.779425    0.315035    11.00000   -1.20000
AFIX   0
C5    1   -0.046132    0.839267    0.316516    11.00000    0.02894    0.03833 =
         0.03226   -0.00514    0.00028    0.00382
AFIX  43
H5    2   -0.194807    0.830206    0.308631    11.00000   -1.20000
AFIX   0
C6    1    0.010191    0.912938    0.344627    11.00000    0.04566    0.03886 =
         0.04367   -0.00742    0.00138    0.00734
AFIX  93
H6A   2    0.157110    0.924765    0.353446    11.00000   -1.20000
H6B   2   -0.096415    0.953842    0.355929    11.00000   -1.20000
AFIX   0
C7    1    0.194821    0.653792    0.115393    11.00000    0.02872    0.01664 =
         0.02647   -0.00044   -0.00354    0.00430
C8    1   -0.004099    0.624399    0.090045    11.00000    0.02882    0.02814 =
         0.03509    0.00052   -0.00367   -0.00176
AFIX  43
H8    2   -0.118091    0.613031    0.121071    11.00000   -1.20000
AFIX   0
C9    1   -0.035245    0.611731    0.018969    11.00000    0.04015    0.03535 =
         0.04255   -0.00870   -0.01426    0.00658
AFIX  43
H9    2   -0.169035    0.591049    0.002609    11.00000   -1.20000
AFIX   0
C10   1    0.131350    0.629653   -0.027745    11.00000    0.05611    0.04398 =
         0.02738   -0.00879   -0.00960    0.01998
AFIX  43
H10   2    0.110155    0.621432   -0.075542    11.00000   -1.20000
AFIX   0
C11   1    0.329363    0.659832   -0.002974    11.00000    0.04841    0.04384 =
         0.02845    0.00044    0.00636    0.01425
AFIX  43
H11   2    0.441527    0.672524   -0.034346    11.00000   -1.20000
AFIX   0
C12   1    0.363148    0.671489    0.068357    11.00000    0.03040    0.03056 =
         0.02891   -0.00156    0.00164    0.00293
AFIX  43
H12   2    0.498048    0.691090    0.084649    11.00000   -1.20000
AFIX   0
C13   1    0.395368    0.578049    0.342132    11.00000    0.02385    0.02542 =
         0.02674    0.00659   -0.00207    0.00292
C14   1    0.194066    0.536248    0.347260    11.00000    0.02688    0.02666 =
         0.03279    0.00733   -0.00590    0.00059
AFIX  43
H14   2    0.139450    0.504207    0.309796    11.00000   -1.20000
AFIX   0
C15   1    0.076251    0.542994    0.408846    11.00000    0.02494    0.03795 =
         0.03528    0.01331    0.00028    0.00072
AFIX  43
H15   2   -0.058747    0.515229    0.412298    11.00000   -1.20000
AFIX   0
C16   1    0.153623    0.589882    0.465438    11.00000    0.03831    0.04781 =
         0.03098    0.00851    0.00231    0.00864
C17   1    0.357766    0.631044    0.459263    11.00000    0.04151    0.05318 =
         0.02742   -0.00191   -0.00459   -0.00043
AFIX  43
H17   2    0.413372    0.662292    0.497011    11.00000   -1.20000
AFIX   0
C18   1    0.477483    0.625929    0.398073    11.00000    0.02999    0.03948 =
         0.03350    0.00138   -0.00448   -0.00427
AFIX  43
H18   2    0.611704    0.654216    0.394291    11.00000   -1.20000
AFIX   0
C19   1    0.022470    0.595617    0.532512    11.00000    0.05099    0.08922 =
         0.03637    0.00574    0.00889    0.00494
AFIX 137
H19A  2   -0.131011    0.597527    0.521543    11.00000   -1.50000
H19B  2    0.062842    0.647386    0.557513    11.00000   -1.50000
H19C  2    0.052324    0.545579    0.561058    11.00000   -1.50000
AFIX   0
H1    2    0.477811    0.882516    0.228650    11.00000    0.05367
H1A   2    0.512007    0.706272    0.228800    11.00000    0.02836
HKLF 4

REM  sa4256_a.res in P2(1)2(1)2(1)
REM R1 =  0.0457 for    3896 Fo > 4sig(Fo)  and  0.0490 for all    4077 data
REM    226 parameters refined using      0 restraints

END

WGHT      0.0196      0.6053

REM Instructions for potential hydrogen bonds
EQIV $2 x-1, y, z
HTAB C2 O3_$2
HTAB O1 S1_$1
HTAB O1 O2_$1
HTAB N1 O1

REM Highest difference peak  0.247,  deepest hole -0.270,  1-sigma level  0.039
Q1    1   0.4574  0.5783  0.3049  11.00000  0.05    0.25
Q2    1  -0.1188  0.5378  0.5203  11.00000  0.05    0.15
Q3    1   0.4915  0.6190  0.2179  11.00000  0.05    0.15
Q4    1  -0.0431  0.5381  0.1812  11.00000  0.05    0.15
Q5    1   0.7446  0.6239  0.3226  11.00000  0.05    0.14
Q6    1   0.2381  0.6409 -0.0198  11.00000  0.05    0.13
Q7    1   0.2852  0.6327  0.0890  11.00000  0.05    0.13
Q8    1   0.2768  0.5794  0.3020  11.00000  0.05    0.13
Q9    1   0.1097  0.6237  0.1032  11.00000  0.05    0.12
Q10   1   0.4291  0.6210  0.5002  11.00000  0.05    0.12
Q11   1   0.2320  0.9228  0.3643  11.00000  0.05    0.12
Q12   1   0.3876  0.7571  0.3057  11.00000  0.05    0.12
Q13   1  -0.0770  0.6032  0.1951  11.00000  0.05    0.12
Q14   1   0.3162  0.6432  0.3084  11.00000  0.05    0.12
Q15   1   0.4464  0.7231  0.4473  11.00000  0.05    0.12
Q16   1   0.0696  0.6024 -0.0003  11.00000  0.05    0.12
Q17   1   0.1712  0.8177  0.2177  11.00000  0.05    0.12
Q18   1   0.1386  0.5641  0.3746  11.00000  0.05    0.12
Q19   1  -0.0941  0.6622  0.2291  11.00000  0.05    0.12
Q20   1   0.3452  0.6595  0.2074  11.00000  0.05    0.11
;
_shelx_res_checksum              17153
_shelx_hkl_file
;
   0   0  -1   -1.44    0.28
   0   0  -2   -0.57    0.55
   0   0  -2   -0.85    0.85
   0   0  -3   -0.26    1.04
   0   0  -3    0.85    1.00
   0   0  -3    2.83    2.46
   0   0   4 9808.18  196.79
   0   0  -4 9654.44  193.97
   0   0  -4 9999.00  200.94
   0   0  -5   14.48    4.05
   0   0   5    6.59    2.48
   0   0  -5   10.94    2.20
   0   0  -5    7.42    5.26
   0   0  -6   91.13    4.33
   0   0   6   83.86    2.83
   0   0  -6  111.93    9.44
   0   0  -6   80.60    4.25
   0   0  -7   10.40    3.49
   0   0   7    3.63    1.86
   0   0  -7    1.61    1.60
   0   0  -7   -2.55    3.82
   0   0  -8    3.94    3.31
   0   0   8    6.30    2.67
   0   0  -8    2.97    3.90
   0   0  -9    0.65    2.27
   0   0   9   14.49    3.64
   0   0  -9    0.19    3.10
   0   0 -10  568.08   15.33
   0   0  10  516.66   13.48
   0   0 -11    2.05    1.22
   0   0 -11    0.67    2.56
   0   0 -11   10.42    6.04
   0   0 -12   48.14    6.46
   0   0 -12   69.10    4.77
   0   0 -12   61.97    5.65
   0   0 -13    5.06    1.36
   0   0 -13    3.36    2.78
   0   0 -13    6.05    3.98
   0   0 -14    5.32    1.52
   0   0 -14   16.57    5.00
   0   0 -14   24.71    6.87
   0   0 -15    1.90    1.21
   0   0 -15    4.94    2.59
   0   0 -15   11.03    5.22
   0   0 -16  624.28   21.86
   0   0 -16  588.85   21.88
   0   0 -17    3.33    2.26
   0   0 -17   15.69    7.24
   0   0 -18   16.56    3.81
   0   0 -18   14.20    4.88
   0   0 -19    3.17    2.11
   0   0 -19   11.13    5.15
   0   0 -20    8.60    4.68
   0   0 -21   -6.33    4.56
   0   0 -22   20.30    6.65
   0   0 -23    7.86    4.45
   0   0 -24   -4.32    4.27
   0   1   0   -0.80    0.40
   0  -1   0   -1.74    0.46
   0  -1  -1    0.74    0.40
   0   1  -1    0.31    0.45
   0  -1   1   -0.66    0.48
   0  -1  -1    0.16    0.51
   0  -1   1    0.57    0.68
   0  -1  -3   16.15    2.56
   0   1  -3   13.93    1.14
   0  -1   3   15.21    1.33
   0  -1  -3   20.57    2.96
   0   1  -3   11.25    1.25
   0  -1  -4    7.39    1.04
   0  -1   4   17.76    2.55
   0  -1  -4    7.37    2.67
   0   1   4    3.53    1.48
   0  -1  -4    6.67    1.52
   0   1  -4    7.63    3.02
   0  -1  -5  506.94    7.42
   0   1  -5  522.90    7.91
   0  -1   5  520.65    7.90
   0  -1  -5  507.49    8.06
   0   1  -5  545.12    9.82
   0  -1  -6   73.54    2.98
   0   1  -6   71.81    3.56
   0  -1   6   65.48    2.58
   0  -1  -6   74.26    4.09
   0   1  -6   78.38    5.74
   0  -1  -7  525.26    7.90
   0   1  -7  537.16    8.66
   0  -1   7  520.20    8.07
   0  -1  -7  534.07    8.90
   0   1  -7  544.98   10.85
   0  -1   7  516.20    9.00
   0  -1  -7  493.79    9.06
   0  -1  -8    2.76    1.29
   0   1  -8    2.41    2.14
   0  -1  -8    2.63    2.56
   0  -1   8   -1.15    1.82
   0  -1  -8   -0.11    1.74
   0   1  -8    7.00    4.25
   0  -1  -9  943.30   19.96
   0   1  -9  990.38   21.17
   0  -1  -9  985.49   21.53
   0  -1   9  953.70   20.15
   0   1  -9 1017.94   23.04
   0  -1 -10   84.94    7.48
   0   1 -10   92.28    4.42
   0  -1 -10   93.19    4.87
   0  -1  10   83.24    3.63
   0   1 -10   99.59    7.26
   0  -1 -10   90.69    5.72
   0  -1 -11  294.89    8.33
   0   1 -11  291.84    8.66
   0  -1 -11  302.93    9.47
   0  -1  11  287.82    8.18
   0   1 -11  307.35   11.00
   0  -1 -11  272.11   10.43
   0  -1 -12   63.91    8.05
   0   1 -12   96.32    5.52
   0  -1 -12   93.81    6.22
   0  -1  12   82.12    3.85
   0   1 -12   85.71    7.47
   0  -1 -12   83.39    6.62
   0  -1 -13    9.86    1.51
   0   1 -13   10.75    3.33
   0  -1 -13   17.28    5.21
   0  -1  13    9.38    1.75
   0   1 -13   13.04    4.63
   0  -1 -13    7.35    4.05
   0   1 -14  335.53   11.13
   0  -1 -14  327.17   10.98
   0   1 -14  377.80   13.32
   0  -1 -14  378.67   14.07
   0   1 -14  343.70   14.78
   0  -1 -14  368.69   14.51
   0   1 -15  666.58   16.94
   0   1 -15  763.12   20.20
   0  -1 -15  752.43   20.87
   0   1 -15  760.05   22.38
   0  -1 -15  730.20   21.31
   0   1 -16  233.65    8.38
   0   1 -16  266.49   10.50
   0  -1 -16  296.58   11.91
   0   1 -16  252.46   13.29
   0  -1 -16  270.44   12.94
   0   1 -17    6.84    2.60
   0   1 -17   18.37    7.26
   0  -1 -17   15.77    6.95
   0   1 -18    2.35    2.30
   0  -1 -18    0.66    2.45
   0   1 -18    3.52    4.76
   0  -1 -18   17.47    7.68
   0  -1 -19   26.29    4.76
   0   1 -19   30.45    8.18
   0  -1 -19   35.78    7.86
   0   1 -20  215.01   12.89
   0  -1 -20  237.00   12.45
   0   1 -21  173.73   14.15
   0  -1 -21  177.25   14.81
   0   1 -22   93.57   11.07
   0  -1 -22   85.53    8.57
   0   1 -23   25.86    8.90
   0  -1 -23   32.54    7.63
   0   1 -24   95.70   14.24
   0  -1 -24   87.33   14.21
   0   2  -1 1442.24   18.60
   0   2   2   20.45    2.74
   0  -2  -2   20.01    2.22
   0   2  -2   18.14    1.88
   0   2   2   18.04    1.66
   0  -2  -2   17.37    1.58
   0  -2   2   14.07    1.53
   0   2   3  364.32    5.78
   0  -2  -3  360.75    6.80
   0   2  -3  365.43    5.51
   0  -2   3  364.55    5.54
   0  -2  -3  364.92    6.00
   0  -2   3  372.65    6.81
   0  -2  -4    9.51    1.66
   0   2  -4    8.65    1.85
   0  -2   4    9.53    1.60
   0  -2  -4    9.09    2.62
   0   2  -4    8.86    1.98
   0  -2   4   16.43    4.70
   0  -2  -5 3836.94   48.17
   0   2  -5 3917.69   48.98
   0  -2   5 3876.22   48.43
   0   2  -5 3963.30   50.86
   0  -2  -6  563.79    8.58
   0   2  -6  582.04    8.94
   0  -2   6  559.18    8.29
   0  -2  -6  570.53    9.33
   0   2   6  587.16    9.62
   0  -2  -6  548.91    8.66
   0   2  -6  605.60   11.60
   0  -2  -7 5780.23   72.47
   0   2  -7 6018.48   74.91
   0  -2   7 5818.13   72.29
   0  -2  -7 5958.97   74.74
   0   2   7 5945.61   74.76
   0  -2  -7 5675.88   71.31
   0   2  -7 5781.09   73.45
   0  -2  -8 1866.02   38.43
   0   2  -8 1910.68   39.25
   0  -2   8 1958.98   40.17
   0  -2  -8 1936.07   40.25
   0   2   8 1931.88   40.27
   0  -2  -8 1811.11   37.79
   0   2  -8 1924.46   40.80
   0  -2  -9  334.64    8.04
   0   2  -9  346.35    8.88
   0  -2   9  333.95    8.07
   0  -2  -9  336.04    8.87
   0   2   9  337.70    9.35
   0   2  -9  327.92   10.92
   0  -2 -10 2364.71   57.70
   0   2 -10 2469.65   60.22
   0  -2  10 2428.53   59.06
   0  -2 -10 2526.43   71.28
   0  -2 -10 2479.28   70.30
   0  -2 -11  144.49   10.96
   0   2 -11  183.17    6.35
   0  -2 -11  164.05    6.51
   0  -2  11  167.74    5.71
   0   2 -11  162.56    7.76
   0  -2 -11  172.52    8.55
   0  -2 -12  649.30   19.95
   0   2 -12  708.29   20.94
   0  -2 -12  698.63   21.33
   0  -2  12  694.67   20.24
   0   2 -12  701.98   22.89
   0  -2 -12  709.19   22.33
   0  -2 -13   92.33    7.28
   0   2 -13  131.85    5.81
   0  -2 -13  124.13    7.20
   0  -2  13  107.66    4.71
   0   2 -13  116.87    7.85
   0  -2 -13  117.51    7.72
   0   2 -14   81.80    7.12
   0  -2 -14   94.56    9.48
   0  -2  14   69.65    6.02
   0   2 -14   73.09    9.04
   0  -2 -14   91.21    8.99
   0   2 -15    2.60    3.06
   0  -2 -15   19.19    5.25
   0  -2  15    5.16    1.78
   0   2 -15    3.27    5.69
   0  -2 -15    3.58    4.83
   0   2 -16  213.79    7.67
   0   2 -16  267.39   10.16
   0  -2 -16  230.68   10.32
   0   2 -16  273.48   14.33
   0  -2 -16  254.51   13.09
   0   2 -17  134.40    5.87
   0  -2 -17  108.26    6.34
   0   2 -17  144.62    9.33
   0  -2 -17  119.29    9.96
   0   2 -18    6.92    2.35
   0  -2 -18   11.50    5.43
   0   2 -18    1.49    4.63
   0  -2 -18    9.28    6.72
   0  -2 -19    5.71    3.75
   0   2 -19   13.41    7.33
   0  -2 -19    9.64    4.46
   0   2 -20   16.15    7.57
   0  -2 -20    6.60    4.25
   0   2 -21   -2.76    4.34
   0  -2 -21    8.00    4.27
   0   2 -22   23.83    7.17
   0  -2 -22    4.40    4.11
   0   2 -23   17.45    6.26
   0  -2 -23    4.76    4.28
   0   2 -24   16.60    5.94
   0  -2 -24   21.09    6.99
   0   3   0    2.61    1.23
   0   3   0    4.31    2.20
   0  -3   0    5.07    2.10
   0  -3  -1 2157.29   27.75
   0  -3  -2 1403.39   18.60
   0   3  -2 1431.70   18.86
   0  -3   2 1405.08   18.96
   0  -3  -3 1641.94   21.93
   0  -3   3 1643.71   21.35
   0   3  -3 1705.56   23.69
   0  -3   3 1670.07   22.95
   0   3   4   32.35    4.38
   0  -3  -4   27.98    4.15
   0   3  -4   33.08    2.64
   0  -3   4   27.48    2.21
   0   3   4   42.69    5.51
   0  -3  -4   29.37    2.18
   0  -3   4   33.40    4.32
   0   3   5  184.07    8.21
   0   3  -5  175.20    4.19
   0  -3   5  178.11    4.06
   0   3   5  185.35    4.91
   0  -3  -5  178.21    4.17
   0  -3   5  159.55    5.04
   0   3   6  614.85    9.88
   0  -3  -6  602.06    9.31
   0   3  -6  593.64    9.18
   0  -3   6  596.00    9.36
   0   3   6  614.65    9.85
   0  -3  -6  599.77    9.45
   0  -3  -7  194.16    6.17
   0   3  -7  207.61    5.36
   0  -3   7  216.43    6.00
   0  -3  -7  217.46    6.56
   0   3   7  210.69    6.64
   0  -3  -7  214.69    5.91
   0   3  -7  211.45    8.67
   0  -3  -8   58.95    6.49
   0   3  -8   68.45    3.39
   0  -3   8   65.74    3.31
   0  -3  -8   72.84    4.89
   0   3   8   69.88    6.89
   0  -3  -8   62.17    5.91
   0   3  -8   62.38    4.89
   0  -3  -9    1.78    1.19
   0   3  -9    4.09    2.33
   0  -3   9    4.38    2.09
   0   3   9    9.08    3.34
   0  -3  -9    5.15    1.92
   0   3  -9    5.72    4.26
   0  -3 -10  657.06   16.98
   0   3 -10  698.52   17.93
   0  -3  10  691.60   17.83
   0  -3 -10  697.26   18.71
   0   3  10  729.76   19.91
   0   3 -10  717.64   20.16
   0   3 -11 1829.59   51.65
   0  -3  11 1824.02   51.42
   0  -3 -11 1803.33   51.49
   0   3  11 1807.93   51.69
   0   3 -11 1865.14   48.13
   0   3 -12    7.78    2.45
   0  -3  12    1.40    1.92
   0  -3 -12   -0.34    3.42
   0   3 -12    5.84    5.22
   0  -3 -12   -2.22    3.52
   0   3 -13  778.40   24.37
   0  -3 -13  788.71   25.93
   0  -3  13  741.54   23.13
   0   3 -13  789.80   26.77
   0  -3 -13  759.08   25.41
   0   3 -14   -2.16    1.53
   0  -3 -14   17.98    5.61
   0  -3  14    6.10    2.99
   0   3 -14   12.26    8.09
   0  -3 -14    5.81    4.15
   0   3 -15 1296.20   32.22
   0  -3 -15 1337.87   34.64
   0  -3  15 1190.92   29.49
   0   3 -15 1379.96   37.50
   0  -3 -15 1314.13   34.74
   0   3 -16   30.04    3.00
   0  -3 -16   35.85    5.09
   0   3 -16   25.71    8.27
   0  -3 -16   38.86    6.55
   0   3 -17   49.61    4.79
   0  -3 -17   51.04    7.34
   0   3 -17   37.07    6.65
   0  -3 -17   60.74    9.32
   0   3 -18    8.77    2.19
   0  -3 -18    7.65    3.07
   0   3 -18   27.37    7.84
   0  -3 -18   31.53    7.38
   0  -3 -19   32.75    6.44
   0   3 -19   24.44    8.01
   0  -3 -19   23.84    5.90
   0  -3 -20    8.78    3.56
   0   3 -20   13.50    5.44
   0  -3 -20    9.61    4.51
   0   3 -21  138.48   14.08
   0  -3 -21  153.42   14.66
   0   3 -22   18.96    5.31
   0  -3 -22   15.17    5.48
   0   3 -23   59.05   10.63
   0  -3 -23   36.02    8.38
   0   3 -24   34.12    9.68
   0  -3 -24   19.15    6.36
   0   4   1 5254.03   65.83
   0   4  -1 5136.20   64.60
   0  -4   1 5166.12   64.69
   0  -4   1 5094.24   64.02
   0  -4  -2 2847.16   36.55
   0   4  -2 2824.95   36.12
   0  -4   2 2843.83   36.40
   0   4   2 2801.45   35.86
   0   4  -2 2853.35   37.18
   0  -4   2 2774.87   36.24
   0  -4  -3 2847.52   36.65
   0  -4   3 2877.09   36.65
   0   4   3 3001.41   38.33
   0  -4  -3 2940.28   37.58
   0  -4   3 2869.55   37.29
   0   4   4  692.79   11.36
   0  -4  -4  651.20   10.14
   0   4  -4  650.48    9.72
   0  -4   4  661.03   10.10
   0   4   4  678.83   10.43
   0  -4  -4  682.45   10.55
   0  -4   4  649.43   10.83
   0   4  -5  449.98    7.45
   0  -4   5  421.42    7.09
   0   4   5  420.73    7.36
   0  -4  -5  424.18    7.29
   0   4  -5  442.45   11.16
   0  -4   5  436.05    8.48
   0   4   6   64.53    6.32
   0  -4  -6   56.21    5.77
   0   4  -6   59.45    3.12
   0  -4   6   60.54    3.11
   0   4   6   70.85    5.33
   0  -4  -6   56.18    2.64
   0  -4   6   55.35    3.55
   0   4   7   26.36    4.04
   0  -4  -7   16.49    1.83
   0   4  -7   21.69    2.13
   0  -4   7   21.17    2.57
   0   4   7   17.51    3.26
   0  -4  -7   16.59    1.73
   0   4  -7   35.39    5.78
   0  -4  -8  124.49    4.19
   0   4  -8  150.37    4.49
   0  -4   8  144.58    4.99
   0   4   8  167.83   11.92
   0  -4  -8  130.53    9.19
   0   4  -8  118.04    7.86
   0   4  -9  262.57    7.51
   0  -4   9  283.47    8.67
   0  -4  -9  261.03    8.90
   0   4   9  282.92    8.71
   0   4  -9  319.86   12.01
   0   4 -10   13.25    2.06
   0  -4  10   12.34    3.60
   0  -4 -10    5.75    3.18
   0   4  10   12.95    4.13
   0   4 -10   16.15    6.70
   0   4 -11  123.42    5.41
   0  -4  11  100.12    4.54
   0  -4 -11  111.28    5.98
   0   4  11  126.26   10.45
   0   4 -11  116.43    8.89
   0   4 -12    2.93    1.53
   0  -4  12   -2.76    1.98
   0  -4 -12    3.09    3.83
   0   4  12   13.76    3.76
   0   4 -12    5.93    5.33
   0   4 -13  414.78   13.66
   0  -4  13  386.85   12.95
   0  -4 -13  402.36   15.10
   0   4 -13  428.37   17.01
   0   4 -14  525.37   17.23
   0  -4  14  503.73   16.45
   0  -4 -14  559.22   19.84
   0   4 -14  543.24   20.47
   0  -4 -14  538.21   19.63
   0   4 -15   13.09    2.87
   0  -4 -15    9.64    3.85
   0  -4  15    5.16    1.35
   0   4 -15    2.37    5.64
   0  -4 -15   19.36    6.64
   0  -4 -16    4.50    3.61
   0   4 -16    7.55    5.64
   0  -4 -16    8.50    4.54
   0   4 -17    6.81    1.70
   0  -4 -17   22.84    5.21
   0   4 -17    7.51    5.31
   0  -4 -17   12.02    6.92
   0  -4 -18   58.36    9.83
   0   4 -18   54.50   11.38
   0  -4 -18   59.86    9.92
   0  -4 -19   76.87    7.33
   0   4 -19   87.32    9.72
   0  -4 -19   79.88    8.12
   0  -4 -20    2.16    2.57
   0  -4 -20    5.37    3.70
   0   4 -21    6.07    4.81
   0  -4 -21    2.23    3.76
   0   4 -22   21.89    8.64
   0  -4 -22    1.06    4.00
   0   4 -23   31.86    8.51
   0  -4 -23    4.92    4.12
   0   4 -24    7.16    5.18
   0  -4 -24   10.10    4.59
   0   5   0   -0.49    1.95
   0   5   0    1.41    3.37
   0  -5   0   -2.43    3.36
   0   5   1 5937.36   74.63
   0   5  -1 6113.20   76.67
   0   5   1 5885.61   73.78
   0  -5  -1 5820.11   72.95
   0   5   2  305.12    6.49
   0  -5  -2  325.34    6.49
   0   5  -2  310.32    6.17
   0  -5   2  290.75    5.71
   0   5   2  322.61    7.11
   0  -5  -2  295.63    6.01
   0  -5   2  291.83    6.67
   0   5   3 2010.33   27.02
   0  -5  -3 1918.21   25.77
   0   5  -3 1957.49   26.02
   0  -5   3 1888.17   25.16
   0   5   3 1964.50   26.17
   0  -5  -3 1941.96   25.73
   0  -5   3 1897.85   25.81
   0  -5  -4  474.81    8.45
   0   5  -4  495.44    8.24
   0  -5   4  466.94    7.79
   0   5   4  493.69    9.00
   0  -5  -4  493.70    8.26
   0   5  -4  485.53    9.79
   0  -5   4  477.73    8.93
   0   5  -5 1210.19   25.56
   0  -5   5 1206.96   25.60
   0   5   5 1224.02   26.95
   0  -5  -5 1206.23   25.59
   0  -5   5 1179.95   25.81
   0   5   6 2269.38   47.23
   0   5  -6 2213.66   45.62
   0  -5   6 2221.02   45.80
   0   5   6 2202.48   45.65
   0  -5  -6 2170.31   44.89
   0   5   7  272.10    7.71
   0   5  -7  286.21    7.60
   0  -5   7  260.76    7.01
   0   5   7  285.56    7.91
   0  -5  -7  269.47    7.16
   0   5  -7  295.26   10.51
   0   5   8 1461.67   37.15
   0   5  -8 1440.20   35.69
   0  -5   8 1411.73   35.06
   0   5   8 1458.12   36.50
   0  -5  -8 1358.05   33.94
   0   5  -8 1527.01   39.79
   0   5  -9  429.66   11.57
   0  -5   9  398.39   11.18
   0   5   9  436.74   12.65
   0   5  -9  453.84   15.90
   0   5 -10  768.93   22.40
   0  -5  10  760.32   22.42
   0  -5 -10  742.85   23.34
   0   5  10  795.10   24.56
   0   5 -10  754.19   24.59
   0   5 -11   11.34    2.94
   0  -5  11    6.48    3.00
   0  -5 -11   11.34    5.32
   0   5  11    1.12    3.35
   0   5 -11    9.61    7.63
   0   5 -12  644.44   20.37
   0  -5  12  670.38   21.30
   0  -5 -12  680.84   22.84
   0   5  12  694.28   23.14
   0   5 -12  685.70   23.91
   0   5 -13  263.20    9.23
   0  -5  13  243.15    9.10
   0  -5 -13  254.47   11.22
   0   5  13  312.26   17.80
   0   5 -13  296.44   14.91
   0   5 -14   98.38    7.01
   0  -5  14   97.60    7.20
   0  -5 -14  102.69    9.11
   0   5  14  111.76    9.28
   0   5 -14  108.55   10.49
   0   5 -15    6.50    2.16
   0  -5  15   -1.29    1.48
   0  -5 -15    7.93    4.01
   0   5 -15    2.74    5.68
   0  -5 -15   -2.52    3.65
   0   5 -16  394.60   11.79
   0  -5 -16  396.10   14.81
   0   5 -16  405.26   17.82
   0  -5 -16  427.28   15.24
   0   5 -17    5.11    2.09
   0  -5 -17   14.85    5.31
   0   5 -17    8.26    5.71
   0  -5 -17    5.21    3.82
   0  -5 -18   92.58    7.15
   0   5 -18  107.21   10.87
   0  -5 -18  102.14    8.38
   0  -5 -19   13.85    5.66
   0   5 -19   32.77    9.52
   0  -5 -19    9.25    3.80
   0  -5 -20   85.93    8.64
   0   5 -20   78.21    9.51
   0  -5 -20   79.92    8.20
   0   5 -21   11.20    5.49
   0  -5 -21   12.78    5.80
   0   5 -22   21.77    6.73
   0  -5 -22   24.66    7.59
   0   5 -23  125.65   18.55
   0  -5 -23  123.46   17.23
   0   6   0  116.17   12.09
   0  -6   0   71.88    3.10
   0   6   0   76.26    4.53
   0  -6   0   71.85    4.26
   0   6   1    6.33    2.36
   0   6  -1    4.17    2.03
   0  -6  -1    9.52    2.18
   0   6   1    1.59    2.77
   0   6  -1    1.10    3.48
   0  -6  -1    8.98    3.87
   0  -6   1    3.32    4.53
   0   6   2   68.87    9.77
   0  -6  -2   55.04    5.62
   0  -6   2   51.98    3.52
   0   6   2   65.25    4.00
   0  -6  -2   57.84    3.09
   0   6  -2   55.03    4.02
   0  -6   2   68.97    3.80
   0  -6  -3   66.33    7.31
   0   6  -3   87.26   10.46
   0  -6   3   70.74    3.26
   0   6   3   73.16    4.05
   0  -6  -3   70.92    3.37
   0   6  -3   63.73    4.58
   0   6  -4  596.80   13.60
   0  -6   4  582.32   13.51
   0   6   4  639.36   14.65
   0  -6  -4  603.21   13.89
   0   6   5  102.24   13.13
   0   6  -5   93.82    4.13
   0  -6   5   79.08    3.91
   0   6   5   76.91    4.32
   0  -6  -5   81.43    3.81
   0   6  -5   97.60    7.35
   0   6   6  289.02   10.87
   0   6  -6  272.73    7.20
   0  -6   6  261.30    7.24
   0   6   6  276.80    8.38
   0  -6  -6  279.35    7.49
   0   6   7  142.07   12.83
   0   6  -7  100.33    4.50
   0  -6   7  103.03    4.15
   0   6   7  118.66   12.38
   0  -6  -7   98.45    4.31
   0   6   8 1506.75   37.95
   0   6  -8 1446.78   35.97
   0  -6   8 1358.04   34.03
   0   6   8 1412.66   36.93
   0   6  -8 1456.26   38.66
   0   6   9   42.46    6.56
   0   6  -9   33.84    2.72
   0  -6   9   37.85    3.83
   0   6   9   34.56    4.51
   0   6  -9   29.60    5.87
   0   6 -10 2483.93   74.94
   0  -6  10 2425.38   68.34
   0   6  10 2397.80   67.97
   0   6 -10 2583.16   79.81
   0   6 -11  357.39   12.15
   0  -6  11  350.37   12.04
   0  -6 -11  388.69   14.71
   0   6  11  359.44   13.15
   0   6 -11  347.83   14.02
   0   6 -12  261.03    9.26
   0  -6  12  237.63    8.81
   0  -6 -12  276.52   11.80
   0   6  12  268.42   19.91
   0   6 -12  301.44   13.34
   0   6 -13   19.64    2.54
   0  -6  13    8.36    2.44
   0  -6 -13   14.07    6.17
   0   6  13    9.71    2.39
   0   6 -13   45.42   10.11
   0   6 -14  150.78    9.09
   0  -6  14  136.95    9.36
   0  -6 -14  140.49   11.99
   0   6  14  144.39   15.05
   0   6 -14  163.53   10.52
   0  -6 -15    5.48    3.96
   0   6  15    9.21    1.84
   0   6 -15    2.58    6.30
   0   6 -16  246.53    7.39
   0  -6 -16  254.78   10.25
   0   6 -16  243.89   13.18
   0  -6 -16  244.29   10.83
   0  -6 -17   34.99    7.17
   0   6 -17   34.62    8.63
   0  -6 -17   43.97    8.38
   0  -6 -18   87.64    8.58
   0   6 -18   93.13   11.32
   0  -6 -18   69.21    7.31
   0  -6 -19   17.06    6.75
   0   6 -19   13.12    7.45
   0  -6 -19    5.71    6.05
   0  -6 -20    9.45    4.46
   0   6 -20   13.20    5.78
   0  -6 -20    3.00    3.58
   0   6 -21    5.58    5.45
   0  -6 -21    4.28    3.25
   0   6 -22   52.71    9.89
   0  -6 -22   49.30    8.58
   0   6 -23   -2.14    5.48
   0  -6 -23   10.23    4.23
   0   7   0    1.91    2.27
   0   7   0    6.40    3.18
   0  -7   0    5.78    2.67
   0   7   1  301.38    8.29
   0   7  -1  297.56    8.30
   0   7   1  276.66    8.41
   0   7  -1  299.58    8.78
   0  -7  -1  286.81    7.88
   0  -7   1  275.67    8.39
   0   7   2  201.19    9.31
   0   7   2  190.27    6.67
   0  -7  -2  196.90    6.10
   0   7  -2  206.84    8.03
   0  -7   2  196.43    7.92
   0   7  -3  252.21    8.47
   0  -7   3  228.84    7.08
   0   7   3  265.19    8.05
   0  -7  -3  258.56    7.55
   0   7  -3  234.03    8.21
   0   7   4  412.77   10.72
   0   7  -4  428.38   11.04
   0  -7   4  379.49    9.59
   0   7   4  406.51   10.35
   0  -7  -4  385.07    9.64
   0   7  -4  385.58   11.05
   0   7  -5 1001.79   25.77
   0  -7   5  939.97   24.07
   0   7   5 1019.46   26.34
   0  -7  -5  956.54   24.46
   0   7   6  138.49    9.24
   0   7  -6  130.12    5.23
   0  -7   6  111.63    4.79
   0   7   6  125.51    5.15
   0  -7  -6  129.80    5.49
   0   7  -6  114.17    6.68
   0   7   7  645.37   18.06
   0   7  -7  661.52   17.62
   0  -7   7  599.99   16.00
   0   7   7  675.83   18.18
   0   7  -7  706.94   20.51
   0   7   8 1281.93   38.48
   0   7  -8 1236.10   35.57
   0  -7   8 1117.67   32.26
   0   7   8 1247.70   36.24
   0   7   9  139.05   14.32
   0   7  -9  121.26    5.39
   0  -7   9  100.58    4.88
   0   7   9  130.11   11.47
   0   7  10  361.62   13.09
   0   7 -10  327.70   11.16
   0  -7  10  309.68   10.99
   0   7  10  355.80   12.81
   0   7 -10  344.20   15.64
   0   7 -11  278.98    9.97
   0  -7  11  243.07    9.24
   0  -7 -11  275.50   11.82
   0   7  11  309.55   22.60
   0   7 -11  298.87   13.70
   0   7 -12  823.33   26.31
   0  -7 -12  822.24   27.73
   0   7  12  916.35   41.79
   0   7 -12  857.01   30.77
   0   7 -13   25.53    3.04
   0  -7  13   23.84    3.18
   0  -7 -13   22.53    6.81
   0   7  13   26.83    3.98
   0   7 -13   17.14    5.96
   0   7 -14  431.10   14.80
   0  -7 -14  439.15   17.21
   0   7  14  511.05   25.78
   0   7 -14  486.89   20.20
   0   7 -15    6.48    1.91
   0  -7 -15    6.49    4.25
   0   7  15    3.86    2.33
   0   7 -15    5.62    6.31
   0   7 -16  282.44    8.35
   0  -7 -16  287.70   11.58
   0   7  16  315.50   11.22
   0   7 -16  302.02   13.39
   0  -7 -17   70.05    7.58
   0   7 -17   77.40    9.29
   0  -7 -17   65.69   12.46
   0  -7 -18  276.76   13.90
   0   7 -18  268.47   15.18
   0  -7 -18  268.93   11.72
   0  -7 -19   15.07    5.03
   0   7 -19   15.70    7.53
   0  -7 -19   12.64    6.00
   0  -7 -20   40.73    6.35
   0   7 -20   46.98    8.45
   0  -7 -20   47.07    7.42
   0  -7 -21    1.03    3.03
   0   7 -21    8.57    6.05
   0  -7 -21    8.96    5.44
   0  -7 -22   19.04    6.29
   0   7 -23   27.10    8.97
   0  -7 -23   11.91    5.27
   0   8   0   62.61   10.44
   0   8   0   44.54    4.46
   0   8   1  156.35    9.06
   0   8  -1  149.12    5.46
   0   8   1  149.26    6.35
   0   8  -1  161.63    6.88
   0  -8  -1  157.98    6.28
   0   8   2  525.44   14.83
   0   8  -2  534.92   15.06
   0   8   2  525.69   14.86
   0   8  -2  532.95   16.12
   0  -8  -2  497.46   13.85
   0   8   3 1357.92   34.56
   0   8  -3 1412.84   35.60
   0   8   3 1439.03   36.33
   0  -8  -3 1303.24   32.86
   0   8  -3 1489.52   38.27
   0   8   4   38.98    4.83
   0   8  -4   44.03    6.55
   0   8   4   36.45    3.80
   0  -8  -4   35.44    3.39
   0   8  -4   35.53    4.42
   0   8  -5  513.15   14.34
   0   8   5  544.42   15.05
   0   8  -5  513.05   16.73
   0   8   6   18.39    2.98
   0   8  -6   19.26    3.59
   0   8   6    9.30    2.08
   0   8  -6   14.71    3.19
   0   8   7   -2.95    2.97
   0   8  -7    7.49    2.98
   0   8   7    9.87    3.89
   0   8  -7   16.07    8.10
   0   8   8   -3.34    2.66
   0   8  -8    7.23    3.61
   0   8   8    4.16    1.85
   0   8  -8    9.05    7.80
   0   8   9  263.98   11.59
   0   8  -9  266.98    9.76
   0   8   9  307.45   19.43
   0   8  -9  270.88   12.45
   0   8  10  529.19   19.04
   0   8 -10  509.35   17.06
   0   8  10  508.22   17.88
   0   8  11   50.31    5.55
   0   8 -11   56.41    5.72
   0   8  11   62.37    8.31
   0   8 -11   53.69    9.49
   0   8 -12  487.28   13.41
   0  -8 -12  497.88   16.28
   0   8  12  547.63   30.35
   0   8 -12  493.39   17.66
   0   8 -13  250.87    9.63
   0  -8 -13  247.32   13.34
   0   8  13  255.66   23.45
   0   8 -13  292.16   14.47
   0   8 -14    7.35    2.16
   0  -8 -14    7.55    5.06
   0   8  14    3.25    2.68
   0   8 -14    1.30    6.37
   0   8 -15  102.03    4.54
   0  -8 -15  117.73    8.98
   0   8  15  109.65   12.53
   0   8 -15  106.41    8.82
   0   8 -16  335.64   10.40
   0  -8 -16  340.84   14.10
   0   8  16  325.58   30.04
   0   8 -16  331.95   16.06
   0  -8 -17   65.22   12.12
   0   8  17   60.17   12.50
   0   8 -17   78.80    8.61
   0  -8 -18   30.76    7.49
   0   8 -18   28.28    9.27
   0  -8 -18   18.77    4.51
   0  -8 -19    1.82    3.68
   0   8 -19   13.31   11.09
   0  -8 -19    1.05    3.53
   0  -8 -20   22.96    6.00
   0   8 -20   23.55    9.32
   0  -8 -20   27.51    5.70
   0  -8 -21   44.16    7.90
   0   8 -21   49.01   10.23
   0  -8 -21   29.76    5.60
   0   8 -22    0.80    5.58
   0  -8 -22   12.61    5.25
   0   9   0    1.90    2.74
   0   9   0   15.78    4.96
   0   9   1  229.36    8.03
   0   9  -1  253.32   23.40
   0   9   1  243.71    8.44
   0   9  -1  219.55    8.62
   0   9   2    9.58    3.00
   0   9  -2    7.59    2.41
   0   9   2    5.88    4.52
   0   9  -2    2.09    4.33
   0   9   3  150.00   14.17
   0   9  -3  144.18   13.20
   0   9   3  123.28    6.84
   0   9  -3  141.94    7.82
   0   9   4   83.62   10.04
   0   9  -4   79.69    6.10
   0   9   4   61.24    4.97
   0   9  -4   63.10    5.04
   0   9   5  912.16   27.78
   0   9  -5  954.78   28.36
   0   9   5  916.58   27.22
   0   9  -5  915.95   28.04
   0   9   6   12.29    3.16
   0   9  -6    9.90    2.39
   0   9   6   10.87    4.39
   0   9  -6    8.43    4.74
   0   9   7  116.36   12.78
   0   9  -7  118.87    9.70
   0   9   7   94.20    5.79
   0   9  -7   96.89    7.29
   0   9   8    5.96    3.05
   0   9  -8    4.95    1.40
   0   9   8    4.42    2.93
   0   9  -8   13.05    5.93
   0   9   9  448.98   20.38
   0   9  -9  453.10   15.57
   0   9   9  462.84   16.17
   0   9  -9  425.80   17.63
   0   9  10   17.33    3.54
   0   9 -10   13.89    2.34
   0   9  10   16.63    3.43
   0   9 -10   17.36    6.37
   0   9  11  557.83   16.87
   0   9 -11  562.88   15.58
   0   9  11  600.02   32.90
   0   9 -11  527.81   17.36
   0   9 -12    8.65    2.78
   0  -9 -12   24.88    7.78
   0   9  12   -0.01    2.71
   0   9 -13  286.70    9.59
   0  -9 -13  262.42   12.13
   0   9  13  294.71   21.05
   0   9 -13  318.49   15.28
   0   9 -14  147.90    5.53
   0  -9 -14  176.80   10.81
   0   9  14  150.58   14.80
   0   9 -14  160.96   12.03
   0   9 -15  338.99   10.71
   0  -9 -15  346.01   14.79
   0   9  15  307.95   29.73
   0   9 -15  370.17   15.41
   0  -9 -16   25.95    5.99
   0   9  16   23.94    4.49
   0   9 -16   33.24    8.87
   0  -9 -17   59.02    8.15
   0   9  17   59.87   11.39
   0   9 -17   70.08    8.59
   0  -9 -18   16.79    7.42
   0   9 -18   -9.50    5.78
   0  -9 -19  101.80   10.14
   0   9 -19   82.23   10.21
   0  -9 -19  120.31   10.51
   0  -9 -20   16.16    5.95
   0   9 -20   10.23    6.41
   0  -9 -20   10.44    4.93
   0  -9 -21    3.24    3.52
   0   9 -21   -3.39    5.88
   0  -9 -21    9.98    4.96
   0   9 -22    7.04    5.81
   0  -9 -22    6.37    3.20
   0  10   0  193.24   19.56
   0  10   0  188.11    8.08
   0  10   1  467.63   17.09
   0  10  -1  487.15   19.86
   0  10   1  479.54   15.75
   0  10  -1  459.42   15.81
   0  10   2    7.28    3.18
   0  10  -2    4.39    1.94
   0  10   2   18.74    4.82
   0  10  -2   -3.58    4.50
   0  10   3 1340.90   39.58
   0  10  -3 1345.45   39.49
   0  10   3 1339.68   39.16
   0  10  -3 1316.77   39.09
   0  10   4  355.99   12.86
   0  10  -4  305.03   12.95
   0  10   4  344.19   12.97
   0  10  -4  338.70   14.02
   0  10   5  925.61   30.20
   0  10  -5  916.17   29.73
   0  10   5  962.93   30.61
   0  10  -5  906.09   30.60
   0  10  -6   89.43   11.20
   0  10   6   84.70    5.48
   0  10  -6   62.09    5.38
   0  10   7  186.81   12.62
   0  10  -7  157.75   12.89
   0  10   7  141.86   11.80
   0  10  -7  163.05   12.91
   0  10   8  243.90   13.73
   0  10  -8  259.52    9.86
   0  10   8  239.85   20.75
   0  10  -8  260.95   14.16
   0  10   9  220.90   11.00
   0  10  -9  214.06    7.93
   0  10   9  226.14   16.55
   0  10  -9  214.59   10.48
   0  10  10  529.32   22.40
   0  10 -10  518.10   15.03
   0  10  10  522.90   15.24
   0  10 -10  524.78   18.41
   0  10  11  106.23   13.37
   0  10 -11   93.49   11.36
   0  10  11  106.76   10.90
   0  10 -11  107.85   12.14
   0  10 -12   30.95    6.39
   0  10  12   38.88    5.63
   0  10 -12   36.21    6.57
   0  10 -13   37.75    7.85
   0 -10 -13   30.04    6.08
   0  10  13   41.81    6.99
   0  10 -13   43.42    7.40
   0  10 -14   17.09    3.71
   0 -10 -14   16.53    5.52
   0  10  14   18.98    4.24
   0  10 -15   16.83    4.87
   0 -10 -15   29.97    8.54
   0  10  15   18.11    3.83
   0  10 -15   10.62    8.51
   0 -10 -16   58.79    6.71
   0  10  16   51.69    8.63
   0  10 -16   87.97   11.33
   0 -10 -17   39.21    8.56
   0  10  17   48.91    9.46
   0  10 -17   76.67   11.53
   0 -10 -18   12.51    4.37
   0  10  18    9.78    2.77
   0  10 -18   11.52    5.79
   0 -10 -19   10.99    5.98
   0  10 -19    4.28    5.50
   0 -10 -19    6.21    4.40
   0 -10 -20   28.89    6.41
   0  10 -20   62.37   11.82
   0 -10 -20   43.02    7.21
   0 -10 -21   13.73    6.46
   0  10 -21   19.91   11.33
   0 -10 -21    6.75    3.22
   0  11   0    7.23    2.57
   0  11   0    3.45    5.72
   0  11   1   93.42   11.16
   0  11  -1   88.55   12.65
   0  11   1   87.91    6.46
   0  11  -1   82.18    6.58
   0  11   2  113.97   12.83
   0  11  -2  111.94    9.09
   0  11   2   98.37    6.25
   0  11  -2  102.07    6.43
   0  11   3  140.38   19.38
   0  11  -3  158.49   14.81
   0  11   3  157.20   13.75
   0  11  -3  141.49   12.45
   0  11   4   82.39   10.63
   0  11  -4  102.41   11.44
   0  11   4   84.80    8.43
   0  11  -4  105.77   10.34
   0  11   5   40.49    7.03
   0  11  -5   41.05    6.32
   0  11   5   34.15    5.27
   0  11  -5   33.32    5.94
   0  11  -6    9.51    3.98
   0  11   6    0.30    3.28
   0  11  -6   -0.91    4.73
   0  11   7   92.73   12.50
   0  11  -7   90.60   12.13
   0  11   7   93.01    7.72
   0  11  -7   61.43    7.33
   0  11   8  112.30   14.82
   0  11  -8   96.03   13.48
   0  11   8   92.10   11.35
   0  11  -8   76.85   10.08
   0  11   9   62.27    9.21
   0  11  -9   58.84    6.91
   0  11   9   53.69    6.82
   0  11  -9   73.08   10.47
   0  11  10   39.03    6.66
   0  11 -10   34.59    5.35
   0  11  10   39.47    6.19
   0  11 -10   24.65    6.48
   0  11  11   28.07    5.55
   0  11 -11   17.06    2.97
   0  11  11   11.19    2.61
   0  11 -11   24.81    6.48
   0  11  12   30.29    5.12
   0  11 -12   24.22    4.09
   0  11  12   30.77    5.58
   0  11 -12   26.47    8.73
   0  11 -13  159.45    6.67
   0 -11 -13  159.21    9.77
   0  11  13  168.80   18.49
   0  11 -13  167.60   10.14
   0  11 -14    5.76    1.58
   0 -11 -14   15.74    7.53
   0  11  14   17.26    3.67
   0  11 -14   19.31    7.65
   0  11 -15  246.11    9.29
   0 -11 -15  263.15   13.93
   0  11  15  229.60   21.99
   0  11 -15  252.00   14.16
   0 -11 -16   45.91    7.49
   0  11  16   50.84    7.67
   0 -11 -17   41.42    9.08
   0  11  17   19.22    6.23
   0  11 -17   36.60   10.77
   0 -11 -18   88.17   12.39
   0  11  18   68.15   12.60
   0  11 -18   78.93   11.63
   0 -11 -19  197.80   24.85
   0  11  19  174.01   20.92
   0  11 -19  243.48   53.87
   0 -11 -20   16.71    5.28
   0  11 -20   25.11    9.20
   0 -11 -20   24.75    6.26
   0  12   0 3117.85   97.09
   0  12   0 3177.67  196.88
   0  12   1   57.41   10.27
   0  12  -1   56.72   10.31
   0  12   1   57.99    7.40
   0  12  -1   59.67    7.89
   0  12   2 3011.74  162.50
   0  12  -2 2868.48   70.75
   0  12   2 2846.10   70.31
   0  12  -2 2902.60   72.11
   0  12   3   31.98    4.90
   0  12  -3   40.43    6.67
   0  12   3   26.37    5.58
   0  12  -3   31.16    5.77
   0  12   4 1311.98   34.59
   0  12  -4 1250.35   32.91
   0  12   4 1260.24   32.93
   0  12  -4 1277.95   34.37
   0  12   5    7.49    2.28
   0  12  -5    3.41    2.20
   0  12   5   11.17    3.54
   0  12  -5   -7.43    4.72
   0  12   6    5.90    1.54
   0  12  -6   21.77    3.55
   0  12   6   16.64    4.72
   0  12  -6    5.02    4.87
   0  12   7  197.87    9.62
   0  12  -7  200.03   18.17
   0  12   7  224.81    9.74
   0  12  -7  207.82   11.94
   0  12   8    4.74    2.09
   0  12  -8    2.30    2.46
   0  12   8    2.05    2.84
   0  12  -8    7.42    7.71
   0  12   9  116.29   13.34
   0  12  -9  116.89   10.45
   0  12   9  101.95    9.40
   0  12  -9  122.33   10.47
   0  12  10   14.33    3.34
   0  12 -10   12.04    3.59
   0  12  10   20.37    4.58
   0  12 -10   16.99    5.84
   0  12  11  129.70   14.00
   0  12 -11  111.34    6.08
   0  12  11  120.72   11.61
   0  12 -11  108.79    8.45
   0  12  12    8.61    3.15
   0  12 -12    8.32    2.85
   0  12  12   15.75    3.58
   0  12 -12   29.46   11.30
   0  12 -13   31.75    8.51
   0 -12 -13   41.70   10.50
   0  12  13   35.96    7.91
   0  12 -13   26.94    7.10
   0  12 -14   21.04    5.92
   0 -12 -14   32.25    9.77
   0  12  14   31.16    7.65
   0  12 -14   39.09   10.38
   0 -12 -15   74.25   10.43
   0  12  15   72.83    9.34
   0  12 -15   89.17   11.28
   0 -12 -16   77.92    8.67
   0  12  16   64.24    8.12
   0  12 -16   77.91    9.31
   0 -12 -17    4.75    4.82
   0  12  17    5.57    2.34
   0  12 -17    6.28    5.33
   0 -12 -18   44.46    8.60
   0  12  18   37.47    8.41
   0 -12 -19   -6.40    4.04
   0  12  19    3.82    1.72
   0  12 -19   10.52    6.64
   0  13   0   19.95    6.65
   0  13   1   17.25    3.91
   0  13  -1   17.61    4.60
   0  13   1   17.10    4.51
   0  13  -1   27.50    5.78
   0  13   2   70.66   11.93
   0  13   2   71.52    6.94
   0  13  -2   53.64    7.01
   0  13   3   24.03    4.19
   0  13  -3   34.04    5.68
   0  13   3   29.38    4.35
   0  13  -3   29.60    4.55
   0  13   4   10.41    4.24
   0  13  -4    5.72    2.81
   0  13   4   13.78    3.76
   0  13  -4   19.27    7.09
   0  13   5   32.11    6.23
   0  13  -5   24.40    5.54
   0  13   5   12.60    3.17
   0  13  -5   28.80    5.48
   0  13   6   89.27   12.00
   0  13  -6   96.22   10.96
   0  13   6   90.27    5.90
   0  13  -6   92.73    7.18
   0  13  -7  136.38   13.05
   0  13   7  122.22    6.10
   0  13  -7  122.25    7.65
   0  13   8    7.70    1.75
   0  13  -8    5.07    2.34
   0  13   8    3.23    2.47
   0  13  -8    8.91    5.23
   0  13   9   10.67    3.35
   0  13  -9    8.69    2.37
   0  13   9    9.83    3.39
   0  13  -9   10.15    5.23
   0  13  10   24.84    5.95
   0  13 -10   19.70    4.82
   0  13  10   20.55    4.68
   0  13 -10   12.85    7.54
   0  13  11   60.07   10.35
   0  13 -11   38.59    7.11
   0  13  11   41.06    9.58
   0  13 -11   56.90   11.02
   0  13  12   49.34    5.03
   0  13 -12   45.29    9.99
   0  13  12   58.52    7.24
   0  13 -12   54.26    9.33
   0  13 -13   20.42    5.65
   0 -13 -13   23.81    8.64
   0  13  13   22.94    5.67
   0  13 -13   15.43    7.52
   0  13 -14   78.10   11.52
   0 -13 -14  105.38   12.51
   0  13  14   81.02   12.76
   0  13 -14   97.78   12.12
   0 -13 -15  129.39   11.87
   0  13  15  133.79   18.86
   0  13 -15  150.72   13.58
   0 -13 -16   21.26    8.00
   0  13  16   12.72    3.81
   0  13 -16   48.42    9.62
   0 -13 -17    9.30    6.68
   0  13  17    3.76    2.10
   0  13 -17    0.41    5.56
   0 -13 -18  126.38   18.54
   0  13 -18   99.55   14.76
   0  14   0   31.63    9.92
   0  14   0   43.66    6.11
   0  14   1    5.69    2.63
   0  14  -1    7.62    3.10
   0  14   1    4.68    3.32
   0  14  -1    8.94    3.49
   0  14   2  236.06   23.19
   0  14  -2  249.73   21.17
   0  14   2  224.53   10.20
   0  14  -2  232.25   10.07
   0  14   3  106.19   11.70
   0  14  -3  121.44   19.31
   0  14   3  145.27    8.79
   0  14  -3  105.01    7.78
   0  14   4  136.43   19.49
   0  14  -4  126.27   10.23
   0  14   4  131.57    7.14
   0  14  -4  134.63    9.99
   0  14   5  169.94   13.69
   0  14  -5  195.85   15.04
   0  14   5  199.32    8.36
   0  14  -5  170.35    9.13
   0  14   6  165.79   21.39
   0  14  -6  126.61   15.54
   0  14   6  148.64    7.21
   0  14  -6  141.06    9.94
   0  14  -7  154.99   14.53
   0  14   7  166.36    8.56
   0  14  -7  154.74    8.76
   0  14   8  219.89   20.28
   0  14  -8  178.40   21.44
   0  14   8  193.60   10.29
   0  14  -8  209.65   13.73
   0  14   9  382.35   26.71
   0  14  -9  334.93   15.48
   0  14   9  362.33   24.23
   0  14  -9  334.20   17.29
   0  14  10  146.93   22.99
   0  14 -10  172.92   16.39
   0  14  10  152.99   19.42
   0  14 -10  118.38    8.27
   0  14  11   66.18   11.68
   0  14 -11   68.20   10.16
   0  14  11   61.78    9.06
   0  14 -11   52.87    8.46
   0  14  12   10.94    3.72
   0  14 -12   10.66    2.65
   0  14  12   12.60    3.52
   0  14 -12   26.43    8.84
   0  14 -13    4.37    2.55
   0 -14 -13   11.58    6.72
   0  14  13    4.52    2.21
   0  14 -13    3.33    4.67
   0 -14 -14   78.61   10.07
   0  14  14   64.83   10.65
   0  14 -14   84.62   10.92
   0 -14 -15   26.81   10.43
   0  14  15    6.51    3.55
   0  14 -15   18.12    7.09
   0 -14 -16    9.79    7.10
   0  14 -16   12.01    5.94
   0 -14 -17    9.95    6.71
   0  14 -17    8.26    5.45
   0  15   0    6.14    4.89
   0  15   0   10.08    4.62
   0  15  -1   39.99    7.67
   0  15   1   40.09    7.77
   0  15   1   22.61    5.18
   0  15  -1   27.55    5.69
   0  15   2   11.48    3.19
   0  15  -2   13.50    6.51
   0  15   2    8.10    4.32
   0  15  -2    7.70    3.42
   0  15   3    5.60    4.22
   0  15  -3   11.80    3.15
   0  15   3   10.16    5.44
   0  15  -3   11.94    5.53
   0  15   4   26.59    6.25
   0  15  -4   31.43    7.30
   0  15   4   27.64    5.01
   0  15  -4   22.16    6.34
   0  15   5  141.74   15.28
   0  15  -5  133.54   11.81
   0  15   5  104.45    6.51
   0  15  -5  127.78    9.34
   0  15   6   11.78    3.42
   0  15  -6   12.43    4.21
   0  15   6   14.26    3.75
   0  15  -6   30.08    7.84
   0  15   7   35.31    7.24
   0  15  -7   21.23    4.78
   0  15   7   13.87    4.31
   0  15  -7   25.23    8.11
   0  15   8   44.45    7.18
   0  15  -8   27.35    7.32
   0  15   8   26.62    5.69
   0  15  -8   45.95    8.01
   0  15   9    8.28    2.61
   0  15  -9    4.07    2.48
   0  15   9    9.66    3.64
   0  15  -9   20.10    9.03
   0  15  10   11.47    2.94
   0  15  10    2.36    1.44
   0  15 -10   10.87    7.12
   0  15  11   71.60   11.19
   0  15 -11   80.32   10.67
   0  15  11   82.09   12.76
   0  15 -11   62.13   10.14
   0  15 -12   10.15    3.39
   0  15  12   15.21    4.18
   0  15 -12   28.63    8.11
   0  15 -13  139.82   15.83
   0 -15 -13  139.41   18.94
   0  15  13  123.91   21.82
   0  15 -13  166.84   20.20
   0 -15 -14   17.17    8.90
   0  15  14   22.28    6.69
   0  15 -14   12.73    6.00
   0 -15 -15  128.62   19.13
   0  15 -15  105.53   15.46
   0 -15 -16    3.25    4.51
   0  15 -16    3.57    4.94
   0  16   0  212.34   26.00
   0  16   0  204.14   10.35
   0  16   1  333.74   25.85
   0  16  -1  333.47   16.38
   0  16   1  292.15   12.61
   0  16  -1  326.09   14.29
   0  16   2   95.76   12.67
   0  16  -2   87.27   11.11
   0  16   2  106.98    7.06
   0  16  -2   80.39    7.81
   0  16   3  426.01   67.16
   0  16  -3  427.76   67.34
   0  16   3  413.82   15.80
   0  16  -3  411.66   16.58
   0  16   4    7.43    2.93
   0  16  -4   10.01    4.56
   0  16   4    6.85    3.15
   0  16  -4    6.02    5.07
   0  16   5   81.46   12.38
   0  16  -5   68.47   14.86
   0  16   5   77.84    7.62
   0  16  -5   80.51    8.48
   0  16   6   99.30   12.42
   0  16  -6   79.63   15.42
   0  16   6  112.16    9.78
   0  16  -6   90.98   10.76
   0  16   7   92.96   13.87
   0  16  -7   72.89   14.55
   0  16   7   72.99    7.39
   0  16  -7   84.63    9.11
   0  16  -8    6.81    2.31
   0  16   8    7.86    3.52
   0  16  -8    6.00    4.34
   0  16   9   66.25   10.67
   0  16  -9   50.10   11.85
   0  16   9   50.28    7.94
   0  16  -9   56.95    6.99
   0  16  10    5.75    2.53
   0  16 -10    4.41    2.91
   0  16  10   12.71    3.75
   0  16 -10   10.71    6.83
   0  16  11   11.96    5.81
   0  16 -11   18.67    7.37
   0  16  11   19.38    5.32
   0  16 -11   38.31    8.80
   0  16  12   15.42    5.09
   0  16 -12    3.42    2.02
   0  16  12   16.73    4.39
   0  16 -12   13.08    7.76
   0 -16 -13   14.79    6.20
   0  16 -13   23.80    7.08
   0 -16 -14    8.73    5.00
   0  16 -14   11.44    5.93
   0  17   0    8.57    4.08
   0  17   0    4.68    3.23
   0  17   1   27.56    6.17
   0  17  -1   32.25    7.38
   0  17   1   33.98    7.03
   0  17  -1   34.25    7.67
   0  17   2   27.36    5.84
   0  17  -2   41.23    7.61
   0  17   2   36.54    7.73
   0  17  -2   41.83    6.16
   0  17   3   50.93    8.83
   0  17  -3   45.04    9.90
   0  17   3   56.52    6.67
   0  17  -3   69.52    8.20
   0  17   4   28.07    6.94
   0  17  -4   15.61    4.24
   0  17   4   27.59    6.41
   0  17  -4   35.67    8.32
   0  17   5  127.05   18.88
   0  17  -5   84.85   19.54
   0  17   5  117.17   10.22
   0  17  -5  107.86   11.22
   0  17   6  157.67   24.60
   0  17  -6  107.56   19.83
   0  17   6  140.41   10.72
   0  17  -6  139.94   12.00
   0  17   7   25.36    5.12
   0  17  -7   18.58    5.14
   0  17   7   17.72    3.99
   0  17  -7   17.21    4.71
   0  17   8   37.73    7.25
   0  17  -8   33.56    8.07
   0  17   8   43.28    6.56
   0  17  -8   36.55    7.04
   0  17   9   38.42    8.85
   0  17  -9   39.18    8.59
   0  17   9   31.38    5.67
   0  17  -9   52.25    9.63
   0  17  10   12.87    5.29
   0  17 -10    9.24    2.70
   0  17  10    8.83    3.42
   0  17 -10   30.04    6.60
   0  17  11   15.57    6.13
   0  17 -11   12.37    4.24
   0  17 -11    3.36    4.61
   0  17  12   36.10    6.53
   0  17 -12   49.02    8.54
   0  18   0    9.91    3.83
   0  18   0   19.96    5.59
   0  18   1   16.48    4.71
   0  18  -1    2.40    2.27
   0  18   1    9.28    4.05
   0  18  -1    4.38    2.97
   0  18   2    3.06    2.50
   0  18  -2   14.17    4.60
   0  18   2    6.12    3.01
   0  18  -2   17.95    6.40
   0  18   3   14.42    5.11
   0  18  -3    7.13    2.62
   0  18   3    5.48    2.84
   0  18  -3   14.84    5.70
   0  18   4    6.23    3.21
   0  18  -4   -0.26    2.88
   0  18   4    0.36    2.61
   0  18  -4    2.48    3.50
   0  18   5   11.19    5.61
   0  18  -5    9.67    4.37
   0  18   5    4.38    2.71
   0  18  -5   15.39    4.66
   0  18   6   42.51    8.62
   0  18  -6   37.93    7.17
   0  18   6   48.23    7.04
   0  18  -6   41.73    7.57
   0  18   7    7.83    5.11
   0  18  -7    7.73    3.93
   0  18   7    3.69    2.44
   0  18  -7    6.89    4.19
   0  18   8  148.22   26.88
   0  18  -8  157.00   26.88
   0  18  -8  174.09   23.10
   0  18   9    5.81    3.29
   0  18  -9    2.34    2.76
   0  18  -9   23.66    8.62
   0  18  10  340.74   43.06
   0  18 -10  261.42   39.96
   0  18 -10  317.62   38.16
   0  19   0    4.69    3.24
   0  19   0    2.42    3.87
   0  19  -1   41.18   11.85
   0  19   1   52.20   12.83
   0  19   1   69.74   10.08
   0  19  -1   48.63    7.71
   0  19   2   22.32    7.47
   0  19  -2   40.17   10.18
   0  19   2   36.34    8.23
   0  19  -2   48.59    9.07
   0  19   3   17.76    5.69
   0  19  -3   23.54    8.48
   0  19   3   16.14    5.06
   0  19  -3    6.95    3.52
   0  19   4    7.39    3.20
   0  19  -4   21.50    6.37
   0  19   4    8.15    3.82
   0  19  -4    7.61    3.70
   0  19   5   23.49    5.70
   0  19  -5   27.63    8.02
   0  19   5   17.89    4.88
   0  19  -5   19.14    6.08
   0  19   6   30.10    6.94
   0  19  -6   37.69    6.79
   0  19  -6   52.33    9.16
   0  19   7    6.24    3.40
   0  19  -7    8.39    2.92
   0  19  -7    9.15    3.91
   1   0   0    5.70    2.88
   1   0   0    2.33    2.16
  -1   0   1 2122.11   26.90
   1   0  -1 2159.32   27.36
   1   0   1 2112.63   27.08
   1   0   1 2135.28   27.29
   1   0  -1 2136.46   26.85
  -1   0   2  185.14    3.50
   1   0  -2  181.97    3.35
  -1   0  -2  189.80    4.70
   1   0   2  191.13    4.20
   1   0  -2  188.59    4.05
  -1   0   2  188.20    3.66
  -1   0   3 3366.07   41.77
   1   0  -3 3373.11   41.91
  -1   0  -3 3427.82   43.67
   1   0   3 3408.57   43.25
  -1   0   3 3383.25   42.39
  -1   0   4 3134.85   38.85
   1   0  -4 3013.49   37.42
  -1   0  -4 3158.44   41.43
   1   0   4 3057.64   39.54
   1   0   4 3053.31   38.99
  -1   0   4 3088.45   39.01
  -1   0   5 7147.98   87.75
   1   0  -5 7017.57   86.22
  -1   0  -5 7216.41   90.28
   1   0   5 7171.59   89.50
   1   0   5 7146.60   89.19
  -1   0   5 7072.75   87.75
  -1   0   6  487.37    6.78
   1   0  -6  474.32    6.45
   1   0   6  478.53    9.03
   1   0   6  434.27   10.99
   1   0  -6  492.42    8.53
  -1   0   6  469.03    7.81
   1   0  -7  975.53   12.58
  -1   0  -7  988.95   15.70
   1   0   7  949.75   14.24
   1   0  -7  967.74   12.54
  -1   0  -7  907.09   13.46
   1   0  -7  992.89   14.94
  -1   0   7  949.33   14.24
   1   0  -8 4708.49   94.67
  -1   0  -8 4835.68  117.51
   1   0   8 4623.15   93.99
   1   0  -8 4792.77  115.21
   1   0  -8 4895.44  118.66
  -1   0   8 4698.75   95.44
   1   0  -9 1074.48   22.02
   1   0  -9 1110.03   22.93
   1   0   9 1070.01   23.40
   1   0  -9 1054.62   23.61
  -1   0   9 1029.86   22.51
   1   0 -10   18.53    1.19
  -1   0 -10   17.55    3.84
   1   0 -10   11.18    1.67
   1   0  10   26.60    2.56
   1   0 -10   17.96    4.61
  -1   0 -10   12.75    4.35
   1   0 -11  116.04    3.55
  -1   0 -11  123.39    7.03
   1   0 -11  116.09    4.19
   1   0 -11  103.61    6.66
  -1   0 -11  116.11    8.68
   1   0 -12  115.13    4.57
  -1   0 -12  132.78    7.55
   1   0 -12  117.43    4.69
   1   0 -12  135.10    8.35
  -1   0 -12  123.20    7.59
   1   0 -13   27.50    2.66
  -1   0 -13   34.12    5.04
   1   0 -13   24.66    2.43
   1   0 -13   22.40    5.18
  -1   0 -13   32.88    5.34
   1   0 -14  111.19    8.74
   1   0 -14  110.77    8.93
  -1   0 -14  108.16   10.26
   1   0 -14  110.65   10.86
  -1   0 -14  108.57   10.72
   1   0 -15   29.67    2.48
   1   0 -15   27.88    3.19
  -1   0 -15   43.84    6.52
   1   0 -15   26.61    7.05
  -1   0 -15   34.81    8.57
   1   0 -16   63.51    4.17
  -1   0 -16   72.66    6.39
   1   0 -16   62.93    7.16
  -1   0 -16   81.49   10.45
   1   0 -17   53.62    4.97
  -1   0 -17   30.50    5.23
   1   0 -17   70.68   10.77
  -1   0 -17   46.73    8.82
  -1   0 -18  368.78   12.67
   1   0 -18  361.22   14.42
  -1   0 -18  328.22   13.94
  -1   0 -19    6.96    3.54
   1   0 -19   10.04    4.57
  -1   0 -19   23.28    5.71
  -1   0 -20   14.90    5.78
   1   0 -20    2.06    4.46
  -1   0 -20    6.00    4.53
   1   0 -21    5.09    4.32
  -1   0 -21    1.22    4.59
   1   0 -22   10.07    3.97
  -1   0 -22    1.58    4.86
   1   0 -23   23.11    7.90
  -1   0 -23   27.17    6.12
   1   0 -24   22.63    7.37
  -1   0 -24    5.18    4.47
  -1   1   0 2973.55   37.71
   1  -1   0 2873.78   36.35
   1   1   0 2950.24   37.14
   1  -1   0 2968.78   36.78
   1   1   0 2980.77   37.62
  -1   1   1 3650.90   45.71
   1  -1  -1 3701.96   46.34
   1  -1   1 3642.71   45.87
   1   1  -1 3620.99   45.05
   1   1   1 3677.22   46.17
   1  -1   1 3693.21   45.86
   1   1   1 3808.01   47.75
  -1   1   1 3634.25   44.75
   1   1  -1 3649.90   45.72
   1  -1  -2 2075.71   26.43
  -1   1  -2 2092.85   27.26
  -1  -1   2 2083.20   26.24
   1  -1   2 2076.02   26.52
   1   1   2 2098.39   27.13
   1   1  -2 2092.96   26.94
  -1   1   3 1126.42   14.86
  -1   1  -3 1160.44   17.19
  -1  -1   3 1128.77   14.56
  -1  -1  -3 1134.08   16.34
   1   1  -3 1142.41   14.59
   1   1   3 1131.93   15.98
   1  -1   3 1145.63   15.78
  -1   1  -3 1069.48   14.68
   1   1   3 1126.39   15.67
   1   1  -3 1127.49   16.03
   1  -1  -3 1114.59   14.48
  -1   1   3 1138.24   14.69
   1  -1  -4 2341.57   29.59
   1   1   4 2131.88   28.20
  -1   1   5  142.07    4.06
   1  -1  -5  142.25    3.03
  -1   1  -5  151.04    6.29
   1  -1   5  128.49    4.14
  -1  -1  -5  128.47    5.63
   1  -1   5  149.83    8.74
  -1   1  -5  159.79   11.72
  -1  -1  -5  146.48   10.77
   1   1  -5  145.89    5.96
  -1  -1   5  137.66    4.84
   1  -1  -5  152.85    4.93
  -1   1   5  137.11    3.62
  -1   1   6 1111.60   14.63
   1  -1  -6 1049.16   13.93
   1  -1   6 1087.05   16.21
  -1  -1  -6 1120.02   17.50
   1   1   6 1027.59   15.31
  -1  -1  -6 1035.95   14.99
   1  -1  -6 1058.20   14.91
  -1  -1   6 1016.49   14.71
  -1   1   6 1067.19   14.70
  -1   1   7  764.01   10.64
   1  -1  -7  774.28   10.60
  -1   1  -7  796.72   13.52
   1  -1   7  769.21   12.62
  -1  -1  -7  789.15   13.34
   1   1   7  728.08   11.45
   1   1   7  765.30   17.12
  -1  -1  -7  725.58   11.38
   1   1  -7  735.35   12.43
   1  -1  -7  785.78   12.01
  -1  -1   7  741.77   11.86
  -1   1   8  127.55    5.21
   1  -1  -8  124.74    3.40
  -1   1  -8  127.00    7.18
  -1  -1  -8  126.19    6.23
   1  -1   8  126.22    5.11
   1   1   8  123.56    4.72
   1  -1  -8  119.16    4.03
   1   1  -8  142.64    7.06
   1  -1  -8  125.80    4.93
  -1  -1   8  130.97    5.34
  -1   1  -8   99.74    5.73
   1  -1  -9  513.70   11.15
   1   1  -9  546.57   11.13
  -1  -1  -9  539.21   14.01
   1  -1   9  509.74   12.38
   1   1   9  496.82   11.92
   1  -1  -9  533.22   11.87
   1  -1  -9  513.41   11.73
   1   1  -9  506.20   12.94
  -1   1  -9  516.09   14.49
   1  -1 -10  204.56    5.74
   1   1 -10  205.58    5.19
   1   1 -10  209.90    5.36
  -1   1 -10  224.55    9.03
  -1  -1 -10  219.92    9.01
   1  -1  10  207.14    7.65
   1  -1 -10  197.35    6.01
   1   1 -10  208.80    8.63
   1  -1 -10  214.50    8.16
  -1   1 -10  227.16    9.74
   1  -1 -11  147.02    4.55
   1   1 -11  141.63    3.74
   1   1 -11  150.47    4.15
  -1   1 -11  161.12    7.57
  -1  -1 -11  152.16    7.65
   1  -1  11  125.52    5.21
   1  -1 -11  158.95    5.60
   1   1  11  176.25    8.27
   1   1 -11  148.63    8.94
   1  -1 -11  156.73    7.39
  -1   1 -11  157.86    8.83
   1  -1 -12   20.28    2.05
   1   1 -12   17.96    1.09
   1   1 -12   16.37    1.29
  -1   1 -12   13.74    4.06
  -1  -1 -12   14.53    6.18
   1  -1 -12   11.04    2.38
   1   1 -12   15.91    4.55
   1  -1 -12    9.77    3.78
  -1   1 -12    7.96    4.68
  -1  -1 -12   13.79    4.26
   1  -1 -13  152.16    7.06
   1   1 -13  149.92    4.90
   1   1 -13  147.81    5.02
  -1   1 -13  172.14    9.37
  -1  -1 -13  151.40    9.10
   1  -1 -13  157.83    6.56
   1   1 -13  150.38    8.71
   1  -1 -13  144.58    7.80
  -1   1 -13  168.77   10.32
  -1  -1 -13  155.99    9.89
   1  -1 -14  218.36    7.78
   1   1 -14  217.45    7.03
   1   1 -14  216.58    7.16
  -1   1 -14  218.69   10.28
  -1  -1 -14  246.85   11.00
   1  -1 -14  218.58    8.19
   1   1 -14  214.51   10.17
   1  -1 -14  227.14   10.19
  -1   1 -14  212.98   10.99
  -1  -1 -14  237.21   12.61
   1  -1 -15  124.29    8.66
   1   1 -15  135.39    8.57
   1   1 -15  131.94    8.46
  -1   1 -15  150.03   11.27
  -1  -1 -15  154.11   11.40
   1  -1 -15  145.07   10.35
   1   1 -15  146.61   12.83
   1  -1 -15  130.47   10.13
  -1   1 -15  117.74   10.46
  -1  -1 -15  150.36   11.94
   1   1 -16  272.94    9.11
  -1   1 -16  304.77   12.76
  -1  -1 -16  315.10   13.22
   1  -1 -16  298.90   10.96
   1   1 -16  298.56   14.81
   1  -1 -16  274.47   12.68
  -1   1 -16  283.33   16.03
  -1  -1 -16  299.67   14.99
  -1   1 -17   76.30    6.39
  -1  -1 -17   64.34    7.97
   1  -1 -17   60.08    5.72
   1   1 -17   85.23    8.46
   1  -1 -17   71.03    7.99
  -1   1 -17   73.53    9.41
  -1  -1 -17   74.08    9.74
  -1   1 -18   31.17    5.67
  -1  -1 -18   24.06    5.50
   1   1 -18   14.71    5.25
   1  -1 -18   31.93    6.80
  -1   1 -18   18.74    5.88
  -1  -1 -18   22.25    6.40
  -1   1 -19   57.96    8.46
  -1  -1 -19   56.35    9.01
   1   1 -19   62.25    8.89
   1  -1 -19   44.73    7.36
  -1   1 -19   55.68    9.13
  -1  -1 -19   46.73    8.75
  -1   1 -20   69.14    5.67
  -1  -1 -20   65.35    6.57
   1   1 -20   58.14    7.54
   1  -1 -20   56.48    6.80
  -1   1 -20   78.62    9.85
  -1  -1 -20   59.96    9.58
   1   1 -21  114.74   11.63
   1  -1 -21  109.66   10.73
  -1   1 -21  108.51   10.96
  -1  -1 -21  128.60   13.24
   1   1 -22   60.02    7.41
   1  -1 -22   67.57    8.49
  -1   1 -22   78.46   11.67
  -1  -1 -22   66.03    7.93
   1   1 -23  185.57   23.33
   1  -1 -23  232.01   28.23
  -1   1 -23  251.66   55.12
  -1  -1 -23  221.12   27.03
   1   1 -24   18.47    6.94
   1  -1 -24   13.47    4.86
  -1   1 -24    5.25    5.14
  -1  -1 -24   23.80    8.41
   1  -2   0  816.14   11.76
  -1  -2   0  801.05   11.27
   1   2   0  808.42   11.38
  -1   2   0  829.00   10.66
   1   2   0  802.29   11.64
  -1   2   0  820.20   10.65
   1  -2  -1 1551.94   20.46
   1  -2   1 1439.59   19.44
  -1  -2  -1 1553.46   20.60
   1   2   1 1547.73   20.40
   1   2  -1 1553.40   20.04
  -1   2  -1 1597.12   20.28
   1   2  -1 1593.98   21.24
  -1   2  -1 1590.98   20.33
  -1  -2   2 7088.72   87.32
   1  -2  -2 7112.12   88.16
  -1   2  -2 7253.63   90.41
   1  -2   2 7134.67   88.76
  -1  -2   2 7119.56   87.82
   1   2   2 7006.18   87.02
   1   2   2 6636.76   82.75
   1   2  -2 7285.90   90.60
  -1  -2   3 3772.56   46.70
  -1   2   3 3781.30   47.48
  -1   2  -3 3902.29   49.94
   1  -2   3 3687.27   46.90
  -1  -2  -3 3964.28   50.75
  -1  -2   3 3791.04   47.04
   1  -2  -3 3817.16   47.03
  -1  -2  -3 3637.82   46.32
   1   2  -3 3814.01   48.69
   1  -2  -3 3873.76   47.77
  -1  -2   4   65.16    3.48
  -1   2   4   66.01    2.81
   1  -2  -4   63.72    2.82
  -1   2  -4   60.38    4.94
  -1  -2  -4   75.23    5.67
  -1  -2   4   60.49    1.86
  -1   2  -4   69.90    5.73
   1  -2  -4   58.42    1.72
  -1  -2  -4   68.61    3.55
   1   2  -4   73.68    5.74
   1  -2  -4   62.45    2.26
  -1   2  -4   67.82    3.94
  -1  -2  -5  529.10    9.16
  -1   2   6  181.97    7.44
   1  -2  -6  177.69    3.93
  -1   2  -6  184.38    6.75
   1  -2   6  176.08    5.69
  -1  -2  -6  169.41    7.05
   1   2   6  168.75    5.12
   1  -2  -6  172.33    4.48
  -1  -2  -6  179.58    4.67
   1   2  -6  177.90    6.86
  -1  -2   6  187.33    5.82
   1  -2  -6  169.17    4.10
  -1   2   7  405.47    9.97
   1  -2  -7  390.68    8.88
  -1   2  -7  412.75   11.16
   1  -2   7  391.98   10.32
   1   2   7  388.19    9.70
   1  -2  -7  377.01    8.69
  -1  -2  -7  393.41    9.70
   1   2  -7  417.58   11.84
  -1  -2   7  372.11    9.49
   1  -2  -7  373.53    9.05
  -1   2  -7  414.61   11.35
  -1   2   8  312.99    8.98
   1  -2  -8  292.00    6.95
  -1   2  -8  289.13    9.12
   1  -2   8  301.83    8.46
  -1  -2  -8  278.05   10.26
   1   2   8  278.78    7.93
   1  -2  -8  287.66    7.05
   1   2   8  295.73    8.66
   1  -2  -8  297.86    7.92
  -1   2   9 1580.55   33.79
   1  -2  -9 1487.49   30.87
  -1   2  -9 1531.50   33.05
   1  -2   9 1489.39   31.69
  -1  -2  -9 1568.90   34.01
   1   2   9 1415.74   30.57
   1   2  -9 1550.26   33.67
   1  -2  -9 1504.85   31.94
   1  -2 -10  734.85   18.63
  -1   2 -10  760.88   20.85
   1  -2  10  724.34   19.18
  -1  -2 -10  728.90   20.65
   1  -2 -10  723.51   18.62
   1   2  10  766.64   20.60
   1  -2 -10  685.19   17.70
   1   2 -10  776.72   21.98
   1  -2 -10  760.92   20.19
   1  -2 -11   28.69    2.31
  -1   2 -11   31.42    4.28
  -1  -2 -11   53.95    6.70
   1  -2  11   41.45    3.47
   1  -2 -11   27.36    2.51
   1   2  11   37.12    5.74
   1   2 -11   25.00    4.48
   1  -2 -11   20.83    3.38
  -1   2 -11   29.14    5.03
   1  -2 -12  449.35   13.47
  -1   2 -12  503.37   16.81
  -1  -2 -12  489.58   17.86
   1  -2 -12  476.22   14.74
   1   2  12  472.00   15.73
   1   2 -12  512.36   17.37
   1  -2 -12  477.95   15.73
  -1   2 -12  521.09   18.40
   1  -2 -13  139.32    9.29
  -1   2 -13  158.90    8.53
  -1  -2 -13  189.62   10.54
   1  -2 -13  162.27    6.86
   1   2  13  155.85    7.95
   1   2 -13  179.10    9.72
   1  -2 -13  161.24    9.02
  -1   2 -13  179.55    9.67
   1  -2 -14   10.40    2.41
  -1   2 -14   19.68    6.72
  -1  -2 -14    4.82    4.75
   1  -2 -14    3.24    3.08
   1   2 -14    5.27    7.10
   1  -2 -14   12.30    3.74
  -1   2 -14    8.35    5.85
  -1  -2 -14    9.33    4.82
   1  -2 -15   77.50    5.53
  -1   2 -15   97.20    8.56
  -1  -2 -15   79.90    8.46
   1  -2 -15   78.89    6.68
   1   2 -15   90.24   10.54
   1  -2 -15   78.77    7.55
  -1   2 -15   80.59    9.90
  -1  -2 -15   65.51    8.15
  -1   2 -16  141.05    9.42
  -1  -2 -16  158.25   11.96
   1  -2 -16  151.75    9.88
   1   2 -16  134.84   12.55
   1  -2 -16  145.08   10.77
  -1   2 -16  145.31   12.70
  -1  -2 -16  146.98   12.77
  -1   2 -17  129.25    7.78
  -1  -2 -17  104.72    7.54
   1  -2 -17  102.67    4.85
   1   2 -17  106.38    9.47
   1  -2 -17  118.51    7.00
  -1   2 -17  109.33    9.25
  -1  -2 -17  142.96    9.37
  -1   2 -18  137.25    6.93
  -1  -2 -18  152.51    8.90
   1  -2 -18  152.43    6.43
   1   2 -18  144.69   10.23
   1  -2 -18  163.70    8.98
  -1   2 -18  157.88   10.49
  -1  -2 -18  134.97    9.31
  -1   2 -19   12.87    3.59
  -1  -2 -19    8.80    3.88
   1   2 -19   11.15    7.44
   1  -2 -19    9.07    5.39
  -1   2 -19    5.33    6.99
  -1  -2 -19   12.82    7.55
  -1  -2 -20   60.96    7.39
   1   2 -20   84.38    9.76
   1  -2 -20   62.88    5.70
  -1   2 -20   66.21    8.42
  -1  -2 -20   67.36    8.15
  -1  -2 -21   14.46    4.99
   1   2 -21   23.40    7.70
   1  -2 -21   11.41    6.08
  -1   2 -21    3.95    4.71
  -1  -2 -21    1.00    4.31
   1   2 -22   11.01    6.07
   1  -2 -22   10.46    5.59
  -1   2 -22    9.78    4.82
  -1  -2 -22    9.69    4.52
   1   2 -23   21.56    7.28
   1  -2 -23   31.92    7.76
  -1   2 -23   18.41    6.52
  -1  -2 -23   26.22    8.71
   1   2 -24   23.55    8.36
   1  -2 -24    3.80    3.56
  -1   2 -24   14.18    5.74
  -1  -2 -24    5.03    4.68
   1  -3   0  850.46   13.22
  -1  -3   0  857.93   12.51
   1   3   0  825.40   12.65
  -1   3   0  872.04   11.83
   1  -3   0  832.59   11.18
  -1  -3   1 2245.13   28.67
   1  -3  -1 2266.05   29.52
  -1   3  -1 2305.95   30.32
  -1  -3   1 2321.72   29.88
  -1  -3  -1 2280.59   29.92
   1   3  -1 2326.06   30.62
  -1   3   1 2409.17   30.08
   1  -3  -1 2324.90   28.89
  -1   3  -1 2342.64   30.00
   1  -3   1 2230.18   28.35
  -1  -3   2 2115.66   27.51
  -1   3   2 2038.15   26.71
   1  -3  -2 2059.52   26.98
  -1   3  -2 2077.04   27.77
  -1  -3  -2 2108.42   27.81
   1   3  -2 2078.88   27.83
   1  -3  -2 2091.14   25.93
  -1   3  -2 2133.29   27.57
   1   3  -3 3374.58   42.20
  -1  -3  -3 3333.17   42.45
  -1  -3   3 3346.13   41.84
  -1   3  -3 3407.22   44.04
   1  -3   3 3397.72   43.83
  -1  -3  -3 3379.02   43.65
  -1   3   3 3388.57   41.82
  -1  -3  -3 3334.92   42.77
   1  -3  -3 3332.92   41.21
   1   3  -3 3379.58   43.98
  -1   3  -3 3474.55   44.42
   1   3  -4  445.57    6.85
  -1  -3   4  441.01    6.56
  -1   3   4  444.81    8.09
   1  -3  -4  451.51    7.82
  -1   3  -4  439.85    8.94
   1  -3   4  418.43    7.83
  -1  -3  -4  481.73    9.31
  -1   3   4  440.27    6.47
   1  -3  -4  445.48    6.42
  -1  -3  -4  446.51    8.10
   1   3  -4  463.57   10.49
   1   3  -5  999.62   12.96
  -1   3   5  986.91   14.00
  -1  -3   5  989.17   12.85
   1  -3  -5  978.42   13.75
   1  -3   5  932.37   13.83
  -1  -3  -5  963.18   15.04
   1  -3  -5  986.86   13.16
  -1  -3  -5  965.06   14.35
   1   3  -5  995.23   16.33
  -1  -3   5  971.27   14.81
   1  -3   5  969.10   14.74
   1   3  -6  236.58    3.59
  -1   3   6  248.72   10.57
   1  -3  -6  228.42    4.65
  -1  -3   6  242.86    3.87
  -1   3  -6  230.19    6.48
   1  -3   6  229.06    6.26
  -1  -3  -6  244.44    8.30
   1   3   6  239.27    6.61
   1  -3  -6  238.21    4.50
  -1  -3  -6  230.57    5.75
   1   3  -6  240.51    6.91
  -1   3  -6  224.69    6.66
   1  -3  -6  229.82    4.93
   1  -3   6  222.62    6.52
   1   3  -7  647.49   13.26
  -1   3   7  640.98   16.49
   1  -3  -7  631.71   13.93
  -1   3  -7  624.80   14.65
  -1  -3   7  645.76   13.29
   1  -3   7  635.27   15.09
   1   3   7  645.81   15.08
   1  -3  -7  633.95   13.83
   1   3  -7  626.30   15.71
   1  -3  -7  626.09   13.98
  -1   3   9  349.05   11.04
   1  -3  -9  348.16    9.71
  -1   3  -9  332.22   10.17
   1  -3   9  330.18   10.53
  -1  -3  -9  307.96   10.91
   1   3   9  338.17   10.69
   1  -3  -9  323.74    9.01
   1   3  -9  299.50   11.05
  -1   3  -9  333.21   12.54
   1  -3  -9  327.37    9.87
  -1   3  10  347.23   12.76
   1  -3 -10  304.35    8.55
  -1   3 -10  303.80    9.69
   1  -3  10  277.43    9.62
  -1  -3 -10  327.04   12.00
   1   3  10  345.55   21.43
   1  -3 -10  291.85    8.33
   1   3 -10  303.32   12.16
  -1   3 -10  302.94   11.80
   1  -3 -10  305.21    9.42
   1  -3 -11  140.22    5.10
  -1   3 -11  147.91    7.38
  -1  -3 -11  153.72    7.74
   1  -3 -11  152.22    6.44
   1   3  11  149.87   17.51
   1   3 -11  138.86    7.76
  -1   3 -11  160.51   11.12
   1  -3 -11  159.34    6.82
   1  -3 -12   36.31    2.51
  -1   3 -12   39.42    4.58
  -1  -3 -12   44.42    6.10
   1  -3 -12   38.28    4.31
   1   3  12   43.67    6.36
   1   3 -12   28.41    4.06
  -1   3 -12   22.53    5.07
   1  -3 -12   25.44    3.64
   1  -3 -13  139.57    5.45
  -1   3 -13  145.57    7.34
  -1  -3 -13  168.25   11.36
   1  -3 -13  133.92    6.36
   1   3  13  154.45   11.51
   1   3 -13  163.33   10.74
  -1   3 -13  172.25   11.68
   1  -3 -13  136.82    7.60
   1  -3 -14  183.67    6.86
  -1   3 -14  199.05    8.64
  -1  -3 -14  201.30   10.68
   1  -3 -14  195.99    8.81
   1   3  14  182.10   14.87
   1   3 -14  201.86   11.85
  -1   3 -14  189.26   10.41
   1  -3 -14  197.97    8.79
  -1   3 -15   65.92    6.60
  -1  -3 -15   74.20    8.38
   1  -3 -15   70.51    6.95
   1   3 -15   68.90    8.53
  -1   3 -15   71.39    9.08
   1  -3 -15   60.14    7.37
  -1  -3 -15   92.90   11.77
  -1   3 -16  266.89   11.17
  -1  -3 -16  253.76   11.56
   1  -3 -16  247.45   10.05
   1   3 -16  251.17   12.47
  -1   3 -16  245.15   14.06
   1  -3 -16  263.59   11.69
  -1  -3 -16  267.95   12.66
  -1   3 -17   82.42    8.85
  -1  -3 -17   82.19    9.71
   1  -3 -17   87.70    8.72
   1   3 -17   78.55    9.79
  -1   3 -17  109.56   10.04
   1  -3 -17   80.98    8.74
  -1  -3 -17   79.12   10.43
  -1   3 -18  126.84    6.26
  -1  -3 -18  135.01    8.87
   1  -3 -18  142.67    6.90
   1   3 -18  145.06   10.48
  -1   3 -18  153.82   11.02
   1  -3 -18  140.45    8.49
  -1  -3 -18  133.46   10.63
  -1   3 -19   44.04    6.23
  -1  -3 -19   17.94    5.04
   1   3 -19   28.52    7.19
  -1   3 -19   42.02    8.93
   1  -3 -19   35.16    7.40
  -1  -3 -19   46.58    9.30
  -1  -3 -20  117.38   11.00
   1   3 -20  119.90   12.13
  -1   3 -20  118.12   13.06
   1  -3 -20  105.59   10.80
  -1  -3 -20  113.56   11.15
  -1  -3 -21   32.67    8.18
   1   3 -21   30.51    7.66
  -1   3 -21   24.49    8.70
   1  -3 -21   27.25    7.57
  -1  -3 -21   17.06    7.01
   1   3 -22  169.71   20.75
  -1   3 -22  165.47   20.50
   1  -3 -22  147.15   17.88
  -1  -3 -22  125.80   15.71
   1   3 -23    3.92    4.82
   1  -3 -23    9.46    4.51
  -1   3 -23   11.92    5.83
  -1  -3 -23   18.00    7.55
   1   3 -24  114.25   16.01
   1  -3 -24   72.76   10.76
  -1   3 -24   85.19   14.02
  -1  -3 -24   88.90   13.24
   1   4   0   78.09    8.57
  -1   4   0   59.75    3.59
   1  -4   0   58.56    3.13
  -1  -4   0   57.95    3.43
  -1   4   0   57.24    2.86
   1  -4   0   58.92    2.95
  -1  -4   1 2581.55   33.09
  -1   4   1 2640.94   34.53
  -1   4  -1 2618.18   34.30
   1  -4  -1 2512.53   32.77
  -1  -4  -1 2573.72   33.72
  -1   4   1 2672.35   33.60
  -1  -4   1 2605.38   34.29
  -1   4  -1 2642.72   33.79
   1  -4  -1 2538.86   31.98
   1  -4   1 2593.34   33.06
   1   4  -2 4460.55   55.92
  -1  -4  -2 4318.14   54.55
  -1  -4   2 4258.31   53.34
   1  -4  -2 4254.37   53.97
  -1   4  -2 4411.55   56.20
  -1  -4  -2 4418.07   56.20
  -1   4   2 4405.94   54.53
  -1  -4  -2 4321.94   55.05
   1   4  -2 4289.20   55.07
   1  -4  -2 4244.39   52.59
  -1   4  -2 4491.07   56.61
   1  -4   2 4294.36   54.01
  -1  -4  -3   68.41    9.33
   1   4  -3   85.00    4.57
  -1  -4   3   94.23    4.17
   1  -4  -3   79.02    3.59
  -1   4  -3   93.58    5.55
  -1  -4  -3   83.84    4.70
  -1   4   3   86.53    2.38
  -1  -4  -3   84.63    3.63
   1  -4  -3   88.49    2.52
   1   4  -3   96.22    5.32
  -1   4  -3  100.35    5.51
   1  -4   3   90.33    4.01
  -1  -4  -4 1696.55   23.10
   1   4  -4 1692.82   21.90
  -1   4   4 1709.65   23.27
  -1  -4   4 1686.94   21.82
   1  -4  -4 1589.54   21.62
  -1   4  -4 1688.14   23.33
   1  -4   4 1666.57   23.18
  -1  -4  -4 1765.22   24.66
  -1   4   4 1715.60   21.85
  -1  -4  -4 1647.65   22.67
   1  -4  -4 1664.84   21.33
   1   4  -4 1757.88   24.89
  -1  -4   4 1629.07   22.91
  -1   4  -4 1696.78   23.80
   1  -4   4 1655.41   22.65
  -1  -4  -5  561.90    9.15
   1   4  -5  561.42    8.02
  -1   4   5  584.61   12.87
  -1  -4   5  588.74    8.53
   1  -4  -5  557.84    9.21
  -1   4  -5  577.40   10.60
   1  -4   5  578.44   10.07
  -1  -4  -5  596.97   10.78
  -1   4   5  562.90    8.09
   1   4   5  567.78   10.11
   1  -4  -5  591.19    8.64
  -1  -4  -5  540.17    9.31
   1   4  -5  564.40   11.76
  -1   4  -5  565.22   10.90
  -1  -4  -6   49.02    7.79
   1   4  -6   89.12    4.50
  -1   4   6   72.44    8.33
   1  -4  -6   76.76    3.51
  -1  -4   6   81.41    2.83
  -1   4  -6   83.82    5.00
   1  -4   6   75.72    4.69
  -1  -4  -6   71.37    6.78
  -1   4   6   94.05    8.51
   1  -4  -6   76.60    2.84
   1   4  -6   62.27    5.37
   1   4  -7  202.80    5.02
  -1   4   7  215.80    6.55
   1  -4  -7  213.52    6.01
  -1  -4   7  206.35    5.14
  -1   4  -7  217.45    7.45
   1  -4   7  213.28    7.16
  -1  -4  -7  206.43    7.53
  -1   4   7  205.73    5.47
   1  -4  -7  208.85    5.48
   1   4  -7  207.67    7.87
  -1   4  -7  200.08    7.88
   1   4  -8 1214.01   24.87
  -1   4   8 1270.21   28.96
   1  -4  -8 1185.66   25.26
  -1  -4   8 1202.43   24.71
   1  -4   8 1179.43   25.63
  -1  -4  -8 1192.60   26.69
   1   4   8 1259.55   27.54
   1  -4  -8 1164.10   24.59
  -1   4   9   55.94    7.35
   1   4  -9   50.61    3.82
   1  -4  -9   47.99    2.70
  -1   4  -9   54.44    4.80
  -1  -4   9   50.54    2.36
   1  -4   9   51.71    4.22
  -1  -4  -9   47.62    6.12
   1   4   9   55.22    4.74
   1  -4  -9   46.54    5.66
   1   4  -9   43.75    4.48
   1  -4  -9   50.95    3.45
  -1   4  10  770.45   21.00
   1   4 -10  746.87   18.22
   1  -4 -10  708.69   18.33
  -1   4 -10  775.43   21.15
  -1  -4  10  746.89   18.30
  -1  -4 -10  733.65   21.28
   1   4  10  772.94   32.68
   1  -4 -10  709.75   18.33
   1   4 -10  783.69   22.97
  -1   4 -10  765.58   21.94
   1  -4 -10  757.20   19.97
  -1   4  11  122.75    9.29
   1   4 -11  115.30    3.43
   1  -4 -11   95.65    4.10
  -1   4 -11  114.54    6.32
  -1  -4 -11  119.02    8.34
  -1  -4  11  119.17    3.62
   1   4  11  118.49   10.06
   1   4 -11  134.09    9.77
  -1   4 -11  119.67    8.48
   1  -4 -11  103.67    5.40
  -1   4 -12  161.55    8.07
  -1  -4 -12  159.56    9.81
   1  -4 -12  160.74    7.75
   1   4  12  178.12   18.94
   1   4 -12  160.94   10.35
  -1   4 -12  154.20    9.22
   1  -4 -12  152.12    7.39
  -1   4 -13   40.17    6.14
  -1  -4 -13   20.16    4.30
   1  -4 -13   31.43    5.03
   1   4  13   32.06    4.90
   1   4 -13   39.75    8.05
  -1   4 -13   17.51    5.15
   1  -4 -13   23.13    4.49
  -1   4 -14   90.95    8.28
  -1  -4 -14   90.63    9.72
   1  -4 -14  106.45    8.95
   1   4  14   83.88    8.86
   1   4 -14   77.18    7.44
  -1   4 -14   74.26    7.86
   1  -4 -14   94.58    8.22
  -1   4 -15   59.39    5.84
  -1  -4 -15   38.45    7.06
   1  -4 -15   45.85    5.11
   1   4  15   63.22    9.12
   1   4 -15   56.85    8.07
  -1   4 -15   75.48   10.23
   1  -4 -15   47.15    5.15
  -1   4 -16   47.69    5.51
  -1  -4 -16   73.91   10.24
   1  -4 -16   53.38    6.96
   1   4 -16   51.75    9.04
  -1   4 -16   46.38    7.97
   1  -4 -16   37.57    5.77
  -1   4 -17  105.23    6.32
  -1  -4 -17   88.81   10.29
   1  -4 -17  102.30    5.98
   1   4 -17   94.06   14.55
  -1   4 -17   95.38   14.41
   1  -4 -17  104.18    7.40
  -1  -4 -17  110.47   10.47
  -1   4 -18   43.67    7.07
  -1  -4 -18   32.41    6.84
   1  -4 -18   37.68    6.83
   1   4 -18   23.13    6.49
  -1   4 -18   42.44    7.45
   1  -4 -18   32.62    6.68
  -1  -4 -18   32.40    6.95
  -1   4 -19  143.36    6.78
  -1  -4 -19  148.13    9.56
   1   4 -19  157.17   12.60
  -1   4 -19  150.05   11.87
   1  -4 -19  133.42    7.98
  -1  -4 -19  146.90   10.37
  -1  -4 -20   51.87    7.94
   1   4 -20   71.31   10.45
  -1   4 -20   75.79    9.12
   1  -4 -20   64.41    7.68
  -1  -4 -20   61.78    9.87
  -1  -4 -21   16.33    4.42
   1   4 -21   44.27    8.09
  -1   4 -21   29.90    9.05
   1  -4 -21   45.75    6.90
  -1  -4 -21   28.80    7.79
   1   4 -22   70.60   10.83
  -1   4 -22   77.43   11.22
   1  -4 -22   88.13   12.59
  -1  -4 -22   73.47   11.26
   1   4 -23   76.10   13.33
  -1   4 -23   40.95   10.81
   1  -4 -23   55.82    8.69
  -1  -4 -23   60.37   11.21
   1   4 -24   15.86    7.87
  -1   4 -24   -0.46    5.55
   1  -4 -24   23.07    6.79
  -1  -4 -24    4.32    3.88
   1   5   0  415.81    9.10
  -1  -5   0  420.51    7.50
  -1   5   0  393.73    8.51
   1  -5   0  397.88    7.58
  -1  -5   0  411.97    8.71
  -1   5   0  430.33    7.85
   1  -5   0  404.61    7.08
   1   5   1 1678.91   23.39
  -1  -5   1 1635.62   21.82
  -1   5  -1 1740.66   24.03
   1  -5  -1 1653.38   22.67
   1  -5   1 1652.43   22.81
  -1  -5  -1 1657.54   23.04
  -1   5   1 1722.62   22.57
  -1  -5   1 1642.09   23.30
  -1   5  -1 1701.05   22.86
   1  -5   1 1684.57   22.49
   1   5   2  956.75   14.27
   1   5  -2  882.69   14.42
  -1  -5   2  932.71   13.20
  -1   5  -2  942.81   14.45
   1  -5  -2  885.89   13.38
   1  -5   2  895.20   13.73
   1   5   2  947.65   14.65
  -1   5   2  926.58   12.69
  -1  -5  -2  891.79   14.14
  -1  -5   2  906.34   14.75
   1  -5  -2  905.20   12.56
  -1   5  -2  916.88   13.78
   1  -5   2  899.74   13.08
   1   5  -3  560.37    9.20
  -1  -5   3  569.47    9.05
  -1   5   3  541.62   11.93
   1  -5  -3  527.81    9.03
  -1   5  -3  536.46    9.78
   1  -5   3  550.60   10.33
  -1   5   3  548.45    8.23
   1   5   3  572.88   10.86
  -1  -5  -3  523.62    9.40
   1  -5  -3  540.30    8.03
   1   5  -3  552.38   10.99
  -1  -5   3  555.00   11.07
  -1   5  -3  566.30   10.48
   1  -5   3  515.85    9.16
   1   5  -4 2259.22   46.25
  -1   5   4 2213.28   45.97
  -1  -5   4 2160.97   44.26
   1  -5   4 2118.91   44.24
  -1  -5  -4 2165.16   45.31
  -1   5   4 2226.76   45.36
   1  -5  -4 2162.55   44.05
   1   5  -4 2113.82   44.60
  -1   5  -4 2251.46   47.10
   1  -5   4 2146.11   44.45
   1   5  -5   98.90    4.23
  -1   5   5   99.85   10.78
  -1  -5   5   94.26    3.42
   1  -5  -5   85.71    3.98
  -1   5  -5  102.86    5.61
   1  -5   5   88.49    4.16
  -1  -5  -5  108.22    6.98
  -1   5   5  106.89    6.21
   1  -5  -5   90.96    3.14
   1   5  -5  101.17    6.91
  -1   5  -5   96.07    6.14
   1  -5   5  105.40    4.46
   1   5  -6 2021.75   41.38
  -1   5   6 2062.51   43.04
   1  -5  -6 1953.19   40.74
  -1  -5   6 2019.92   41.36
  -1   5  -6 2027.81   42.60
   1  -5   6 1928.77   40.46
  -1  -5  -6 2078.38   43.98
  -1   5   6 2075.37   42.47
   1   5   6 2099.85   44.21
   1  -5  -6 2074.81   42.57
   1   5  -6 2069.57   44.24
  -1   5  -6 2125.21   45.26
   1   5  -7  291.10    7.60
  -1   5   7  294.00   10.70
   1  -5  -7  263.93    7.33
  -1  -5   7  280.64    6.85
  -1   5  -7  297.48    8.97
   1  -5   7  268.12    8.60
  -1  -5  -7  290.63   10.12
  -1   5   7  291.24    7.31
   1   5   7  309.55    9.20
   1  -5  -7  296.33    7.54
   1   5  -7  274.86    9.50
  -1   5  -7  298.30   10.55
  -1   5   8  264.81   17.44
   1   5  -8  255.19    7.69
  -1   5  -8  275.40    9.26
  -1  -5   8  255.58    7.15
  -1  -5  -8  257.70   10.52
  -1   5   8  255.62    7.58
   1   5   8  246.25    8.41
   1  -5  -8  254.74    7.40
   1   5  -8  283.98   12.03
  -1   5  -8  262.29   11.03
  -1   5   9  635.04   18.81
   1   5  -9  596.14   14.91
  -1   5  -9  633.94   17.31
  -1  -5   9  634.61   16.09
  -1  -5  -9  606.32   17.72
  -1   5   9  638.36   16.82
   1   5   9  634.04   17.54
   1  -5  -9  609.60   15.91
   1   5  -9  656.33   20.07
  -1   5  -9  643.39   18.72
  -1   5  10  179.88   17.03
   1   5 -10  168.18    5.72
  -1   5 -10  165.35    7.20
  -1  -5  10  158.11    5.37
  -1  -5 -10  145.41    8.08
   1   5  10  161.76   14.39
   1  -5 -10  141.61    5.73
   1   5 -10  156.24   10.44
  -1   5  11  171.67   16.81
   1   5 -11  179.59    5.96
  -1   5 -11  172.67    8.24
  -1  -5  11  167.72    5.85
  -1  -5 -11  170.18   10.46
   1   5  11  163.46   17.21
   1   5 -11  177.57    9.61
   1  -5 -11  166.16    7.56
  -1   5  12  362.34   12.61
   1   5 -12  396.66   12.17
  -1   5 -12  390.94   14.33
  -1  -5  12  377.17   11.77
  -1  -5 -12  379.16   15.31
   1   5  12  373.50   13.92
   1   5 -12  374.36   14.96
  -1   5 -12  388.41   15.40
   1  -5 -12  367.84   13.26
   1   5 -13 1044.81   31.90
  -1   5 -13  991.40   32.00
  -1  -5 -13 1025.61   34.16
  -1  -5  13 1021.58   31.25
   1  -5 -13 1017.72   32.85
   1   5  13 1032.84   33.65
   1   5 -13 1050.56   35.65
  -1   5 -13 1024.08   34.24
   1  -5 -13 1022.18   33.14
  -1   5 -14   90.84    8.05
  -1  -5 -14   97.82   10.54
   1  -5 -14  100.40    8.91
   1   5  14   71.80    9.50
   1   5 -14   91.40   11.64
  -1   5 -14   90.05    9.42
   1  -5 -14   81.89    6.83
  -1   5 -15  693.07   23.81
  -1  -5 -15  662.89   24.13
   1  -5 -15  658.01   22.81
   1   5  15  751.40   26.59
   1   5 -15  707.93   26.43
  -1   5 -15  705.35   27.47
   1  -5 -15  675.95   23.93
  -1   5 -16   31.03    4.66
  -1  -5 -16   32.06    7.36
   1  -5 -16   38.40    6.17
   1   5  16   49.93    7.96
   1   5 -16   27.64    6.59
  -1   5 -16   40.30    8.65
   1  -5 -16   35.86    5.95
  -1   5 -17  104.52    6.08
  -1  -5 -17  112.27    8.40
   1  -5 -17  107.51    6.57
   1   5  17  110.44    6.68
   1   5 -17  100.65    9.58
  -1   5 -17  122.88   11.42
   1  -5 -17   98.85    6.52
  -1   5 -18  145.07    7.52
  -1  -5 -18  157.66   11.74
   1  -5 -18  135.26    8.48
   1   5 -18  173.53   12.64
  -1   5 -18  141.33   10.42
   1  -5 -18  160.55    9.43
  -1  -5 -18  146.36   10.08
  -1  -5 -19   29.64    7.48
   1  -5 -19   17.77    4.42
   1   5 -19   28.04    6.90
  -1   5 -19    5.96    5.44
   1  -5 -19   14.20    4.42
  -1  -5 -19   19.06    7.00
  -1  -5 -20   10.35    4.00
   1   5 -20   23.66   10.32
  -1   5 -20    6.65    5.86
   1  -5 -20    7.82    3.63
  -1  -5 -20   11.82    5.83
  -1  -5 -21   49.10    7.33
   1   5 -21   60.00    9.18
  -1   5 -21   61.98   10.71
  -1  -5 -21   56.40    9.06
  -1  -5 -22   10.58    4.96
   1   5 -22    7.19    5.36
  -1   5 -22    6.63    5.23
   1  -5 -22    4.33    3.47
  -1  -5 -22   15.30    7.60
   1   5 -23   73.65   12.78
  -1   5 -23   39.14   10.74
   1  -5 -23   53.45    8.60
  -1  -5 -23   27.28    6.93
   1   6   0  505.27   12.04
  -1  -6   0  468.94   11.04
  -1   6   0  491.08   12.35
   1   6   0  463.07   11.75
  -1  -6   0  471.06   12.18
  -1   6   0  506.29   11.89
   1  -6   0  459.79   10.66
   1   6   1  375.97    9.60
   1   6  -1  377.64   11.72
  -1  -6   1  358.26    8.79
  -1   6  -1  380.41    9.95
   1   6   1  377.97   10.79
  -1  -6  -1  360.56    9.56
  -1   6   1  368.91    8.97
  -1   6  -1  372.28    9.75
   1  -6  -1  359.02    8.89
   1  -6   1  377.21    9.74
   1   6   2 1451.11   31.11
   1   6  -2 1398.97   29.48
  -1  -6   2 1377.15   28.97
  -1   6   2 1428.48   30.59
  -1   6  -2 1333.71   28.75
  -1   6   2 1359.41   28.37
   1  -6  -2 1347.47   28.16
  -1   6  -2 1373.38   29.33
   1  -6   2 1312.68   27.81
   1   6   3  141.72   11.61
   1   6  -3  132.54    4.82
  -1   6   3  111.33   13.09
  -1  -6   3  106.79    5.69
  -1   6  -3  121.52    5.56
  -1   6   3  125.51    4.13
   1   6  -3  124.64    7.49
   1  -6  -3  116.65    4.02
  -1   6  -3  101.66    5.58
   1  -6   3  106.34    4.10
   1   6   4  822.66   18.67
   1   6  -4  821.52   17.85
  -1  -6   4  805.73   17.49
  -1   6   4  814.99   17.37
   1   6   4  815.98   19.30
   1  -6  -4  803.95   17.14
  -1   6  -4  833.09   19.69
   1  -6   4  797.52   17.99
   1   6  -5   64.87    7.55
  -1   6   5   57.54    7.24
  -1  -6   5   57.57    2.99
  -1   6  -5   48.03    3.68
  -1  -6  -5   51.18    5.74
  -1   6   5   48.09    5.05
   1   6   5   66.88    4.64
   1  -6  -5   61.49    3.05
   1   6  -5   40.88    4.91
  -1   6  -5   50.86    3.97
   1   6  -6   22.26    2.57
  -1   6   6   19.16    3.24
  -1  -6   6   15.14    2.02
  -1   6  -6   20.59    3.32
  -1  -6  -6   17.64    4.65
  -1   6   6   13.39    1.98
   1   6   6   13.80    2.90
   1  -6  -6   17.12    1.78
   1   6  -6   16.36    4.92
  -1   6  -6   18.44    6.24
   1   6  -7  318.35    9.01
  -1   6   7  283.81   13.65
  -1  -6   7  300.92    8.47
  -1   6  -7  292.60    9.66
  -1  -6  -7  316.72   11.80
  -1   6   7  308.96    8.96
   1   6   7  311.68   10.10
   1  -6  -7  293.35    8.31
   1   6  -7  305.83   11.32
  -1   6  -7  320.76   11.56
  -1   6   8   98.95   10.78
   1   6  -8   97.58    6.91
  -1   6  -8   90.73    5.24
  -1  -6   8   76.34    3.43
  -1  -6  -8   84.13    7.77
  -1   6   8   97.82    9.74
   1   6   8   95.84    9.95
   1  -6  -8   77.61    3.29
   1   6  -8   93.70    7.84
  -1   6  -8   76.24    7.40
  -1   6   9  741.93   22.63
   1   6  -9  688.41   20.18
  -1   6  -9  683.62   21.31
  -1  -6   9  670.52   19.48
  -1  -6  -9  676.02   21.83
  -1   6   9  699.46   20.70
   1   6   9  740.03   41.22
   1  -6  -9  689.40   20.30
   1   6  -9  700.72   23.61
  -1   6  -9  723.40   23.94
  -1   6  10  266.77   14.42
   1   6 -10  217.76    6.94
  -1   6 -10  225.22    8.98
  -1  -6  10  219.53    7.30
  -1  -6 -10  209.77   10.11
  -1   6  10  219.02    8.75
   1   6  10  226.21   17.31
   1  -6 -10  209.21    7.22
   1   6 -10  203.21   12.12
  -1   6 -10  210.87   10.33
  -1   6  11  702.24   22.80
   1   6 -11  715.30   22.18
  -1   6 -11  698.37   22.82
  -1  -6  11  656.67   20.33
  -1  -6 -11  679.49   23.51
   1   6  11  721.81   23.81
   1   6 -11  721.44   25.45
  -1   6 -11  698.77   24.29
  -1   6  12  295.10   11.40
   1   6 -12  276.53    9.03
  -1   6 -12  264.33   10.13
  -1  -6  12  252.85    8.55
  -1  -6 -12  293.16   13.32
   1   6  12  265.02   24.59
   1   6 -12  286.15   14.32
   1  -6 -12  257.61   10.87
  -1   6  13 1238.34   31.83
   1   6 -13 1144.47   27.79
  -1   6 -13 1163.49   30.04
  -1  -6  13 1106.32   27.01
  -1  -6 -13 1145.68   31.04
   1   6  13 1180.01   30.97
   1   6 -13 1205.98   34.15
   1  -6 -13 1129.25   29.21
   1   6 -14  222.05    7.34
  -1   6 -14  231.96    9.80
  -1  -6 -14  257.18   13.64
   1  -6 -14  237.36   10.74
   1   6  14  249.83   20.31
   1   6 -14  239.38   13.59
  -1   6 -14  209.00   13.63
   1  -6 -14  257.80   10.80
  -1   6 -15  736.10   21.91
  -1  -6 -15  733.37   24.51
   1  -6 -15  682.29   20.95
   1   6  15  775.10   41.44
   1   6 -15  728.21   24.62
  -1   6 -15  687.48   22.99
   1  -6 -15  707.15   21.45
  -1   6 -16   28.34    4.07
  -1  -6 -16   23.77    7.50
   1  -6 -16   21.09    4.98
   1   6  16   29.26    6.02
   1   6 -16   18.19    8.87
  -1   6 -16   27.31    8.50
   1  -6 -16   32.85    5.69
  -1   6 -17  156.81    6.96
  -1  -6 -17  179.92   10.64
   1  -6 -17  191.15    9.70
   1   6  17  176.13   20.79
   1   6 -17  185.20   12.12
  -1   6 -17  209.61   13.70
   1  -6 -17  176.25    8.31
  -1   6 -18   33.14    4.52
  -1  -6 -18   34.83    7.52
   1  -6 -18   22.27    4.66
   1   6 -18   33.27    9.59
  -1   6 -18   41.61    9.84
   1  -6 -18   24.87    5.78
  -1  -6 -19   51.73    8.76
   1  -6 -19   48.80    6.19
   1   6 -19   51.69    8.80
  -1   6 -19   64.03   10.38
   1  -6 -19   54.29    6.72
  -1  -6 -19   39.65    8.44
  -1  -6 -20    8.58    5.75
  -1   6 -20   28.99   10.27
   1  -6 -20   31.40    7.74
  -1  -6 -20   11.03    6.16
  -1  -6 -21    5.79    3.72
   1   6 -21   12.09    6.25
  -1   6 -21    2.45    5.96
   1  -6 -21   12.94    5.02
  -1  -6 -21   29.60    8.73
  -1  -6 -22   20.03    5.85
   1   6 -22   29.81    9.07
  -1   6 -22   34.87    9.19
   1  -6 -22   34.03    6.87
  -1  -6 -22   12.84    5.06
   1   6 -23   10.63    5.96
  -1   6 -23   20.67    8.56
   1  -6 -23    4.56    3.35
  -1  -6 -23   11.26    5.56
  -1   7   0 1653.62   35.27
  -1   7   0 1626.86   34.30
   1  -7   0 1526.85   32.02
   1   7   1 1112.85   24.36
   1   7  -1 1107.47   26.44
  -1   7   1 1047.01   23.26
  -1   7  -1 1110.73   24.50
   1   7  -1 1085.67   24.43
  -1   7   1 1093.39   23.51
  -1   7  -1 1121.43   24.54
   1  -7  -1 1078.69   23.21
   1  -7   1 1026.46   22.49
   1   7   2 1414.63   30.46
   1   7  -2 1343.33   29.20
  -1  -7   2 1285.92   28.68
  -1   7   2 1334.58   31.17
  -1   7  -2 1369.98   29.67
   1   7   2 1353.96   29.57
  -1   7   2 1350.59   28.40
  -1   7  -2 1392.40   30.43
   1  -7  -2 1342.72   28.28
   1  -7   2 1358.29   28.93
   1   7   3  420.35   11.16
   1   7  -3  406.25   10.38
  -1  -7   3  396.32    9.75
  -1   7  -3  412.48   11.03
   1   7   3  431.04   11.67
  -1   7   3  418.92    9.85
   1  -7  -3  417.65   10.02
  -1   7  -3  422.05   11.91
   1  -7   3  399.72   10.49
   1   7   4  524.92   14.79
   1   7  -4  542.48   14.62
  -1   7   4  506.67   14.57
  -1  -7   4  496.49   13.32
  -1   7  -4  542.70   15.62
  -1   7   4  541.30   14.20
   1   7   4  511.32   14.96
   1  -7  -4  520.25   13.68
   1   7  -4  527.13   16.54
  -1   7  -4  513.67   15.64
   1   7   5  428.11   13.10
   1   7  -5  408.18   11.44
  -1   7   5  400.12   12.06
  -1  -7   5  383.08   10.81
  -1   7  -5  411.11   12.03
  -1   7   5  412.82   11.24
   1   7   5  370.31   11.33
   1  -7  -5  407.50   11.22
   1   7  -5  409.77   14.22
  -1   7  -5  396.37   13.21
   1   7  -6  556.14   15.91
  -1   7   6  588.67   17.90
  -1  -7   6  555.78   14.66
  -1   7  -6  586.62   16.52
  -1  -7  -6  567.04   16.86
  -1   7   6  571.07   15.08
   1   7   6  571.24   16.26
   1  -7  -6  554.87   14.50
   1   7  -6  598.76   18.92
  -1   7  -6  574.62   17.05
   1   7  -7   60.65    6.66
  -1   7   7   44.51    6.16
  -1   7  -7   41.27    3.94
  -1  -7   7   45.51    2.63
  -1  -7  -7   43.64    6.25
  -1   7   7   50.86    6.14
   1   7   7   60.58    8.11
   1  -7  -7   44.67    2.78
   1   7  -7   48.36    5.82
  -1   7  -7   57.95    6.75
  -1   7   8  708.11   21.96
   1   7  -8  703.57   20.83
  -1   7  -8  661.40   20.47
  -1  -7   8  681.34   19.97
  -1  -7  -8  692.24   22.48
  -1   7   8  719.64   21.27
   1   7   8  717.31   22.13
   1  -7  -8  665.00   19.56
   1   7  -8  707.03   23.80
  -1   7  -8  693.02   22.27
  -1   7   9  156.31   16.28
   1   7  -9  130.60    6.46
  -1   7  -9  138.40    6.68
  -1  -7   9  120.14    4.77
  -1  -7  -9  136.24    8.86
  -1   7   9  122.19   12.24
   1   7   9  131.83   16.77
   1  -7  -9  125.34    5.25
   1   7  -9  119.00    7.54
  -1   7  -9  150.38   10.65
  -1   7  10   81.24    9.32
   1   7 -10  101.99    7.59
  -1   7 -10   77.02    5.22
  -1  -7  10   77.63    4.10
  -1  -7 -10   67.74    7.68
  -1   7  10   84.14    7.22
   1   7  10   82.54    9.88
   1  -7 -10   65.52    3.60
   1   7 -10   92.34    7.36
  -1   7 -10   91.71   10.81
  -1   7  11  597.66   20.55
   1   7 -11  591.14   18.84
  -1   7 -11  607.41   20.54
  -1  -7  11  536.30   17.32
  -1  -7 -11  538.96   20.60
  -1   7  11  607.57   20.67
   1   7  11  606.99   21.53
   1   7 -11  641.99   23.75
  -1   7 -11  582.61   21.57
  -1   7  12   39.98    7.45
   1   7 -12   44.12    4.50
  -1   7 -12   39.49    4.61
  -1  -7  12   28.28    3.00
  -1  -7 -12   23.75    5.65
  -1   7  12   39.61    5.26
   1   7  12   50.24    6.31
   1   7 -12   45.23    7.79
  -1   7 -12   56.13    7.81
  -1   7  13 1073.53   28.42
   1   7 -13 1069.97   26.28
  -1   7 -13 1035.77   26.88
  -1  -7 -13 1066.79   29.42
   1   7  13 1085.65   50.74
   1   7 -13 1067.26   30.61
  -1   7 -13 1085.73   31.53
   1   7 -14  134.91    4.34
  -1   7 -14  144.01    6.37
  -1  -7 -14  151.20   12.14
   1   7  14  138.38   15.03
   1   7 -14  126.31    9.51
   1  -7 -14  141.54    7.23
  -1   7 -15   69.88    7.55
  -1  -7 -15   55.46    8.08
   1  -7 -15   72.73    8.48
   1   7  15   49.97    8.84
   1   7 -15   66.75   11.85
   1  -7 -15   62.37    6.88
  -1   7 -16    2.47    1.95
  -1  -7 -16    2.12    4.66
   1  -7 -16    0.64    3.44
   1   7  16    4.84    2.83
   1   7 -16    2.03    5.90
  -1   7 -16   33.58    8.99
   1  -7 -16   13.24    5.78
  -1   7 -17  257.17   11.85
  -1  -7 -17  259.82   14.24
   1  -7 -17  249.60   12.32
   1   7  17  226.79   22.92
   1   7 -17  248.09   13.83
  -1   7 -17  229.52   13.49
   1  -7 -17  242.91   11.96
  -1   7 -18    4.87    2.06
  -1  -7 -18    8.67    4.67
   1  -7 -18   23.85    6.10
   1   7  18    8.09    2.86
   1   7 -18   10.88    6.58
  -1   7 -18   24.44    8.02
   1  -7 -18   19.82    5.71
  -1  -7 -19   27.07    8.05
   1   7 -19   15.08    6.70
  -1   7 -19   28.84    9.07
  -1  -7 -20   -0.81    3.75
   1   7 -20   10.56    5.98
  -1   7 -20    8.39    8.48
   1  -7 -20   16.40    5.64
  -1  -7 -20    6.49    4.89
  -1  -7 -21   28.15    9.16
   1   7 -21   19.47    8.94
  -1   7 -21    5.73    6.15
   1  -7 -21   27.52    8.10
  -1  -7 -21   13.93    4.82
  -1  -7 -22    8.70    5.65
   1   7 -22    9.25    6.24
  -1   7 -22   13.71    8.76
   1  -7 -22    5.72    3.19
  -1  -7 -22    6.81    4.29
  -1   8   0  373.49   12.12
   1   8   0  347.98   11.24
  -1   8   0  355.56   10.56
   1  -8   0  341.70   10.82
   1   8   1  467.03   13.36
   1   8  -1  474.28   13.39
  -1   8   1  443.38   18.06
  -1   8  -1  442.55   13.32
   1   8   1  468.70   14.61
  -1   8   1  437.76   12.56
   1   8  -1  458.71   14.41
  -1   8  -1  434.21   12.59
   1  -8  -1  443.96   12.59
   1  -8   1  413.13   11.92
   1   8   2 1704.09   43.01
   1   8  -2 1716.99   42.83
  -1   8   2 1724.24   43.42
   1   8   2 1697.49   42.92
  -1   8   2 1668.41   41.31
   1   8  -2 1706.71   43.56
  -1   8  -2 1650.94   41.57
   1  -8  -2 1634.69   40.56
   1  -8   2 1527.08   38.09
   1   8   3  861.27   23.17
   1   8  -3  861.61   23.84
  -1   8   3  833.08   23.44
  -1   8  -3  821.15   21.99
   1   8   3  835.36   22.58
  -1   8   3  892.95   22.89
   1   8  -3  831.53   22.79
   1  -8  -3  838.56   21.59
  -1   8  -3  848.27   22.64
   1   8   4   95.18   11.68
   1   8  -4   98.33   11.48
  -1   8   4   83.22    9.30
  -1   8  -4   63.67    5.02
   1   8   4   55.15    4.39
  -1   8   4   76.55    3.77
   1  -8  -4   62.87    3.95
  -1   8  -4   74.14    5.85
   1   8   5  170.79   14.04
   1   8  -5  176.47    6.20
  -1   8   5  176.01    9.74
  -1   8  -5  157.01    6.98
  -1   8   5  169.28    5.85
   1   8   5  172.78    7.84
   1  -8  -5  157.37    5.48
   1   8  -5  164.47    8.29
  -1   8  -5  171.20    9.29
   1   8   6  444.90   14.80
   1   8  -6  432.53   13.51
  -1   8   6  432.46   14.25
  -1   8  -6  431.10   14.60
  -1  -8   6  403.64   12.86
  -1   8   6  420.28   13.46
   1   8   6  448.82   15.60
   1  -8  -6  416.69   12.73
   1   8  -6  399.85   16.03
  -1   8  -6  469.98   17.20
  -1   8   7  220.44    9.77
   1   8  -7  220.57    9.01
  -1   8  -7  225.92    9.12
  -1  -8   7  202.06    7.45
  -1  -8  -7  220.54   10.84
  -1   8   7  248.29   14.71
   1   8   7  213.59    9.46
   1  -8  -7  203.78    7.01
   1   8  -7  210.89   10.84
  -1   8  -7  203.98    9.69
  -1   8   8  127.81   13.41
   1   8  -8  125.45    9.59
  -1   8  -8   94.57    5.48
  -1  -8   8   78.70    4.43
  -1  -8  -8  102.01    9.19
  -1   8   8  104.52   10.71
   1   8   8   92.69    9.99
   1  -8  -8   92.97    4.46
   1   8  -8   98.84    9.29
  -1   8  -8  106.18    8.37
  -1   8   9   11.77    2.69
   1   8  -9   14.26    2.41
  -1   8  -9   14.96    3.90
  -1  -8   9    7.73    2.28
  -1  -8  -9   14.53    7.00
  -1   8   9   12.28    2.93
   1   8   9    8.93    2.43
   1  -8  -9   11.67    1.73
   1   8  -9    7.08    5.49
  -1   8  -9   12.25    5.28
  -1   8  10   72.07   10.74
   1   8 -10   84.26    7.99
  -1   8 -10   58.30    5.66
  -1  -8  10   54.20    4.84
  -1  -8 -10   60.70    8.27
  -1   8  10   74.42    8.18
   1   8  10   71.50    9.51
   1   8 -10   70.63   10.42
  -1   8 -10   77.53   11.40
  -1   8  11  113.80   12.23
   1   8 -11  117.91   10.18
  -1   8 -11   97.26    7.90
  -1  -8  11  102.80    7.52
  -1  -8 -11  120.55   11.02
  -1   8  11  116.29   11.80
   1   8  11  104.39   10.96
   1   8 -11   85.65    9.15
  -1   8 -11  106.29   12.61
  -1   8  12  127.04   15.81
   1   8 -12  132.51    9.23
  -1   8 -12  122.01    9.18
  -1  -8  12  107.18    7.57
  -1  -8 -12  141.91   13.34
  -1   8  12  122.06   14.38
   1   8  12  126.26   17.86
   1   8 -12  125.84   14.35
  -1   8 -12  125.14   11.28
  -1   8  13   76.05   12.76
   1   8 -13   69.49    6.33
  -1   8 -13   80.29    5.89
  -1  -8 -13   85.39   10.18
  -1   8  13   66.55    8.05
   1   8  13   82.09    8.46
   1   8 -13   73.58   10.44
  -1   8 -13   57.76    8.16
  -1   8  14   18.02    3.87
   1   8 -14   20.50    3.18
  -1   8 -14   25.58    3.67
  -1  -8 -14   17.44    7.43
   1   8  14   27.21    5.38
   1   8 -14   21.47    5.27
  -1   8 -14   26.99    7.63
  -1   8 -15   26.52    3.92
  -1  -8 -15   23.51    5.59
   1  -8 -15   40.00    5.83
   1   8  15   42.79    7.06
   1   8 -15   54.89   10.76
  -1   8 -15   35.46    7.30
   1  -8 -15   30.92    5.03
  -1   8 -16   -0.95    1.95
  -1  -8 -16   11.93    6.74
   1  -8 -16    9.79    4.87
   1   8  16    3.33    2.76
   1   8 -16   29.00   12.76
   1  -8 -16    5.84    5.16
  -1   8 -17   78.65    5.05
  -1  -8 -17   61.18    7.94
   1  -8 -17   61.33    6.20
   1   8  17   71.22    9.97
   1   8 -17   99.34   11.42
   1  -8 -17   72.59    6.32
  -1  -8 -18   23.37    7.15
   1  -8 -18   19.86    4.73
   1   8  18   28.82    7.14
   1   8 -18   32.25    8.45
  -1   8 -18   46.63    7.53
   1  -8 -18   27.64    6.89
  -1  -8 -19    5.32    4.88
   1  -8 -19   17.10    4.76
   1   8  19   10.24    3.73
   1   8 -19   13.12    6.97
  -1   8 -19   13.49    6.27
   1  -8 -19   15.74    5.39
  -1  -8 -20  138.17   17.61
   1  -8 -20  104.90   12.92
   1   8 -20  162.51   20.18
  -1   8 -20  138.42   17.47
   1  -8 -20  143.66   16.49
  -1  -8 -20  156.89   19.33
  -1  -8 -21   61.39    9.88
   1   8 -21   85.52   13.30
  -1   8 -21   67.45   11.29
  -1  -8 -21   75.68   11.80
  -1  -8 -22   19.86    6.91
   1   8 -22   37.50    8.82
  -1   8 -22   50.45   11.07
  -1  -8 -22   43.05    8.62
   1   9   0  659.85   19.13
  -1   9   0  630.44   17.76
   1   9   0  621.55   17.80
  -1   9   0  633.53   17.33
   1  -9   0  583.79   15.85
   1   9   1  758.32   23.18
   1   9  -1  762.23   24.21
  -1   9   1  787.53   24.14
  -1   9  -1  764.72   23.42
   1   9   1  776.32   23.94
  -1   9   1  717.95   21.72
   1   9  -1  774.90   24.85
  -1   9  -1  768.13   23.55
   1  -9  -1  715.01   21.50
   1   9   2   35.96    5.92
   1   9  -2   30.43    5.66
  -1   9   2   29.08    4.02
  -1   9  -2   26.88    3.36
   1   9   2   32.77    4.11
  -1   9   2   21.75    2.96
   1   9  -2   27.96    4.90
  -1   9  -2   26.69    3.97
   1  -9  -2   23.84    3.10
   1   9   3  643.34   20.00
   1   9  -3  655.39   21.61
  -1   9   3  642.12   20.78
  -1   9  -3  644.30   20.09
   1   9   3  641.61   20.24
  -1   9   3  664.03   19.85
   1   9  -3  657.92   21.18
  -1   9  -3  671.77   21.52
   1  -9  -3  579.97   17.48
   1   9   4  306.94   12.32
   1   9  -4  307.10   10.63
  -1   9  -4  288.02   10.39
   1   9   4  319.44   11.98
  -1   9   4  296.04    9.85
   1   9  -4  290.15   11.60
   1  -9  -4  278.59    9.48
  -1   9  -4  315.31   12.54
   1   9   5  428.46   14.72
   1   9  -5  442.69   14.07
  -1   9   5  453.28   15.59
  -1   9  -5  458.80   15.48
  -1   9   5  443.88   13.84
   1   9   5  452.62   15.65
   1  -9  -5  428.02   13.44
   1   9  -5  454.88   16.25
  -1   9  -5  450.45   15.44
   1   9   6  233.06    9.99
   1   9  -6  231.74    9.89
  -1   9   6  237.36   21.51
  -1   9  -6  212.18    9.01
  -1   9   6  217.28    8.25
   1   9   6  226.81    9.68
   1  -9  -6  203.50    7.66
  -1   9  -6  244.02   11.64
   1   9  -7  262.86    9.87
  -1   9   7  297.98   17.73
  -1   9  -7  268.02   10.37
  -1   9   7  270.91    9.74
   1   9   7  269.91   11.09
   1  -9  -7  243.88    8.77
   1   9  -7  276.41   13.20
  -1   9  -7  306.01   13.03
  -1   9   8   31.31    4.81
   1   9  -8   30.24    5.55
  -1   9  -8   32.63    4.93
  -1  -9  -8   38.89    6.23
  -1   9   8   29.84    3.68
   1   9   8   45.49    7.32
   1  -9  -8   26.08    3.10
   1   9  -8   30.32    6.09
  -1   9  -8   22.71    7.58
  -1   9   9    7.37    2.56
   1   9  -9    6.13    2.65
  -1   9  -9    1.25    2.63
  -1  -9  -9   -0.38    5.23
  -1   9   9    5.05    1.67
   1   9   9    3.92    3.19
   1   9  -9   13.49    5.45
  -1   9  -9    9.90    7.59
  -1   9  10  253.51   20.86
   1   9 -10  235.20    8.96
  -1   9 -10  217.59    8.36
  -1  -9 -10  231.37   11.27
  -1   9  10  230.69   16.25
   1   9  10  248.59   22.93
   1   9 -10  229.99   10.47
  -1   9 -10  228.40   12.75
  -1   9  11  122.15   12.64
   1   9 -11  116.45   10.96
  -1   9 -11  102.56    7.35
  -1  -9 -11   91.60   10.89
  -1   9  11   97.41   10.44
   1   9  11  134.90   16.99
   1   9 -11   84.00    9.17
  -1   9 -11   96.41   10.47
  -1   9  12   86.72   11.06
   1   9 -12   88.70    8.82
  -1   9 -12   95.20    7.42
  -1  -9 -12   92.55   11.26
  -1   9  12   90.66   10.68
   1   9  12   81.33   10.06
   1   9 -12   91.60   10.85
  -1   9 -12   76.60    8.13
  -1   9  13   32.87    5.47
   1   9 -13   26.62    5.34
  -1   9 -13   25.47    3.95
  -1  -9 -13   27.37    6.45
  -1   9  13   24.89    4.33
   1   9  13   39.94    6.29
   1   9 -13   32.63    7.55
  -1   9 -13   34.34    8.28
  -1   9  14  248.19    9.77
   1   9 -14  239.38    6.93
  -1  -9 -14  254.87   13.03
  -1   9  14  211.12   21.83
   1   9  14  230.91   24.02
   1   9 -14  260.82   14.63
  -1   9 -14  227.14   13.37
  -1   9 -15   10.48    3.18
  -1  -9 -15   16.98    7.34
   1  -9 -15   11.39    5.81
   1   9  15    9.31    3.28
   1   9 -15   14.34    6.25
  -1   9 -15   10.43    7.45
   1  -9 -15   19.32    4.82
  -1   9 -16   49.55    6.42
  -1  -9 -16   34.00    6.69
   1  -9 -16   32.20    7.22
   1   9  16   40.26    7.26
   1   9 -16   27.40    7.84
  -1   9 -16   43.42    8.27
   1  -9 -16   42.81    8.47
  -1   9 -17   91.36    7.22
  -1  -9 -17   80.61    8.73
   1  -9 -17   80.41    8.13
   1   9  17   65.55    9.90
   1   9 -17   95.97   11.44
  -1   9 -17   93.32   10.28
   1  -9 -17   93.17    8.93
  -1  -9 -18  123.29   13.93
   1  -9 -18   93.48    9.28
   1   9  18   69.08   13.24
   1   9 -18  101.85   11.06
   1  -9 -18   97.89    8.95
  -1  -9 -19    8.97    4.52
   1  -9 -19   25.15    5.35
   1   9  19   11.92    3.11
   1   9 -19   25.83    6.54
   1  -9 -19   29.44    4.99
  -1  -9 -20   70.08   10.44
   1  -9 -20   72.33   10.62
   1   9  20   51.04   15.18
   1   9 -20   85.13   14.05
  -1   9 -20   96.39   15.02
  -1  -9 -21   18.97    7.87
   1   9 -21    3.97    5.89
  -1   9 -21   12.50    8.90
  -1  -9 -21    0.04    3.54
   1  10   0 1245.00   36.47
  -1  10   0 1219.49   35.96
   1  10   0 1179.64   35.42
  -1  10   0 1216.15   35.64
   1  10   1  163.94    6.94
   1  10  -1  206.55   15.26
  -1  10   1  167.74    9.57
  -1  10  -1  171.20   17.52
   1  10   1  189.46    9.01
   1  10  -1  174.31    9.39
  -1  10   1  169.39    7.85
  -1  10  -1  162.26    7.73
   1  10   2  168.61   10.94
   1  10  -2  170.79   15.10
  -1  10   2  132.15   17.22
  -1  10  -2  185.00    8.54
   1  10   2  160.95    8.49
  -1  10   2  148.98    6.41
   1  10  -2  168.48    9.45
  -1  10  -2  160.26    7.60
   1  10   3   59.93    8.06
   1  10  -3   70.51   11.77
  -1  10   3   50.40    7.32
  -1  10  -3   51.18    4.78
   1  10   3   52.81    5.12
  -1  10   3   60.18    4.32
   1  10  -3   41.62    5.53
  -1  10  -3   40.13    4.20
   1 -10  -3   38.35    3.91
   1  10   4  187.45   21.41
   1  10  -4  156.38   11.04
  -1  10  -4  138.53    7.42
  -1  10   4  145.46    6.74
   1  10   4  140.53    7.94
   1  10  -4  135.18    9.88
  -1  10  -4  137.77    7.68
   1 -10  -4  133.10    6.68
   1  10   5   16.51    2.84
   1  10  -5   30.40    4.46
  -1  10   5   25.87    3.16
  -1  10  -5   19.43    3.48
  -1  10   5   18.19    2.66
   1  10   5   17.33    5.36
   1  10  -5   12.34    4.98
   1 -10  -5   25.29    3.42
  -1  10  -5   22.80    5.44
   1  10   6  126.47   15.47
   1  10  -6  122.36   13.20
  -1  10   6  111.71   15.08
  -1  10  -6   91.83    8.95
  -1  10   6  113.20    9.74
   1  10   6   85.48    8.04
   1 -10  -6   77.34    6.69
   1  10  -6   87.80    9.23
  -1  10  -6   99.22   10.87
   1  10   7  180.70    9.32
   1  10  -7  180.65    7.52
  -1  10   7  203.52   21.15
  -1  10  -7  166.22   11.58
  -1  10   7  187.14   17.48
   1  10   7  173.44    8.94
   1  10  -7  187.94   12.01
  -1  10  -7  206.31   11.36
   1  10  -8  264.82    8.41
  -1  10   8  278.96   15.63
  -1  10  -8  251.62    9.86
  -1 -10  -8  260.31   12.56
  -1  10   8  256.27    9.81
   1  10   8  259.80   10.49
  -1  10  -8  262.00   12.39
  -1  10   9   66.65   10.50
   1  10  -9   69.19    8.76
  -1  10  -9   52.76    4.87
  -1 -10  -9   71.37   10.71
  -1  10   9   58.95    7.90
   1  10   9   59.82    7.93
   1  10  -9   64.97    8.69
  -1  10  -9   53.92    8.47
  -1  10  10  347.13   24.22
   1  10 -10  288.69   10.73
  -1  10 -10  334.84   13.10
  -1 -10 -10  315.03   16.23
  -1  10  10  338.52   13.18
   1  10  10  338.34   25.26
   1  10 -10  344.27   15.51
  -1  10 -10  334.32   15.06
  -1  10  11   45.86    7.20
   1  10 -11   52.19    7.86
  -1  10 -11   35.68    4.44
  -1 -10 -11   32.73    8.81
  -1  10  11   56.41    7.39
   1  10  11   50.02    7.14
   1  10 -11   37.18    7.17
  -1  10 -11   48.23   10.71
  -1  10  12  844.20   74.67
   1  10 -12  828.47   24.48
  -1  10 -12  823.67   24.40
  -1 -10 -12  833.06   26.79
  -1  10  12  835.43   25.08
   1  10  12  878.90   74.61
   1  10 -12  840.92   72.11
  -1  10 -12  823.22   26.97
  -1  10  13   71.65   11.14
   1  10 -13   56.64   11.46
  -1  10 -13   66.06    7.14
  -1 -10 -13   59.47    8.94
  -1  10  13   72.12   10.69
   1  10  13   71.23   11.03
   1  10 -13   83.11   13.62
  -1  10 -13   71.02    9.53
  -1  10  14  101.15   11.13
  -1  10 -14   89.05    5.15
  -1 -10 -14  117.40    9.30
  -1  10  14  104.67   10.52
   1  10  14   87.64   13.98
   1  10 -14   97.52    8.54
  -1  10 -14  113.22   12.42
  -1  10 -15    4.14    2.97
  -1 -10 -15   15.68    7.05
  -1  10  15    3.92    2.60
   1  10  15   10.39    3.57
   1  10 -15    5.39    5.53
  -1  10 -15   12.39    8.15
  -1  10 -16    4.84    2.55
  -1 -10 -16   10.05    4.75
   1 -10 -16   11.32    5.64
   1  10  16   15.92    4.41
   1  10 -16   -1.13    5.24
  -1  10 -16   13.69    8.17
   1 -10 -16    2.98    2.76
  -1 -10 -17   22.59    8.24
   1 -10 -17   20.42    6.72
   1  10  17   10.40    4.31
   1  10 -17   11.11    8.16
  -1  10 -17   22.56    9.05
   1 -10 -17   19.32    5.24
  -1 -10 -18   15.44    5.15
   1  10  18    9.48    3.77
   1  10 -18   11.23    6.12
  -1  10 -18   13.52    5.73
   1 -10 -18   13.28    3.33
  -1 -10 -19   10.86    6.70
   1 -10 -19    7.19    3.79
   1  10  19    4.11    2.86
   1  10 -19   16.24    7.87
  -1  10 -19   18.80    6.83
  -1 -10 -20   10.21    4.92
   1 -10 -20   10.10    4.72
   1  10  20    0.96    2.51
   1  10 -20    9.33    5.84
  -1  10 -20   39.01   12.44
  -1 -10 -21   14.61    6.52
   1  10 -21   37.89    9.70
  -1  10 -21   26.18    9.09
   1  11   0   57.87    7.89
  -1  11   0   57.39    7.59
   1  11   0   40.84    6.51
  -1  11   0   40.31    5.22
   1  11   1  309.01   12.00
   1  11  -1  302.56   11.39
  -1  11   1  331.27   28.15
  -1  11  -1  323.01   14.36
   1  11   1  300.91   12.27
  -1  11   1  294.43   11.14
   1  11  -1  279.93   11.65
  -1  11  -1  339.82   13.54
   1  11   2   79.11   10.69
   1  11  -2   78.13   10.38
  -1  11   2   76.75   11.45
  -1  11  -2   71.82   12.04
   1  11   2   75.07    8.12
  -1  11   2   73.81    7.08
   1  11  -2   65.17    7.05
  -1  11  -2   90.39    9.37
   1  11   3  185.14   18.89
   1  11  -3  179.87   14.95
  -1  11   3  135.72   18.01
  -1  11  -3  169.87   11.57
   1  11   3  141.89   12.52
  -1  11   3  152.45   12.53
   1  11  -3  140.23   13.36
  -1  11  -3  162.90   12.53
   1  11   4    6.31    2.61
   1  11  -4    4.68    1.97
  -1  11   4    5.76    3.87
  -1  11  -4   -1.12    3.52
  -1  11   4    6.07    2.29
   1  11   4    8.99    5.39
   1  11  -4    4.87    5.31
  -1  11  -4    5.81    4.32
   1  11   5    4.65    2.03
   1  11  -5    5.15    2.30
  -1  11   5   12.48    4.92
  -1  11  -5    9.14    4.47
  -1  11   5    3.04    2.26
   1  11   5    5.06    3.84
   1  11  -5    8.63    5.28
  -1  11  -5    0.97    4.96
   1  11   6  133.20   14.58
   1  11  -6  105.40   12.41
  -1  11   6  116.16   14.96
  -1  11  -6  104.81    8.81
  -1  11   6  100.01    7.75
   1  11   6  105.55    9.21
   1  11  -6   96.79    9.06
  -1  11  -6   83.18    8.38
   1  11   7  100.92    8.20
   1  11  -7  111.31   10.51
  -1  11   7  112.57   12.29
  -1  11  -7   98.39    8.11
  -1  11   7   97.65   11.64
   1  11   7   95.90    8.80
   1  11  -7  123.78   12.72
  -1  11  -7  103.37   10.95
  -1  11   8  116.73   12.33
   1  11  -8  150.83   11.73
  -1  11  -8  133.12    9.79
  -1  11   8  128.31   14.58
   1  11   8  137.68    9.88
   1  11  -8  135.75   10.94
  -1  11  -8  153.94   12.48
  -1  11   9  106.14   13.02
   1  11  -9  111.53   16.41
  -1  11  -9  108.73    7.76
  -1 -11  -9  117.55   12.75
  -1  11   9  104.95   11.89
   1  11   9  108.24   15.34
   1  11  -9   83.47    8.22
  -1  11  -9   88.71    9.77
  -1  11  10  103.34   11.18
   1  11 -10   85.72   12.91
  -1  11 -10   82.65    4.95
  -1 -11 -10  101.71   10.86
  -1  11  10   94.35    8.58
   1  11  10   97.50   10.75
  -1  11 -10  108.47    9.26
  -1  11  11   91.14   12.15
   1  11 -11  101.96    6.27
  -1  11 -11   93.98   12.70
  -1 -11 -11   85.95   10.74
  -1  11  11   89.75   13.23
   1  11  11   70.11   11.77
   1  11 -11   95.28   13.98
  -1  11 -11   81.28   10.22
  -1  11  12  181.48   20.49
   1  11 -12  182.95   13.62
  -1  11 -12  177.89    7.74
  -1 -11 -12  172.62   10.11
  -1  11  12  150.31   16.10
   1  11  12  183.90   18.40
   1  11 -12  186.37   13.80
  -1  11 -12  183.43   10.75
  -1  11  13  188.41   24.31
   1  11 -13  204.73   11.62
  -1  11 -13  193.30    9.95
  -1 -11 -13  193.82   15.24
  -1  11  13  204.12   14.17
   1  11  13  204.95   23.47
   1  11 -13  193.16   12.17
  -1  11 -13  191.24   12.11
  -1  11  14  104.82   12.41
  -1  11 -14   99.49    6.26
  -1 -11 -14   88.13   10.62
   1  11  14  116.94   13.41
   1  11 -14   84.04    8.31
  -1  11 -14  155.38   14.56
  -1  11  15   21.68    5.19
  -1  11 -15   16.43    3.79
  -1 -11 -15   19.22    8.23
  -1  11  15    9.60    2.88
   1  11  15   13.38    3.93
   1  11 -15    8.89    5.55
  -1  11 -15   22.37    8.41
  -1  11 -16  145.62   11.56
  -1 -11 -16  136.41   13.07
   1 -11 -16  126.63   12.30
   1  11  16  114.99   18.05
   1  11 -16  160.75   15.05
  -1  11 -16  143.44   13.47
  -1 -11 -17   39.50    7.13
   1 -11 -17   44.15    7.46
   1  11  17   42.60    6.88
   1  11 -17   41.30    7.79
  -1  11 -17   61.27   10.96
  -1 -11 -18   70.99   11.40
   1 -11 -18   69.81   10.28
   1  11  18   49.19    9.29
   1  11 -18   68.92   11.33
  -1  11 -18   67.24   11.27
  -1 -11 -19   36.30   10.47
   1 -11 -19   30.24    8.02
   1  11  19   16.81    5.46
   1  11 -19   14.73    6.77
  -1  11 -19    4.60    5.90
  -1 -11 -20   24.46    7.02
   1  11  20   18.36    6.10
   1  11 -20   25.35    8.58
  -1  11 -20   36.66    9.89
   1  12   0  296.71   10.77
  -1  12   0  269.56   15.98
   1  12   0  288.16   11.49
  -1  12   0  278.50   10.27
   1  12   1  887.11   24.39
   1  12  -1  888.60   24.39
  -1  12   1  837.81   24.69
  -1  12  -1  860.15   29.57
   1  12   1  861.57   24.09
  -1  12   1  892.07   23.83
   1  12  -1  853.56   24.04
  -1  12  -1  865.06   23.71
   1  12   2  405.53   16.37
   1  12  -2  415.94   16.14
  -1  12   2  439.60   14.17
  -1  12  -2  437.08   15.01
   1  12   2  390.43   13.65
  -1  12   2  411.57   12.45
   1  12  -2  402.82   13.59
  -1  12  -2  429.10   14.06
   1  12   3  489.18   14.87
   1  12  -3  491.50   17.93
  -1  12   3  497.99   31.51
  -1  12  -3  463.00   18.37
   1  12   3  472.78   15.46
  -1  12   3  489.73   14.09
   1  12  -3  488.03   16.14
  -1  12  -3  475.00   15.04
   1  12   4  306.15   28.88
   1  12  -4  273.21    9.46
  -1  12   4  279.17   19.61
  -1  12  -4  287.23   18.50
  -1  12   4  277.46    9.63
   1  12   4  279.74   10.88
   1  12  -4  311.61   12.98
  -1  12  -4  284.89   11.68
   1  12   5  489.08   23.33
   1  12  -5  503.62   18.32
  -1  12  -5  511.01   33.72
  -1  12   5  485.27   17.19
   1  12   5  474.34   17.80
   1  12  -5  510.07   20.10
  -1  12  -5  502.47   19.54
   1  12   6  162.50   15.84
   1  12  -6  193.79    8.42
  -1  12   6  194.76   12.95
  -1  12  -6  201.19   17.23
  -1  12   6  209.07    8.73
   1  12   6  189.01    9.88
   1  12  -6  189.51   11.53
  -1  12  -6  186.27   11.42
   1  12   7  487.86   16.42
   1  12  -7  481.94   15.38
  -1  12   7  515.06   16.95
  -1  12  -7  463.03   15.84
  -1  12   7  488.60   15.11
   1  12   7  508.39   17.13
   1  12  -7  480.17   17.78
  -1  12  -7  489.67   17.45
   1  12  -8  148.78   10.88
  -1  12   8  136.69   16.43
  -1  12  -8  118.98    7.78
  -1  12   8  133.69   13.36
   1  12   8  141.88    8.07
   1  12  -8  134.85    9.84
  -1  12  -8   99.16    7.73
  -1  12   9   29.14    4.92
   1  12  -9   23.81    4.81
  -1  12  -9   31.88    5.05
  -1 -12  -9   27.75    6.26
  -1  12   9   27.72    4.71
   1  12   9   29.07    5.32
   1  12  -9   16.11    5.58
  -1  12  -9   26.44    7.70
  -1  12  10   37.02    5.78
   1  12 -10   28.84    4.72
  -1  12 -10   10.59    2.81
  -1 -12 -10   12.43    5.45
  -1  12  10   16.57    3.09
   1  12  10   16.07    3.41
   1  12 -10    1.05    4.69
  -1  12 -10   15.72    5.44
  -1  12  11   99.54   13.00
   1  12 -11  101.56   10.51
  -1  12 -11  100.08    6.12
  -1 -12 -11   98.44   10.57
  -1  12  11   96.09    9.25
   1  12  11   97.82   14.62
   1  12 -11  105.95    9.35
  -1  12 -11  101.91    8.31
  -1  12  12    1.87    2.69
   1  12 -12    4.06    1.91
  -1  12 -12    6.30    2.54
  -1 -12 -12    5.80    5.45
  -1  12  12    5.36    1.73
   1  12  12   15.92    4.79
  -1  12 -12    7.20    5.53
  -1  12  13   25.27    6.14
   1  12 -13   16.85    4.07
  -1  12 -13   23.15    5.09
  -1 -12 -13   25.55    8.86
   1  12  13   19.35    5.66
  -1  12 -13   16.97    6.16
  -1  12  14   21.65    4.66
  -1  12 -14   14.57    4.40
  -1 -12 -14   18.52    7.46
  -1  12  14   10.68    2.94
   1  12  14   10.40    3.37
   1  12 -14    4.76    4.93
  -1  12 -14   25.94    9.28
  -1  12  15   75.25    7.63
  -1  12 -15   60.52    5.86
  -1 -12 -15   70.73   11.60
   1  12  15   59.92   10.60
   1  12 -15   58.07    8.76
  -1  12 -15   29.83    8.29
  -1  12 -16    7.56    3.11
  -1 -12 -16    8.66    4.89
   1 -12 -16   21.01    6.36
   1  12  16   22.31    4.46
   1  12 -16    5.58    5.58
  -1  12 -16   22.55    8.32
  -1 -12 -17    9.46    5.26
   1 -12 -17    7.60    4.29
   1  12  17    7.61    3.52
   1  12 -17    7.23    6.02
  -1  12 -17    3.80    6.07
  -1 -12 -18   27.93    9.17
   1 -12 -18   23.49    7.81
   1  12  18   11.51    4.80
   1  12 -18   26.70    9.38
  -1  12 -18   31.60    9.57
  -1 -12 -19   20.16    7.62
   1 -12 -19    1.97    3.49
   1  12  19   12.33    4.73
   1  12 -19   14.24    6.37
  -1  12 -19   16.27    8.55
   1  13   0   26.38    4.42
  -1  13   0   14.39    3.48
   1  13   0   20.06    5.90
  -1  13   0   14.97    3.89
   1  13   1   41.08    6.51
   1  13  -1   53.53    8.50
  -1  13   1   32.21    5.41
  -1  13  -1   38.07    7.19
   1  13   1   45.05    5.39
  -1  13   1   47.50    5.83
   1  13  -1   24.48    5.27
  -1  13  -1   42.97    5.36
   1  13   2  182.84    9.22
   1  13  -2  205.02   15.58
  -1  13   2  180.24   15.76
  -1  13  -2  178.57   17.67
   1  13   2  188.96   10.24
  -1  13   2  184.88    9.54
   1  13  -2  195.72   10.87
  -1  13  -2  178.35    9.25
   1  13   3  319.00   13.16
   1  13  -3  347.30   24.41
  -1  13   3  273.73   14.13
  -1  13  -3  290.29   15.89
   1  13   3  308.30   14.01
  -1  13   3  321.08   12.68
   1  13  -3  299.58   13.99
  -1  13  -3  302.95   13.38
   1  13   4   11.38    3.82
   1  13  -4   19.55    3.79
  -1  13  -4   28.33    4.54
   1  13   4   12.05    4.04
  -1  13   4   10.71    2.50
   1  13  -4   11.85    6.98
  -1  13  -4   14.32    5.82
   1  13   5   18.93    3.97
   1  13  -5   22.75    4.78
  -1  13  -5   13.13    3.54
  -1  13   5    8.68    3.27
   1  13   5   16.54    3.84
   1  13  -5   10.32    5.08
  -1  13  -5   15.30    3.86
   1  13   6   12.27    4.03
   1  13  -6   13.33    2.33
  -1  13   6   18.74    3.38
  -1  13  -6   11.42    3.92
  -1  13   6   14.02    3.30
   1  13   6   29.15    6.01
   1  13  -6   21.77    7.41
  -1  13  -6   29.02    6.47
   1  13   7   88.63   15.48
   1  13  -7   81.52   12.09
  -1  13   7   90.68   12.70
  -1  13  -7   83.64   11.27
  -1  13   7   92.41    9.05
   1  13   7   84.16    8.86
   1  13  -7   92.99   10.08
  -1  13  -7   88.31   10.76
   1  13   8   35.40    5.64
  -1  13   8   29.48    5.41
   1  13  -8   28.79    6.05
  -1  13  -8   31.56    6.47
  -1  13   8   28.55    4.09
   1  13   8   32.31    4.73
   1  13  -8   35.11    7.80
  -1  13  -8   39.89    8.11
   1  13  -9   65.65    9.27
  -1  13   9   60.27   12.09
  -1  13  -9   62.14    9.63
  -1 -13  -9   47.13    9.39
  -1  13   9   42.93    7.11
   1  13   9   61.43   10.12
   1  13  -9   61.69   10.01
  -1  13  -9   44.19    8.28
  -1  13  10   42.11    7.00
   1  13 -10   34.45    7.57
  -1  13 -10   47.13    7.84
  -1 -13 -10   35.81    8.02
  -1  13  10   38.69    7.39
   1  13  10   32.37    6.11
   1  13 -10   53.93    9.09
  -1  13 -10   42.01    7.64
  -1  13  11   18.93    4.72
   1  13 -11   11.04    2.65
  -1  13 -11   26.22    6.46
  -1 -13 -11   17.49    8.42
  -1  13  11   12.58    2.99
   1  13  11   18.89    5.75
   1  13 -11    8.06    4.88
  -1  13 -11   22.32    6.96
  -1  13  12    5.26    3.27
   1  13 -12    5.02    1.72
  -1  13 -12    5.25    2.52
  -1 -13 -12   -2.12    4.97
  -1  13  12    8.67    3.35
   1  13 -12    8.38    7.06
  -1  13 -12   13.89    6.25
  -1  13  13    8.08    3.97
  -1  13 -13   21.57    5.31
  -1 -13 -13   17.76    7.80
  -1  13  13   11.48    3.09
   1  13  13   25.70    5.49
   1  13 -13   33.46    9.98
  -1  13 -13   24.21    8.64
  -1  13  14    7.00    3.14
  -1  13 -14    5.01    2.24
  -1 -13 -14    7.98    5.19
   1  13  14    6.60    2.35
  -1  13 -14    8.65    6.13
  -1  13  15   20.65    4.47
  -1  13 -15   14.40    4.87
   1  13  15   13.98    3.24
   1  13 -15   21.01    7.63
  -1  13 -15   28.18    8.62
  -1 -13 -16   20.90    8.36
   1 -13 -16    8.54    4.81
   1  13  16    1.21    2.76
   1  13 -16    3.80    5.17
  -1  13 -16    3.68    5.43
  -1 -13 -17   43.61   11.15
   1 -13 -17   33.82    8.45
   1  13  17   40.02   10.28
   1  13 -17   55.38   10.39
  -1  13 -17   45.24    9.60
  -1 -13 -18   64.39   12.70
   1 -13 -18   28.59    6.13
   1  13  18   34.39    8.88
   1  13 -18   61.20   11.35
  -1  13 -18   35.35    7.67
   1  14   0  498.48   15.59
  -1  14   0  473.08   18.36
   1  14   0  486.92   16.14
  -1  14   0  494.08   14.69
   1  14   1  511.77   15.55
   1  14  -1  497.07   23.09
  -1  14   1  542.05   20.14
  -1  14  -1  494.30   19.65
   1  14   1  514.65   16.35
  -1  14   1  525.59   15.54
   1  14  -1  557.06   18.24
  -1  14  -1  547.31   16.52
   1  14   2  241.67   21.20
   1  14  -2  177.34   15.40
  -1  14   2  178.68   22.84
  -1  14  -2  177.86   24.52
   1  14   2  170.39    9.00
  -1  14   2  184.92    8.00
   1  14  -2  175.27    9.94
  -1  14  -2  189.34    8.32
   1  14   3  246.32    9.82
   1  14  -3  247.14   19.72
  -1  14   3  234.53   30.92
  -1  14  -3  251.97   12.27
   1  14   3  239.92   10.59
  -1  14   3  239.36    8.87
   1  14  -3  213.21    9.54
  -1  14  -3  228.74   10.28
   1  14   4  124.66   15.50
   1  14  -4  104.83   16.10
  -1  14   4  115.91   14.86
  -1  14  -4  122.85   13.27
   1  14   4   95.82   13.61
  -1  14   4  101.24    5.95
   1  14  -4   99.33   14.52
  -1  14  -4   95.51   13.46
   1  14   5  200.20   25.29
   1  14  -5  187.23    9.92
  -1  14   5  194.53   21.94
  -1  14  -5  169.72   13.57
  -1  14   5  193.55    8.04
   1  14   5  187.17    8.95
   1  14  -5  182.78    9.52
  -1  14  -5  178.32    9.40
   1  14   6   97.77   13.24
   1  14  -6   94.28   14.50
  -1  14   6  115.30   14.47
  -1  14  -6  126.36   14.44
  -1  14   6   91.38    4.89
   1  14   6  102.74    6.66
   1  14  -6   88.26    7.18
  -1  14  -6  110.80    8.46
   1  14   7   97.64    6.61
   1  14  -7  106.26   17.08
  -1  14   7  103.15   12.62
  -1  14  -7   86.71   12.65
  -1  14   7  106.30    5.49
   1  14   7  124.90    7.49
   1  14  -7  104.63    8.92
  -1  14  -7   83.79    7.08
   1  14   8   35.81    6.20
  -1  14   8   25.90    6.31
   1  14  -8   29.87    4.73
  -1  14  -8   18.59    3.83
  -1  14   8   20.58    4.11
   1  14   8   22.92    4.81
   1  14  -8   27.08    8.33
  -1  14  -8   13.23    6.57
  -1  14   9  210.01   24.94
   1  14  -9  219.38   19.18
  -1  14  -9  223.18   16.75
  -1 -14  -9  196.09   14.00
  -1  14   9  203.24   17.66
   1  14   9  217.09   22.85
   1  14  -9  205.82   12.71
  -1  14  -9  189.13   11.41
  -1  14  10   30.97    7.04
   1  14 -10   34.14    7.98
  -1  14 -10   27.61    7.88
  -1 -14 -10   22.71    6.35
  -1  14  10   20.26    4.17
   1  14  10   27.18    6.27
   1  14 -10   18.12    6.64
  -1  14 -10   37.53    9.87
  -1  14  11   15.68    3.87
   1  14 -11   20.03    4.98
  -1  14 -11   14.60    4.49
  -1 -14 -11   29.28    8.75
  -1  14  11    5.62    1.92
   1  14  11   12.44    3.66
   1  14 -11   28.32    8.35
  -1  14 -11   20.17    6.74
  -1  14  12  107.76   24.31
   1  14 -12  100.72   14.29
  -1  14 -12  107.14   13.29
  -1 -14 -12  101.42   10.97
   1  14  12  100.80   16.75
   1  14 -12   96.30   10.54
  -1  14 -12   95.67    9.74
  -1  14  13   65.19   11.33
  -1  14 -13   50.21   12.77
  -1 -14 -13   70.17   11.61
   1  14  13   58.92    7.21
   1  14 -13   70.85   10.29
  -1  14 -13   68.67    8.49
  -1  14  14   49.90    9.26
  -1  14 -14   36.89    9.84
  -1 -14 -14   56.63   10.45
   1  14  14   46.35    7.29
   1  14 -14   73.66   12.51
  -1  14 -14   14.40    6.37
  -1  14  15   11.59    3.97
  -1  14 -15    6.19    2.32
  -1 -14 -15   18.91    8.14
   1  14  15   25.92   10.41
   1  14 -15   22.99    7.54
  -1  14 -15   16.71    8.44
  -1 -14 -16   10.87    5.83
   1 -14 -16   11.00    6.15
   1  14  16   11.42    3.57
  -1  14 -16   21.58    9.25
  -1 -14 -17    5.11    4.89
   1 -14 -17    7.43    4.40
   1  14  17    7.67    2.35
   1  14 -17   16.11    8.15
  -1  14 -17    7.75    5.68
   1  15   0    0.40    2.87
  -1  15   0    4.31    2.56
   1  15   0   10.76    4.20
  -1  15   0    2.81    3.02
   1  15  -1   65.15   11.31
   1  15   1   82.05   10.38
  -1  15   1   75.10   10.49
  -1  15  -1   68.70   12.59
   1  15   1   84.93    7.73
  -1  15   1   56.67    8.39
   1  15  -1   57.34    8.76
  -1  15  -1   61.26    8.96
   1  15   2   36.49    7.24
   1  15  -2   53.26   10.53
  -1  15   2   28.43    5.82
  -1  15  -2   32.63    6.58
   1  15   2   27.23    5.67
  -1  15   2   36.37    6.04
   1  15  -2   43.93    8.98
  -1  15  -2   25.75    5.02
   1  15   3   69.46    9.35
   1  15  -3   88.89   12.36
  -1  15   3   64.36   18.20
  -1  15  -3   82.68    8.81
  -1  15   3   91.94    6.24
   1  15   3   91.44    7.89
   1  15  -3   82.08    8.14
  -1  15  -3   98.30    7.74
   1  15   4   51.77    8.52
   1  15  -4   38.76   10.19
  -1  15   4   39.89    8.06
  -1  15  -4   32.81    5.08
  -1  15   4   23.61    4.07
   1  15   4   39.88    5.99
   1  15  -4   34.09    5.87
  -1  15  -4   37.36    6.39
   1  15   5  113.28   18.68
   1  15  -5   96.04   19.23
  -1  15   5  127.83   19.12
  -1  15  -5  115.99   10.14
   1  15   5  124.38    8.35
  -1  15   5  110.05    7.01
   1  15  -5  115.42    9.37
  -1  15  -5  105.14    8.71
   1  15   6    9.49    3.31
   1  15  -6   13.45    4.26
  -1  15  -6    5.17    2.37
  -1  15   6   11.11    3.84
   1  15   6   16.92    5.49
   1  15  -6    7.95    4.55
  -1  15  -6    9.28    4.40
   1  15   7   16.77    5.40
   1  15  -7   20.42    4.63
  -1  15   7   11.51    3.13
  -1  15  -7   24.28    5.94
  -1  15   7   17.74    4.29
   1  15   7   22.91    5.42
   1  15  -7    9.42    6.51
  -1  15  -7   27.22    8.73
   1  15   8    9.71    3.60
   1  15  -8    5.15    2.51
  -1  15   8   20.99    5.04
  -1  15  -8   14.46    4.21
  -1  15   8    2.92    2.05
   1  15   8    7.93    3.25
   1  15  -8   23.66    7.98
  -1  15  -8    4.30    4.51
   1  15  -9    4.61    2.80
  -1  15   9    9.07    3.83
  -1  15  -9    0.76    2.19
  -1 -15  -9    6.96    4.98
  -1  15   9    3.07    2.06
   1  15   9   -1.58    2.83
   1  15  -9   18.05    7.67
  -1  15  -9   19.69    7.03
  -1  15  10    6.23    3.75
   1  15 -10   12.64    4.27
  -1  15 -10   13.33    4.07
  -1 -15 -10   17.05    5.68
   1  15  10    6.77    3.84
   1  15 -10    9.83    4.62
  -1  15 -10   11.31    6.74
  -1  15  11   26.95    5.59
   1  15 -11   16.76    4.26
  -1  15 -11   13.83    4.12
  -1 -15 -11   28.45    8.39
   1  15  11   25.15    4.11
   1  15 -11   20.47    6.12
  -1  15 -11   24.41    6.04
  -1  15  12   81.33   19.29
  -1  15 -12   80.19   15.44
  -1 -15 -12  144.47   15.51
   1  15  12  104.68   14.16
   1  15 -12  117.97   11.65
  -1  15 -12  119.91   13.14
  -1  15  13   49.15   10.08
  -1  15 -13   34.83    7.05
  -1 -15 -13   25.37    9.08
   1  15  13   34.94    7.81
   1  15 -13   24.88    7.43
  -1  15 -13   28.86    8.00
  -1  15  14   29.42    9.22
  -1  15 -14   36.26    9.30
  -1 -15 -14   71.52   13.58
   1  15  14   34.05    6.74
   1  15 -14   47.86    9.25
  -1  15 -14   46.60    9.25
  -1  15  15   84.21   11.77
  -1 -15 -15   51.17   10.82
   1  15  15   44.92    9.16
   1  15 -15   66.52   12.39
  -1  15 -15   77.52   13.98
  -1 -15 -16   81.74   12.46
   1 -15 -16   74.34   12.79
   1  15  16   68.63   12.21
   1  15 -16   98.06   14.17
  -1  15 -16  115.68   16.55
   1  16   0  227.13   21.24
  -1  16   0  208.75   20.15
   1  16   0  208.54   10.73
  -1  16   0  230.38   10.39
   1  16   1    7.82    3.91
   1  16  -1   10.43    4.04
  -1  16   1    7.05    3.90
  -1  16  -1    3.30    3.01
   1  16   1   15.85    5.39
  -1  16   1    2.76    2.59
   1  16  -1    5.97    3.90
  -1  16  -1    7.76    4.34
   1  16   2  137.27   14.50
   1  16  -2  129.12   12.14
  -1  16   2  138.31   17.06
  -1  16  -2  121.07   16.49
   1  16   2   95.33    6.36
  -1  16   2  116.22    6.57
   1  16  -2  118.76    9.49
  -1  16  -2  109.93    7.44
   1  16   3   18.19    6.00
   1  16  -3   21.74    5.18
  -1  16   3   26.69    7.02
  -1  16  -3   22.29    6.58
   1  16   3   22.10    6.05
  -1  16   3   21.49    4.71
   1  16  -3   35.30    8.86
  -1  16  -3   14.95    5.44
   1  16   4   74.31   12.02
   1  16  -4   68.16   11.38
  -1  16   4   51.51    9.22
  -1  16  -4   57.05   10.82
   1  16   4   82.62    9.00
  -1  16   4   58.81    5.70
   1  16  -4   51.78    6.77
  -1  16  -4   61.24    7.34
   1  16   5   24.15    5.61
   1  16  -5   14.33    4.16
  -1  16   5   12.39    4.45
  -1  16  -5   15.39    4.30
  -1  16   5   13.13    3.56
   1  16   5   20.56    6.15
   1  16  -5   21.38    8.31
  -1  16  -5   15.87    5.81
   1  16   6   52.21   10.35
   1  16  -6   51.91    7.52
  -1  16   6   62.34   11.08
  -1  16  -6   52.33   10.51
  -1  16   6   43.94    8.31
   1  16   6   53.59    6.01
   1  16  -6   36.05    7.16
  -1  16  -6   50.91    6.07
   1  16   7   10.29    3.96
   1  16  -7    8.69    2.87
  -1  16   7    9.48    4.08
  -1  16  -7    4.01    2.95
  -1  16   7    6.54    2.69
   1  16   7    1.84    2.83
   1  16  -7    9.94    5.26
  -1  16  -7   12.84    4.47
   1  16   8  170.42   14.52
  -1  16   8  176.50   30.92
   1  16  -8  171.32   20.08
  -1  16  -8  136.59   22.71
   1  16   8  176.08   14.67
   1  16  -8  145.95   13.98
  -1  16  -8  171.40   14.57
  -1  16   9   38.48    6.95
   1  16  -9   32.43   11.31
  -1  16  -9   44.37    8.03
  -1 -16  -9   39.16    8.54
   1  16   9   56.20    9.88
   1  16  -9   36.16    7.87
  -1  16  -9   51.05    6.62
   1  16 -10   80.90   16.29
  -1  16 -10   91.45   16.35
  -1 -16 -10  108.36   14.49
   1  16  10  103.92   16.97
   1  16 -10  152.41   19.21
  -1  16 -10  110.16   14.83
  -1  16  11   10.66    4.02
   1  16 -11    7.56    3.09
  -1 -16 -11   15.42    7.84
   1  16  11    6.68    3.15
   1  16 -11   15.03    7.80
  -1  16 -11   18.46    7.14
  -1  16  12  131.15   24.79
  -1  16 -12  142.03   23.29
  -1 -16 -12  156.63   21.65
   1  16  12  119.33   24.05
   1  16 -12  140.38   18.26
  -1  16 -12  134.11   17.30
  -1  16  13   40.87   10.48
  -1  16 -13   25.84    8.54
  -1 -16 -13   23.98    8.20
   1  16  13   21.05    5.48
   1  16 -13   47.29    9.93
  -1  16 -13   37.36    9.41
  -1  16  14   38.50   10.25
  -1 -16 -14   55.17   11.96
   1  16  14   44.22    9.39
   1  16 -14   74.03   12.35
  -1  16 -14   75.69   12.06
   1  17   0   17.80    5.28
  -1  17   0    7.30    3.66
   1  17   0    3.74    3.95
  -1  17   0    8.20    3.69
   1  17   1   70.96   14.66
   1  17  -1   64.92   12.63
  -1  17   1   66.56   10.38
  -1  17  -1   60.92   10.93
   1  17   1   59.45    7.48
  -1  17   1   63.72    6.45
   1  17  -1   77.20    9.25
  -1  17  -1   55.21    6.81
   1  17   2  137.41   20.83
   1  17  -2  128.94   17.53
  -1  17   2  115.28   19.32
  -1  17  -2  114.37   21.02
   1  17   2  155.17   13.38
  -1  17   2  138.45   11.77
   1  17  -2  118.90   10.99
  -1  17  -2  135.64   11.53
   1  17   3   52.33    8.28
   1  17  -3   53.62    7.61
  -1  17   3   54.19   12.34
  -1  17  -3   45.91    6.84
  -1  17   3   58.72    6.19
   1  17   3   49.34    7.15
   1  17  -3   59.10    8.29
  -1  17  -3   44.17    6.21
   1  17   4  103.91   19.75
   1  17  -4  112.90   12.29
  -1  17   4  111.54   15.20
  -1  17  -4   90.33   19.64
   1  17   4  120.18   11.15
  -1  17   4  116.42   10.16
   1  17  -4  117.56   11.38
  -1  17  -4  116.49   10.69
   1  17   5   12.03    5.35
   1  17  -5   24.59    6.35
  -1  17   5   35.54    8.20
  -1  17  -5   23.88    6.41
  -1  17   5   24.71    3.78
   1  17   5   15.34    4.51
   1  17  -5   24.78    6.45
  -1  17  -5   25.16    5.02
   1  17   6  110.20   19.75
   1  17  -6   89.34   15.05
  -1  17   6  111.78   16.23
  -1  17  -6   91.74   15.29
   1  17   6   84.67    8.26
   1  17  -6  109.46   10.01
  -1  17  -6  104.45    9.93
   1  17   7   42.89    7.62
   1  17  -7   21.64    8.34
  -1  17   7   19.35    6.79
  -1  17  -7   27.06    8.70
   1  17   7   21.26    5.76
   1  17  -7   15.38    5.73
  -1  17  -7   25.54    7.75
   1  17  -8  197.35   21.88
  -1  17   8  150.85   25.86
  -1  17  -8  185.34   21.18
   1  17   8  184.72   20.97
   1  17  -8  197.10   22.85
  -1  17   9   18.12    7.82
   1  17  -9   18.02    5.82
  -1  17  -9   24.04    6.87
  -1 -17  -9   18.97    7.21
   1  17   9   13.51    4.17
   1  17  -9    3.23    4.41
  -1  17  -9   20.89    7.40
   1  17 -10   15.72    5.42
  -1  17  10    6.82    3.62
  -1  17 -10    5.43    2.21
  -1 -17 -10   13.75    7.89
   1  17  10   14.54    4.47
   1  17 -10   25.72    8.72
  -1  17 -10   30.37    6.46
  -1  17  11   68.63   19.94
  -1  17 -11  143.91   18.78
  -1 -17 -11   73.60   11.63
   1  17  11   65.86   14.60
   1  17 -11  145.36   20.94
  -1  17 -11  101.77   15.50
  -1  17  12   52.71   10.17
  -1  17 -12   38.84   10.06
  -1 -17 -12   27.89    6.37
   1  17  12   28.72    7.16
   1  17 -12   36.30    7.47
  -1  17 -12   18.83    5.81
   1  18   0  156.83   21.50
  -1  18   0  141.86   19.53
   1  18   0  156.05   18.52
  -1  18   0  143.09   16.64
   1  18  -1   10.10    5.04
   1  18   1    3.28    2.33
  -1  18  -1    5.62    4.45
  -1  18   1    8.78    4.38
  -1  18   1    5.52    2.08
   1  18   1    8.22    4.79
   1  18  -1    5.03    3.78
  -1  18  -1    9.45    4.75
   1  18   2  124.02   21.29
   1  18  -2  113.90   21.21
  -1  18   2  106.87   20.61
  -1  18  -2  105.77   19.87
  -1  18   2  115.56   13.59
   1  18  -2  125.12   15.42
  -1  18  -2  125.15   14.89
   1  18   3    6.95    3.17
   1  18  -3    8.50    4.26
  -1  18   3    9.30    3.70
  -1  18  -3    4.94    1.98
   1  18   3   10.51    4.82
   1  18  -3   13.25    6.28
  -1  18  -3    3.68    2.92
   1  18   4   28.88    8.03
   1  18  -4   28.71    9.19
  -1  18   4   29.23    9.49
  -1  18  -4   25.07   11.72
   1  18   4   27.72    7.28
   1  18  -4   39.14    8.00
  -1  18  -4   28.74    7.80
   1  18   5   21.58    9.52
   1  18  -5   14.91    6.21
  -1  18   5   28.60    7.43
  -1  18  -5   27.24    6.12
   1  18   5   16.19    5.31
   1  18  -5    3.43    4.28
  -1  18  -5   25.79    7.82
   1  18   6   41.10    7.31
   1  18  -6   33.47    8.17
  -1  18   6   49.23   12.13
  -1  18  -6   46.25    9.09
   1  18   6   38.90    6.75
   1  18  -6   48.14    9.63
  -1  18  -6   36.96    6.83
   1  18   7   17.88    5.66
   1  18  -7   26.59    7.05
  -1  18  -7   18.11    6.53
   1  18   7   11.30    4.76
   1  18  -7   11.46    4.88
  -1  18  -7   12.86    5.61
   1  18  -8   21.61    6.22
  -1  18   8   25.06    7.09
  -1  18  -8   20.19    8.89
  -1 -18  -8    5.08    5.58
   1  18   8   18.13    5.09
   1  18  -8   23.22    7.58
  -1  18  -8    7.79    3.91
   1  18  -9   61.01   17.96
  -1  18   9   85.10   19.07
  -1  18  -9   47.95   17.40
  -1 -18  -9   87.03   14.46
   1  18   9   58.40   12.82
   1  18  -9   85.65   13.04
  -1  18  -9   73.60   11.16
  -1  18  10   18.19    6.47
  -1  18 -10   20.68    8.24
  -1 -18 -10   23.98    7.55
   1  18  10   20.86    6.29
   1  18 -10   36.67    7.57
  -1  18 -10   16.54    6.09
   1  19   0   23.65    8.13
  -1  19   0    9.96    3.08
   1  19   0   20.04    5.89
  -1  19   0    4.75    2.45
   1  19   1   24.38    7.29
   1  19  -1   35.51    9.33
  -1  19   1   25.59    7.26
  -1  19  -1   21.88    5.43
   1  19   1   20.47    5.78
   1  19  -1   37.78    9.09
  -1  19  -1   21.15    5.04
   1  19   2   25.61    6.10
   1  19  -2   14.87    6.23
  -1  19   2   14.17    5.21
  -1  19  -2   15.60    7.06
   1  19   2   29.94    7.43
   1  19  -2   26.70    7.89
  -1  19  -2    9.26    3.28
   1  19   3   31.04    8.76
   1  19  -3   23.90    6.77
  -1  19   3   23.12    6.06
  -1  19  -3   25.64    7.12
   1  19   3   33.69    8.07
   1  19  -3    4.63    3.68
  -1  19  -3   17.44    5.41
   1  19   4   30.01    8.46
   1  19  -4   14.14    4.18
  -1  19   4   18.50    5.61
  -1  19  -4   14.43    5.29
   1  19   4   20.01    5.67
   1  19  -4   15.50    6.09
  -1  19  -4   23.52    6.13
   1  19   5    7.65    3.83
  -1  19   5    9.38    4.52
  -1  19  -5   12.62    3.99
   1  19   5   22.40    6.02
   1  19  -5   14.53    4.88
  -1  19  -5   18.38    5.48
   1  19   6   51.33    8.90
   1  19  -6   49.25   11.92
  -1  19   6   82.94   13.16
  -1  19  -6   25.76   10.82
   1  19   6   40.70    6.62
   1  19  -6   49.38    8.86
  -1  19  -6   59.23    8.93
   2   0   0 7572.28   94.66
   2   0   0 7872.89  158.60
  -2   0   0 7591.70  152.93
  -2   0   1  330.09    7.19
  -2   0  -1  356.18    8.57
   2   0  -1  334.91    7.43
   2   0   1  329.16    7.22
   2   0   1  349.17    8.10
  -2   0  -1  340.93    6.57
   2   0  -1  343.64    6.23
  -2   0   1  342.18    6.70
  -2   0   2  929.34   13.92
  -2   0  -2  945.65   15.09
   2   0  -2  923.45   13.73
   2   0   2  873.21   13.65
  -2   0  -2  892.75   13.18
   2   0  -2  913.17   12.94
  -2   0   2  911.97   12.85
  -2   0   3   82.47    3.51
  -2   0  -3   87.10    7.49
   2   0  -3   78.75    3.68
   2   0   3   79.11    4.05
  -2   0  -3   83.21    3.21
   2   0  -3   82.74    3.20
  -2   0   3   74.43    3.01
  -2   0   4 1176.09   16.42
   2   0  -4 1189.22   16.35
  -2   0  -4 1160.42   18.04
   2   0   4 1179.17   17.02
  -2   0  -4 1115.26   16.00
   2   0  -4 1200.11   16.72
  -2   0   4 1179.19   16.48
  -2   0   5   67.07    3.04
   2   0  -5   65.15    2.99
  -2   0  -5   56.15    4.20
   2   0   5   84.85    9.10
   2   0  -5   73.91    4.49
  -2   0   5   59.85    3.97
  -2   0   6 2052.18   41.86
   2   0  -6 2034.56   41.60
  -2   0  -6 2078.67   44.61
   2   0   6 2114.58   44.25
   2   0  -6 2103.28   43.80
  -2   0   6 2013.57   41.57
  -2   0   7  363.44    8.17
   2   0  -7  347.83    7.95
  -2   0  -7  339.10   10.06
   2   0   7  388.65   10.31
   2   0  -7  390.20   10.72
  -2   0   7  348.84    8.96
  -2   0   8  179.15    6.05
   2   0  -8  171.10    4.99
  -2   0  -8  179.93    8.91
   2   0   8  193.82   14.55
   2   0  -8  182.28    7.32
  -2   0   8  173.17    5.98
  -2   0   9  241.66    7.12
   2   0  -9  232.46    6.24
  -2   0  -9  256.03   11.53
   2   0   9  279.84   22.05
   2   0  -9  250.02    9.94
  -2   0   9  222.47    7.43
   2   0 -10    3.65    1.20
  -2   0 -10   16.81    7.11
   2   0  10    5.38    2.09
   2   0 -10   -3.42    3.47
   2   0 -11    9.21    0.96
  -2   0 -11    7.68    4.75
   2   0 -11    8.02    0.82
   2   0  11    9.86    2.84
   2   0 -11   14.21    4.11
  -2   0 -12  132.15    9.28
   2   0  12  115.31    6.65
   2   0 -12  151.87    8.86
  -2   0 -13  312.74   14.37
   2   0 -13  338.87   13.75
  -2   0 -13  315.07   13.99
  -2   0 -14   23.29    8.95
   2   0 -14   13.05    5.24
  -2   0 -14   13.03    5.86
  -2   0 -15   19.71    3.79
   2   0 -15   19.36    4.42
  -2   0 -15   39.58    8.70
  -2   0 -16  252.46   12.90
   2   0 -16  262.17   12.87
  -2   0 -16  240.00   13.16
  -2   0 -17    7.32    4.41
   2   0 -17    1.55    3.83
  -2   0 -17   14.31    7.36
  -2   0 -18   19.15    5.61
   2   0 -18   30.94    6.01
  -2   0 -18   52.92   10.47
  -2   0 -19    8.89    4.10
   2   0 -19   10.15    4.17
  -2   0 -19   11.42    5.13
   2   0 -20    6.39    4.00
  -2   0 -20   16.17    6.86
  -2   0 -21   13.62    4.81
   2   0 -21   26.64    6.36
  -2   0 -21   29.60    7.78
   2   0 -22    1.43    4.49
  -2   0 -22    2.77    5.02
   2   0 -23   -3.38    4.24
  -2   0 -23   15.36    7.67
  -2   1   0    5.94    3.90
   2  -1   0   12.91    4.52
  -2  -1   0   12.83    3.14
   2  -1   0   20.18    2.26
  -2   1   0   20.51    2.43
  -2  -1   0   14.87    2.50
  -2   1   1  260.66    7.13
   2  -1   1  254.74    6.48
  -2  -1   1  265.67    6.72
  -2  -1  -1  259.14    7.06
   2   1  -1  268.72    6.29
   2   1   1  269.28    7.09
   2  -1   1  264.87    7.72
   2  -1  -1  266.69    5.00
  -2   1  -1  265.60    5.45
   2   1  -1  271.29    6.35
  -2  -1  -1  257.46    5.53
  -2   1   1  262.65    4.98
  -2  -1   1  255.84    5.59
  -2   1   2  959.83   14.31
   2  -1  -2  939.71   13.93
  -2  -1   2  978.82   14.45
   2  -1   2  933.60   14.54
   2   1  -2  957.64   13.92
   2   1   2  925.98   14.18
   2  -1   2  968.48   13.81
   2   1   2 1000.32   14.85
  -2   1  -2  939.03   13.44
  -2  -1  -2  936.89   14.09
   2  -1  -2  950.16   12.84
   2   1  -2  939.80   13.69
  -2   1   2  955.44   13.05
  -2  -1   2  962.79   14.09
  -2   1   3  272.05    5.96
   2  -1  -3  291.82    6.41
  -2  -1   3  284.27    6.11
  -2   1  -3  258.39    9.17
   2   1  -3  270.66    5.37
   2   1   3  300.50    7.09
   2  -1   3  285.13    5.88
   2   1   3  348.78   18.15
  -2   1  -3  281.14    8.36
   2  -1  -3  287.59    5.26
   2   1  -3  289.04    6.90
  -2  -1   3  284.33    6.02
  -2   1   3  285.29    5.12
  -2   1   4  129.19    4.01
  -2  -1   4  122.38    3.83
   2  -1  -4  128.81    4.20
  -2   1  -4  134.91    6.08
   2  -1   4  136.89    6.35
  -2  -1  -4  109.81    5.75
   2   1  -4  121.49    3.80
   2   1   4  141.50   10.72
  -2   1  -4  133.73   13.10
   2  -1  -4  126.67    3.86
   2   1  -4  134.75    5.26
  -2  -1   4  124.31    4.16
  -2   1   4  121.23    3.15
  -2   1   5   74.21    3.36
  -2  -1   5   79.56    3.35
   2  -1  -5   76.52    3.12
  -2   1  -5   87.13    6.15
   2  -1   5   91.22    5.81
  -2  -1  -5   84.50    5.96
   2   1  -5   79.15    3.30
   2  -1   5   99.81    9.49
   2   1   5   94.94    9.34
  -2   1  -5   86.11    8.48
  -2  -1  -5   79.20    3.54
   2   1  -5   87.54    4.79
   2  -1  -5   79.22    4.10
  -2  -1   5   79.89    4.22
  -2   1   5   78.66    3.34
  -2   1   6  763.08   16.38
  -2  -1   6  739.66   15.59
   2  -1  -6  736.58   16.03
  -2   1  -6  750.30   18.82
  -2  -1  -6  763.53   19.00
   2   1  -6  751.23   15.87
   2  -1   6  728.75   16.70
   2   1   6  768.16   17.60
   2   1  -6  729.52   16.96
   2  -1  -6  736.49   16.25
  -2  -1   6  742.66   16.61
  -2   1   6  730.32   15.75
  -2   1   7  624.21   13.50
  -2  -1   7  605.21   12.67
   2  -1  -7  626.83   13.73
  -2   1  -7  621.30   16.48
  -2  -1  -7  642.62   16.75
   2   1  -7  628.92   13.23
   2  -1   7  657.46   15.93
   2   1   7  590.06   14.67
   2  -1  -7  619.10   14.30
  -2  -1   7  600.39   14.22
  -2   1   7  613.09   13.75
  -2  -1   8  520.74   12.76
  -2   1   8  531.56   13.70
   2  -1  -8  488.12   12.61
  -2   1  -8  531.33   15.88
   2   1  -8  504.13   12.39
   2   1   8  497.07   17.16
   2   1  -8  516.03   14.83
   2  -1  -8  500.77   13.79
  -2  -1   8  465.46   12.81
  -2   1   8  475.77   12.84
  -2   1   9  125.88    7.56
   2  -1  -9  116.88    3.95
  -2   1  -9  119.83    6.83
  -2  -1  -9  109.35    7.23
   2  -1   9  138.65   12.26
   2   1   9  136.11   14.97
   2   1  -9  128.33    6.12
   2  -1  -9  125.49    5.65
  -2   1   9  119.59    4.77
  -2   1  10   61.95    5.56
   2  -1 -10   66.82    3.03
  -2   1 -10   66.65    5.97
  -2  -1 -10   77.42    7.92
   2   1  10   61.20    6.80
   2   1 -10   57.71    5.15
   2  -1 -10   64.52    5.17
  -2   1  10   63.84    4.03
  -2   1  11  198.07    7.27
   2  -1 -11  176.37    5.69
  -2   1 -11  191.98   10.46
  -2  -1 -11  205.58   11.21
   2   1  11  235.33   24.16
   2   1 -11  184.98    8.48
   2  -1 -11  194.89    8.29
  -2   1 -11  206.52   11.27
   2  -1 -12  133.00    4.76
  -2   1 -12  143.02    9.07
  -2  -1 -12  182.39    9.98
   2  -1 -12  135.48    5.00
   2   1  12  150.90   16.82
   2   1 -12  145.18    8.45
   2  -1 -12  134.57    7.57
  -2   1 -12  146.39    8.68
   2  -1 -13  127.51    9.82
  -2   1 -13  135.32   13.50
  -2  -1 -13  143.49   13.55
   2  -1 -13  129.71   10.13
   2   1  13  133.57   15.96
   2   1 -13  142.46   12.98
   2  -1 -13  135.23   12.29
  -2   1 -13  138.11   14.37
   2  -1 -14   87.07    5.80
  -2   1 -14  106.02   10.07
  -2  -1 -14   94.56   10.92
   2  -1 -14   91.14    6.30
   2   1 -14   78.38    9.13
   2  -1 -14   99.50    8.60
  -2   1 -14   70.18    7.91
  -2   1 -15   89.68    8.06
  -2  -1 -15   84.61    9.02
   2  -1 -15   82.62    5.04
   2   1 -15  106.08    9.62
   2  -1 -15   74.10    6.29
  -2   1 -15   90.96    8.88
  -2  -1 -15   86.39    8.77
  -2   1 -16   86.94    8.91
  -2  -1 -16   74.82    8.98
   2   1 -16  100.59    8.02
   2  -1 -16   90.84    7.09
  -2   1 -16   81.39    8.36
  -2  -1 -16   73.40    9.35
  -2   1 -17  261.04   11.80
  -2  -1 -17  249.06   10.92
   2   1 -17  267.52   11.90
   2  -1 -17  242.71   10.82
  -2   1 -17  247.98   12.94
  -2  -1 -17  254.36   12.18
  -2   1 -18  113.12    8.69
  -2  -1 -18  112.35    7.80
   2   1 -18  106.20    8.88
   2  -1 -18  111.15    7.92
  -2   1 -18  126.34   11.95
  -2  -1 -18   90.50    9.74
  -2   1 -19   97.33    8.32
  -2  -1 -19  124.57    9.35
   2   1 -19   85.04    8.71
   2  -1 -19  105.03    7.35
  -2   1 -19   98.83   10.59
  -2  -1 -19   96.42    9.40
  -2   1 -20   39.95    8.40
  -2  -1 -20   26.38    6.59
   2   1 -20   47.07    7.41
   2  -1 -20   40.83    8.98
  -2   1 -20   52.07    8.49
  -2  -1 -20   20.30    5.73
  -2   1 -21   96.15    8.78
  -2  -1 -21   99.12    9.76
   2   1 -21  108.14   10.10
   2  -1 -21  102.37    9.99
  -2   1 -21  100.13   10.76
  -2  -1 -21  109.46   11.93
  -2  -1 -22  144.12   17.17
   2   1 -22  145.96   17.84
   2  -1 -22  149.79   18.41
  -2   1 -22  156.62   19.99
  -2  -1 -22  133.88   17.50
   2   1 -23  100.49   15.37
   2  -1 -23   80.71   12.50
  -2   1 -23  109.34   18.30
  -2  -1 -23   85.43   14.47
  -2   2   0  901.15   13.96
   2  -2   0  895.58   13.73
  -2  -2   0  911.37   14.20
   2  -2   0  935.23   12.91
  -2   2   0  909.67   12.49
   2   2   0  937.68   14.08
  -2  -2   0  909.91   13.68
  -2   2   1   58.52    3.69
  -2   2  -1   74.38    5.17
   2  -2   1   48.61    4.10
  -2  -2   1   69.80    4.28
  -2  -2  -1   60.08    4.76
   2   2   1   59.25    3.42
   2   2  -1   56.31    2.93
   2  -2   1   73.15    6.36
   2  -2  -1   82.09    4.93
  -2   2  -1   66.64    4.40
   2   2   1   64.15    4.68
  -2   2   1   59.18    2.04
  -2  -2   1   62.44    3.25
  -2   2   2   63.33    4.11
   2  -2  -2   56.20    3.56
   2  -2   2   48.94    3.91
  -2  -2   2   57.96    3.75
   2   2  -2   56.48    3.19
   2   2   2   53.75    3.46
   2  -2   2   77.57    7.51
  -2   2  -2   65.52    3.94
   2  -2  -2   58.41    2.01
   2   2   2   61.36    4.24
  -2   2   2   55.90    1.99
  -2  -2   2   52.07    4.26
  -2   2   3   52.58    3.66
   2  -2  -3   47.41    2.88
  -2   2  -3   35.54    3.44
  -2  -2   3   51.60    3.15
  -2  -2  -3   34.86    5.38
   2   2  -3   35.26    2.66
   2   2   3   56.71    4.64
   2  -2   3   56.44    5.71
  -2   2  -3   46.43    4.45
   2   2   3   50.54    3.99
  -2  -2  -3   34.32    2.99
   2  -2  -3   47.04    1.87
   2   2  -3   53.15    4.99
  -2  -2   3   50.52    4.22
  -2   2   3   44.55    1.85
  -2   2   4  341.37    6.72
   2  -2  -4  326.43    6.48
  -2   2  -4  321.62    9.50
  -2  -2   4  325.97    5.89
  -2  -2  -4  292.82    8.24
   2   2  -4  319.08    5.56
   2  -2   4  338.59    7.06
  -2   2  -4  313.07    6.29
   2   2   4  387.34   22.67
   2  -2  -4  331.62    5.28
   2   2  -4  316.82    7.63
  -2  -2   4  326.37    6.95
  -2   2   4  324.39    5.03
  -2   2   5  360.10    8.77
   2  -2  -5  335.59    8.37
  -2   2  -5  345.47   10.35
  -2  -2   5  356.37    8.32
  -2  -2  -5  332.44   10.23
   2   2  -5  335.81    7.70
  -2   2  -5  337.71    8.59
   2   2   5  351.84   10.04
   2   2  -5  353.77    9.96
   2  -2  -5  341.21    7.95
  -2  -2   5  332.14    8.85
  -2   2   5  343.34    7.67
  -2   2   6  530.46   12.03
   2  -2  -6  521.72   12.02
  -2  -2   6  521.56   11.23
  -2   2  -6  509.52   13.91
  -2  -2  -6  543.74   14.15
   2   2  -6  542.02   11.51
   2   2   6  550.06   13.68
   2   2  -6  552.10   14.09
   2  -2  -6  523.17   11.80
  -2  -2   6  506.65   12.44
  -2   2   6  535.35   11.77
  -2  -2   7 1454.07   29.57
  -2   2   7 1483.48   30.91
  -2  -2   7 1458.45   29.61
   2  -2  -7 1431.17   29.90
  -2  -2  -7 1449.52   32.13
   2   2   7 1434.91   32.24
   2   2  -7 1487.40   32.25
   2  -2  -7 1524.05   31.76
  -2  -2   7 1420.06   30.32
  -2   2   7 1492.46   30.91
  -2   2  -7 1555.44   33.70
  -2   2   8  171.65    8.89
   2  -2  -8  156.78    5.07
  -2   2  -8  141.34    7.81
  -2  -2  -8  177.04   10.38
   2   2   8  185.76   14.94
   2   2  -8  159.48    7.63
   2  -2  -8  178.42    6.68
  -2   2  -8  174.83    7.66
  -2   2   9   77.81    5.33
   2  -2  -9   79.67    3.33
  -2   2  -9   77.86    7.19
  -2  -2  -9   87.49    8.19
   2  -2  -9   66.32    4.58
   2   2   9   86.00   11.45
   2   2  -9   68.08    5.42
   2  -2  -9   76.60    4.52
  -2   2  -9   80.65    5.86
  -2   2  10   68.39    5.43
   2  -2 -10   53.21    2.70
  -2   2 -10   43.52    5.60
  -2  -2 -10   71.35    9.09
   2  -2 -10   48.94    6.08
   2   2  10   71.07    8.43
   2   2 -10   40.95    4.52
   2  -2 -10   56.03    4.94
  -2   2 -10   47.86    5.74
  -2   2  11  240.02    8.93
   2  -2 -11  239.84    7.74
  -2   2 -11  268.99   12.23
  -2  -2 -11  269.14   13.24
   2  -2 -11  225.09    8.06
   2   2  11  265.82   23.29
   2   2 -11  250.71   10.83
   2  -2 -11  263.38   10.12
  -2   2  12  101.67    6.70
   2  -2 -12  106.97    4.33
  -2   2 -12  113.62    9.00
  -2  -2 -12  102.80    8.32
   2   2  12  120.79   12.63
   2   2 -12  123.49    8.21
   2  -2 -12  113.92    7.22
  -2   2 -12  111.89    8.13
   2  -2 -13  498.64   16.04
  -2   2 -13  565.52   20.81
  -2  -2 -13  565.05   20.95
   2  -2 -13  542.44   17.50
   2   2 -13  577.57   21.06
   2  -2 -13  559.88   19.48
  -2   2 -13  556.84   20.43
   2  -2 -14  179.04    5.58
  -2   2 -14  214.64   10.08
  -2  -2 -14  224.95   12.42
   2  -2 -14  188.62    6.38
   2   2 -14  212.96   10.68
   2  -2 -14  203.27    8.96
  -2   2 -14  222.01   11.11
  -2   2 -15  183.37   10.63
  -2  -2 -15  153.85   11.48
   2  -2 -15  154.23    9.09
   2   2  15  158.38   14.73
   2   2 -15  141.33   11.96
   2  -2 -15  155.21   11.50
  -2   2 -15  184.02   12.61
  -2   2 -16   21.38    5.48
  -2  -2 -16   20.76    7.87
   2  -2 -16   22.70    3.00
   2   2 -16   38.01    7.69
   2  -2 -16   22.14    4.73
  -2   2 -16   25.04    8.53
  -2  -2 -16   34.71    8.10
  -2   2 -17   24.75    4.91
  -2  -2 -17   32.77    7.91
   2   2 -17   41.39    7.10
   2  -2 -17   31.84    5.62
  -2   2 -17    6.78    5.78
  -2  -2 -17   27.09    6.49
  -2   2 -18  122.31    9.07
  -2  -2 -18  116.56    9.69
   2   2 -18  105.72    9.80
   2  -2 -18  124.25    8.99
  -2   2 -18  120.15   10.58
  -2  -2 -18  112.55    9.62
  -2   2 -19   24.17    6.43
  -2  -2 -19   16.61    5.35
   2   2 -19   27.73    7.63
   2  -2 -19   26.24    6.60
  -2   2 -19   15.56    4.89
  -2  -2 -19   26.26    8.27
  -2   2 -20   37.59    7.73
  -2  -2 -20   39.31    9.42
   2   2 -20   49.84    7.33
   2  -2 -20   47.60    7.16
  -2   2 -20   29.03    8.07
  -2  -2 -20   44.74    9.99
  -2   2 -21    9.16    3.70
  -2  -2 -21   21.21    5.85
   2   2 -21   17.20    6.40
   2  -2 -21    8.16    5.23
  -2   2 -21   14.53    5.70
  -2  -2 -21   15.88    4.59
  -2  -2 -22   14.18    4.48
   2   2 -22   13.06    7.25
   2  -2 -22    3.37    3.86
  -2   2 -22   -4.81    4.43
  -2  -2 -22    4.78    4.67
   2   2 -23   28.54    8.84
   2  -2 -23   60.71   10.52
  -2   2 -23   83.95   14.50
  -2  -2 -23   51.86    9.30
  -2   3   0    7.94    3.45
   2  -3   0    2.62    3.10
  -2  -3   0    9.36    5.17
   2   3   0   -0.51    2.26
  -2   3   0    5.40    0.91
   2   3   0   10.50    4.54
  -2   3   0    1.50    1.37
  -2   3  -1   69.07    5.87
   2  -3  -1   71.66    4.85
   2  -3   1   58.24    3.93
  -2  -3   1   66.97    4.28
   2   3  -1   64.46    3.48
  -2   3  -1   69.30    5.08
  -2   3   1   71.04    2.10
   2   3   1   67.94    3.96
  -2  -3  -1   67.41    3.59
   2   3  -1   66.79    4.11
  -2  -3   1   61.82    3.48
  -2   3   1   65.51    1.86
  -2   3  -1   65.90    3.24
  -2   3   3  644.71   10.65
   2  -3  -3  640.73   14.67
  -2   3  -3  638.79   16.00
  -2  -3   3  660.23   14.80
  -2  -3  -3  645.85   15.57
   2   3  -3  627.56   13.73
  -2   3  -3  645.06   14.30
   2   3   3  673.13   16.35
  -2  -3   3  664.38   11.41
  -2   3  -3  662.68   15.06
  -2   3   4  228.55    6.85
   2  -3  -4  246.03    7.01
  -2   3  -4  254.17    8.20
  -2  -3   4  256.27    6.81
   2   3  -4  229.06    5.88
  -2   3  -4  232.12    6.39
   2   3   4  255.97    8.42
  -2  -3   4  222.92    7.96
  -2   3  -4  254.36    7.43
  -2  -3   5  470.77   10.75
  -2   3   5  474.84   11.33
   2  -3  -5  453.41   10.85
  -2   3  -5  512.03   13.68
  -2  -3   5  479.80   10.97
  -2  -3  -5  497.52   13.57
   2  -3  -5  454.47    9.58
  -2   3  -5  455.66   10.88
   2   3   5  525.30   26.41
   2   3  -5  501.41   13.49
   2  -3  -5  466.81    9.95
  -2  -3   5  437.59   11.82
  -2   3  -5  484.79   12.15
  -2  -3   6  279.17    6.48
  -2   3   6  286.89    8.18
   2  -3  -6  267.30    7.22
  -2   3  -6  301.86    9.52
  -2  -3   6  282.68    6.88
  -2  -3  -6  316.30   11.32
   2  -3  -6  276.58    6.46
   2   3   6  291.27   18.35
   2   3  -6  293.26    9.08
   2  -3  -6  290.17    6.87
  -2   3  -6  315.48   10.38
  -2  -3   7   58.33    3.44
  -2   3   7   67.88    3.57
   2  -3  -7   58.07    3.45
  -2   3  -7   63.23    5.67
  -2  -3   7   65.26    2.80
  -2  -3  -7   49.59    4.81
   2  -3  -7   59.90    4.82
   2   3   7   64.34    7.98
   2   3  -7   67.38    5.57
   2  -3  -7   69.13    3.31
  -2   3  -7   60.42    5.39
  -2   3   8  279.41    8.74
   2  -3  -8  256.93    7.61
  -2   3  -8  255.92    9.45
  -2  -3  -8  277.79   12.81
   2  -3  -8  260.06    7.25
   2   3   8  285.87   18.35
   2   3  -8  259.18    9.34
   2  -3  -8  271.23    8.07
  -2   3  -8  292.38   10.76
  -2   3   9   28.31    4.46
   2  -3  -9   35.41    2.43
  -2   3  -9   29.63    5.13
  -2  -3  -9   22.81    5.38
   2  -3  -9   27.29    3.32
   2   3   9   14.71    3.73
   2   3  -9   38.96    6.30
   2  -3  -9   32.96    3.06
  -2   3  -9   28.54    5.59
  -2   3  10  339.25   18.99
   2  -3 -10  290.20    9.30
  -2   3 -10  314.42   12.81
  -2  -3 -10  331.94   14.86
   2  -3 -10  304.36    9.60
   2   3  10  317.44   23.17
   2   3 -10  309.42   12.34
   2  -3 -10  297.16   10.00
  -2   3 -10  331.56   13.78
  -2   3  11   54.50    6.17
   2  -3 -11   44.02    2.59
  -2   3 -11   48.75    6.70
  -2  -3 -11   54.04    6.08
   2  -3 -11   39.25    4.70
   2   3 -11   52.11    5.96
   2  -3 -11   43.59    4.14
  -2   3 -11   30.68    5.13
  -2   3  12  128.83   15.75
   2  -3 -12  126.09   10.02
  -2   3 -12  154.75   13.42
  -2  -3 -12  143.16   13.15
   2   3 -12  127.25   11.82
   2  -3 -12  155.30   13.02
  -2   3 -12  145.99   13.46
  -2   3  13   33.57    5.20
   2  -3 -13   29.71    3.22
  -2   3 -13   25.39    5.72
  -2  -3 -13   36.91    8.77
   2   3 -13   37.39    6.64
   2  -3 -13   26.85    4.85
   2  -3 -14  226.56    6.78
  -2   3 -14  268.81   11.21
  -2  -3 -14  294.68   14.38
   2  -3 -14  263.68    8.48
   2   3  14  300.53   22.06
   2   3 -14  276.36   12.82
   2  -3 -14  241.79    9.57
  -2   3 -14  260.28   12.57
  -2   3 -15  257.93   12.29
  -2  -3 -15  250.70   14.26
   2   3  15  244.93   31.10
   2   3 -15  245.50   12.25
   2  -3 -15  228.11    9.99
  -2   3 -15  273.72   12.97
  -2   3 -16   13.49    4.88
  -2  -3 -16   29.18    8.49
   2   3  16   18.52    4.67
   2   3 -16   16.45    8.17
   2  -3 -16   11.19    3.74
  -2   3 -16    6.82    5.47
  -2   3 -17  123.62    8.29
  -2  -3 -17  123.82    9.27
   2   3 -17  148.58   11.05
   2  -3 -17  137.02    7.29
  -2   3 -17  147.41   12.23
  -2   3 -18   95.45    7.03
  -2  -3 -18  108.21    8.39
   2   3 -18  118.06   10.27
   2  -3 -18  112.41    8.11
  -2   3 -18   74.97    7.68
  -2  -3 -18  120.09    9.66
  -2   3 -19   84.81    7.57
  -2  -3 -19   56.61    7.05
   2   3 -19   61.96    9.07
   2  -3 -19   66.01    6.25
  -2   3 -19   93.39   12.30
  -2  -3 -19   67.93    7.70
  -2   3 -20   65.92    7.12
  -2  -3 -20   77.35   10.61
   2   3 -20   79.94   10.80
   2  -3 -20   66.20    8.15
  -2   3 -20   66.80    9.03
  -2  -3 -20   71.00    8.40
  -2  -3 -21   86.19   10.24
   2   3 -21   89.53    9.24
   2  -3 -21   90.56    9.47
  -2   3 -21   91.63   11.47
  -2  -3 -21   90.63    9.74
  -2  -3 -22    8.76    5.72
   2   3 -22    2.47    4.56
   2  -3 -22   12.21    5.86
  -2   3 -22   10.28    7.80
  -2  -3 -22    8.39    5.03
   2   3 -23   77.45   12.76
   2  -3 -23   88.72   13.16
  -2   3 -23   95.42   14.73
  -2  -3 -23   74.27   12.89
   2  -4   0  324.34    9.19
  -2  -4   0  352.14    9.45
   2   4   0  340.68    8.95
  -2   4   0  346.43    7.96
   2   4   0  357.73    9.90
  -2   4   0  341.92    7.81
  -2   4   1  379.88   10.26
   2  -4  -1  377.20   10.37
  -2  -4  -1  407.01   10.90
  -2  -4   1  389.98   10.32
  -2   4  -1  381.32    9.56
  -2   4   1  375.26    8.36
   2   4   1  390.90   10.97
   2   4  -1  377.22   10.32
  -2  -4   1  374.70    9.81
  -2   4   1  377.13    8.21
  -2   4  -1  392.58    9.08
  -2  -4   2  126.75    4.28
  -2   4   2  120.05    6.11
  -2   4  -2  114.66    5.55
   2  -4  -2  118.90    4.61
  -2  -4  -2  121.81    6.08
  -2  -4   2  135.06    5.36
   2   4   2  120.68    4.72
  -2   4  -2  139.72    7.15
   2   4   2  133.06    6.12
   2   4  -2  140.14    6.82
  -2   4  -2  128.89    4.36
  -2  -4   3  465.17   10.98
  -2   4   3  470.79   11.90
  -2   4  -3  488.56   13.14
  -2  -4   3  486.35   11.53
  -2   4  -3  450.80   10.29
   2   4  -3  461.17   12.28
  -2   4  -3  485.33   11.47
  -2  -4   4  102.96    5.91
  -2   4   4  111.96    4.61
   2  -4  -4  109.94    4.86
  -2   4  -4  114.85    6.38
  -2  -4   4  114.89    4.52
  -2   4  -4  118.15    8.42
   2   4   4  113.41    6.79
   2   4  -4  114.64    6.43
  -2   4  -4  121.02    5.98
  -2  -4   5  306.15    9.00
  -2   4   5  311.88    8.41
   2  -4  -5  296.53    7.89
  -2   4  -5  306.58    9.96
  -2  -4   5  315.70    7.85
  -2  -4  -5  320.28   10.32
  -2   4  -5  302.88    7.95
   2   4   5  366.26   24.99
  -2   4  -5  298.25    9.15
  -2  -4   6    4.48    1.70
  -2   4   6    3.15    2.44
   2  -4  -6    9.41    3.08
  -2  -4   6    7.85    2.40
  -2  -4  -6    5.48    5.23
   2   4   6   14.76    3.12
   2  -4  -6    4.09    1.06
   2   4  -6    4.64    5.71
   2  -4  -6    4.00    1.13
  -2   4  -6    8.17    3.60
  -2  -4   7  438.74   11.40
  -2   4   7  424.61   12.93
   2  -4  -7  420.53   11.84
  -2   4  -7  437.17   13.64
  -2  -4   7  436.55   11.30
  -2  -4  -7  420.55   15.41
   2  -4  -7  438.97   11.39
   2   4   7  440.22   17.91
   2   4  -7  416.09   13.00
   2  -4  -7  434.33   11.22
  -2   4  -7  428.34   13.83
  -2   4   8   43.11    4.20
  -2  -4   8   39.47    1.62
   2  -4  -8   36.18    2.42
  -2   4  -8   38.57    5.09
  -2  -4   8   35.96    1.88
  -2  -4  -8   34.95    7.59
   2  -4  -8   39.83    3.36
   2   4   8   51.92    5.74
   2   4  -8   41.65    4.69
   2  -4  -8   37.38    2.58
  -2   4  -8   37.26    4.61
  -2   4   9   90.28    6.39
   2  -4  -9   73.51    3.39
  -2   4  -9   72.86    5.75
  -2  -4  -9   88.31    7.28
   2   4   9   74.65    9.16
   2  -4  -9   68.20    6.93
   2   4  -9   93.48    7.91
   2  -4  -9   68.23    3.34
  -2   4  -9   86.13    6.96
  -2   4  10  219.46   11.18
   2  -4 -10  200.62    7.14
  -2   4 -10  216.78    9.39
  -2  -4 -10  231.56   12.10
   2  -4 -10  206.40    7.09
   2   4 -10  220.25   10.06
   2  -4 -10  216.70    8.01
  -2   4 -10  248.97   12.71
  -2   4  11   13.52    2.07
   2  -4 -11    9.05    1.50
  -2   4 -11   13.45    6.59
  -2  -4 -11   10.32    5.44
   2   4  11   12.15    2.76
   2  -4 -11   10.13    2.08
   2   4 -11   12.78    5.65
   2  -4 -11   10.90    3.34
  -2   4 -11    5.87    7.65
  -2   4  12  196.61   12.52
  -2   4 -12  166.55   12.85
  -2  -4 -12  179.45    9.92
   2   4  12  209.18   15.29
   2   4 -12  205.70   10.26
   2  -4 -12  172.96    7.56
  -2   4 -12  180.77   10.63
  -2   4  13  198.26   11.57
  -2   4 -13  180.22    8.59
  -2  -4 -13  233.82   12.31
   2   4  13  192.43   17.00
   2   4 -13  176.31   10.81
   2  -4 -13  181.54    7.62
  -2   4 -13  208.10   10.36
  -2   4  14   25.29    2.89
  -2   4 -14   24.87    5.33
  -2  -4 -14   40.09    6.89
   2   4 -14   36.02    7.87
   2  -4 -14   21.01    3.06
  -2   4 -14   28.86    6.28
  -2   4 -15  227.82   10.27
  -2  -4 -15  260.35   14.26
   2  -4 -15  226.80    8.29
   2   4  15  249.37   25.48
   2   4 -15  217.10   10.97
   2  -4 -15  249.19    9.80
  -2   4 -16   64.45    8.02
  -2  -4 -16   59.66   10.87
   2  -4 -16   24.31    3.55
   2   4  16   48.81    8.86
   2   4 -16   39.77    7.04
   2  -4 -16   46.56    6.51
  -2   4 -16   51.52    9.28
  -2   4 -17  195.95    9.86
  -2  -4 -17  215.29   11.91
   2  -4 -17  179.80    7.23
   2   4  17  175.95   24.89
   2   4 -17  198.18   12.19
   2  -4 -17  179.16    8.10
  -2   4 -17  165.41   10.55
  -2   4 -18   36.55    6.43
  -2  -4 -18   28.81    7.32
   2   4 -18   41.25    8.40
   2  -4 -18   34.52    5.68
  -2   4 -18   55.48    9.62
  -2   4 -19   48.20    6.44
  -2  -4 -19   48.83    9.12
   2   4 -19   39.30    9.36
   2  -4 -19   55.84    7.19
  -2   4 -19   48.50    7.74
  -2  -4 -19   45.82    7.33
  -2   4 -20  100.10    9.07
  -2  -4 -20  126.51   13.85
   2   4 -20  141.09   13.71
   2  -4 -20   96.18    9.04
  -2   4 -20   92.27   10.69
  -2  -4 -20  113.21   13.87
  -2  -4 -21   36.08    7.75
   2   4 -21   44.39    9.18
   2  -4 -21   31.55    5.62
  -2   4 -21   13.21    6.09
  -2  -4 -21   41.91    7.92
  -2  -4 -22   38.12    8.85
   2   4 -22   84.50   13.18
   2  -4 -22   49.84    8.19
  -2   4 -22   47.63   10.60
  -2  -4 -22   38.10    7.95
   2   4 -23    9.82    6.86
  -2   4 -23    2.33    5.44
  -2  -4 -23   12.21    6.47
  -2  -5   0 2725.80   55.98
  -2   5   0 2860.64   59.37
  -2  -5   0 2964.79   61.25
  -2   5   0 2857.75   57.90
   2   5   0 2931.76   60.96
  -2   5   0 2974.11   60.39
  -2  -5   1   36.11    6.28
  -2   5   1   44.40    3.56
  -2  -5  -1   44.76    4.26
  -2  -5   1   45.67    4.35
  -2   5  -1   59.94    4.39
  -2   5   1   51.24    3.73
   2   5   1   66.44    6.03
   2   5  -1   47.50    4.36
  -2   5   1   46.50    2.44
  -2   5  -1   45.32    2.69
  -2  -5   2  186.63   10.46
  -2   5  -2  213.09    8.82
  -2  -5   2  220.08    6.84
  -2   5  -2  202.32    5.39
  -2   5   2  217.92    4.67
   2   5   2  205.45    8.22
  -2   5   2  203.62    4.37
   2   5  -2  218.48    7.60
  -2   5  -2  210.32    6.45
  -2  -5   3  521.03   12.71
  -2   5   3  536.85   13.21
  -2   5  -3  545.50   14.34
  -2  -5   3  539.27   13.10
  -2   5  -3  501.79   11.34
   2   5   3  498.97   13.47
   2   5  -3  518.96   13.89
  -2   5  -3  542.05   12.79
  -2  -5   4  888.26   19.10
  -2   5   4  857.48   19.61
  -2   5  -4  869.90   20.72
  -2  -5   4  901.55   19.69
  -2  -5  -4  831.40   19.78
  -2   5  -4  848.56   18.51
   2   5  -4  893.13   20.94
  -2   5  -4  895.73   20.14
  -2  -5   5  549.78   14.84
  -2   5   5  599.90   16.55
  -2   5  -5  576.70   17.20
  -2  -5  -5  541.99   16.07
  -2  -5   5  579.90   15.23
   2   5   5  589.31   16.76
   2   5  -5  555.08   16.92
  -2   5  -5  566.20   16.09
  -2  -5   6  146.27    6.61
  -2   5   6  151.74    5.74
  -2   5  -6  164.67    8.09
  -2  -5   6  162.27    5.51
  -2  -5  -6  172.92    8.59
   2   5   6  168.96   23.06
   2  -5  -6  149.20    4.09
   2   5  -6  161.97    8.34
   2  -5  -6  144.08    4.03
  -2   5  -6  148.52    7.46
  -2   5   7  845.66   24.32
  -2  -5   7  855.55   21.39
  -2   5  -7  908.63   24.77
  -2  -5   7  885.61   22.20
  -2  -5  -7  863.56   24.69
   2  -5  -7  851.98   20.97
   2   5  -7  891.38   24.48
   2  -5  -7  859.67   21.23
  -2   5  -7  863.91   23.32
  -2   5   8  420.10   15.65
  -2  -5   8  399.65   11.69
  -2   5  -8  420.31   15.32
  -2  -5   8  409.24   12.15
  -2  -5  -8  393.19   14.45
   2  -5  -8  411.21   12.11
   2   5  -8  410.47   15.15
   2  -5  -8  393.41   11.83
  -2   5  -8  415.75   14.93
  -2   5   9  246.89   17.45
  -2  -5   9  189.06    5.74
  -2   5  -9  220.45   11.02
  -2  -5   9  205.00    6.35
  -2  -5  -9  200.25    9.82
   2   5   9  204.91   15.73
   2  -5  -9  191.91    7.42
   2   5  -9  231.50   11.02
   2  -5  -9  200.10    6.81
  -2   5  -9  196.87   10.77
  -2   5  10   62.88    5.19
  -2   5 -10   58.50    5.09
  -2  -5 -10   62.42    7.26
   2   5  10   74.47    7.43
   2  -5 -10   59.33    6.78
   2   5 -10   64.53    7.13
   2  -5 -10   60.89    3.64
  -2   5 -10   64.68    6.24
  -2   5  11  286.49   15.49
  -2   5 -11  302.84   12.83
  -2  -5 -11  311.40   14.97
   2   5  11  283.03   19.91
   2  -5 -11  256.42    8.99
   2   5 -11  289.59   13.51
   2  -5 -11  294.08   10.71
  -2   5 -11  298.54   13.50
  -2   5  12  249.59   13.03
  -2   5 -12  232.18   10.79
  -2  -5 -12  261.26   14.40
   2   5  12  266.57   30.53
   2  -5 -12  197.28   13.19
   2   5 -12  252.84   13.28
   2  -5 -12  253.99    9.58
  -2   5 -12  257.41   14.21
  -2   5  13  284.09    8.88
  -2   5 -13  304.37   11.33
  -2  -5 -13  312.23   13.83
   2   5  13  301.96   17.03
   2   5 -13  320.14   14.48
   2  -5 -13  327.15   10.98
  -2   5 -13  361.59   15.82
  -2   5  14  160.30   12.03
  -2   5 -14  175.03    9.64
  -2  -5 -14  162.44   14.93
   2   5  14  145.09   18.90
   2   5 -14  158.95   13.76
   2  -5 -14  156.67   10.20
  -2   5 -14  147.74   11.69
  -2   5 -15   65.71    8.26
  -2  -5 -15   59.43   10.21
   2   5  15   67.44    8.83
   2   5 -15   48.66    7.42
   2  -5 -15   70.50    7.37
  -2   5 -15   47.08    8.47
  -2   5 -16  223.73    9.94
  -2  -5 -16  223.75   13.17
   2  -5 -16  201.70    7.78
   2   5  16  205.70   25.69
   2   5 -16  194.72   11.64
   2  -5 -16  202.70    8.29
  -2   5 -16  225.33   11.82
  -2   5 -17   55.62    7.33
  -2  -5 -17   67.00   12.82
   2  -5 -17   63.44    8.04
   2   5  17   59.39   10.86
   2   5 -17   59.15    9.48
   2  -5 -17   85.96    7.11
  -2   5 -18  109.12    7.37
  -2  -5 -18   91.53   10.56
   2   5  18   97.58   13.08
   2   5 -18   96.63   10.58
   2  -5 -18  106.22    6.76
  -2   5 -18  106.14    9.10
  -2   5 -19   11.56    4.28
  -2  -5 -19   10.73    7.18
   2   5 -19   12.75    7.79
  -2   5 -19   13.02    5.51
  -2   5 -20   41.02    5.13
  -2  -5 -20   16.02    7.01
   2   5 -20   15.10    5.39
   2  -5 -20   48.30    5.89
  -2   5 -20   40.58    8.25
  -2  -5 -20   23.27    7.00
  -2  -5 -21    9.07    4.60
   2   5 -21   17.53    7.77
   2  -5 -21   10.49    4.45
  -2   5 -21   -6.85    5.03
  -2  -5 -21    4.33    4.34
  -2  -5 -22   50.66    9.16
   2   5 -22   43.39   11.19
  -2   5 -22   55.58   11.63
  -2  -5 -22   43.03   10.10
  -2  -5 -23    0.00    3.83
   2   5 -23    8.42    5.02
  -2   5 -23   10.49    6.14
  -2  -5 -23    4.24    4.17
  -2   6   0  380.19   10.86
  -2  -6   0  356.64   10.16
   2   6   0  359.82   11.52
  -2   6   0  382.68    9.53
   2  -6   0  363.08    8.32
  -2  -6   1   14.65    2.93
  -2   6  -1   14.14    3.49
  -2  -6   1   25.94    4.00
  -2  -6  -1   31.52    4.35
   2   6   1   38.99    4.37
   2   6  -1   12.56    4.03
  -2   6   1   17.39    1.64
  -2   6  -1   21.27    3.21
   2  -6   1   23.00    2.32
   2  -6  -1   23.14    1.68
  -2  -6   2  232.07    7.63
  -2   6   2  211.60    7.19
  -2  -6   2  252.04    7.67
   2   6   2  254.11    9.43
  -2   6   2  228.78    5.37
   2   6  -2  238.37    9.11
  -2   6  -2  247.26    7.88
   2  -6  -2  231.78    5.25
   2  -6   2  225.10    6.12
  -2  -6   3  317.56   10.32
  -2   6   3  324.75   10.14
  -2   6  -3  365.52   12.26
  -2  -6   3  353.92   10.88
  -2   6   3  353.54    8.70
   2   6   3  364.48   12.59
   2   6  -3  334.20   11.65
  -2   6  -3  368.73   11.59
   2  -6  -3  338.21    8.35
   2  -6   3  326.15    9.36
  -2  -6   4   66.99    5.09
  -2   6   4   68.65    4.20
  -2  -6  -4   67.25    7.09
  -2  -6   4   65.69    3.63
   2   6   4   75.24    5.41
   2   6  -4   77.26    6.87
  -2   6  -4   74.84    4.51
   2  -6   4   79.50    4.21
  -2  -6   5  105.13    8.89
  -2   6   5  116.30    5.54
  -2   6  -5  117.29    7.40
  -2  -6  -5  123.47    7.59
  -2  -6   5  118.43    4.67
   2   6   5  112.59    6.02
   2   6  -5  127.66    7.61
  -2   6  -5  123.25    6.75
  -2  -6   6  110.87   10.35
  -2   6   6  138.47   15.54
  -2   6  -6  137.80    7.59
  -2  -6  -6  136.39    7.83
  -2  -6   6  127.33    5.24
   2  -6  -6  124.89    3.57
   2   6  -6  138.41    7.59
  -2   6  -6  133.44    7.57
   2  -6  -6  124.82    3.50
  -2   6   7   65.45    7.03
  -2  -6   7   49.88    2.64
  -2   6  -7   58.10    5.86
  -2  -6  -7   62.74    7.48
  -2  -6   7   58.35    3.36
   2   6   7   66.25    8.13
   2  -6  -7   58.12    2.53
   2   6  -7   64.71    6.71
  -2   6  -7   52.06    5.11
   2  -6  -7   56.64    2.57
  -2   6   8  276.77   21.77
  -2  -6   8  277.63    8.63
  -2   6  -8  292.46   11.46
  -2  -6  -8  302.68   13.59
  -2  -6   8  287.84    9.10
   2   6   8  284.80   20.79
   2  -6  -8  275.19    8.37
   2   6  -8  282.68   12.21
  -2   6  -8  272.22   11.68
   2  -6  -8  281.25    8.65
  -2   6   9   38.93    4.78
  -2  -6   9   36.52    2.37
  -2   6  -9   29.56    4.32
  -2  -6   9   32.04    2.45
  -2  -6  -9   41.08    7.06
   2   6   9   45.90    4.88
   2  -6  -9   35.86    2.40
   2   6  -9   35.28    5.70
  -2   6  -9   33.60    6.51
   2  -6  -9   36.32    2.86
  -2   6  10  316.49   17.58
  -2   6 -10  312.98   12.77
  -2  -6  10  317.97   10.12
  -2  -6  10  323.29   10.36
  -2  -6 -10  344.22   14.86
   2   6  10  347.18   22.64
   2  -6 -10  298.50    9.83
   2   6 -10  338.61   14.04
  -2   6 -10  332.11   14.58
   2  -6 -10  321.55   11.02
  -2   6  11    8.86    3.15
  -2   6 -11   13.49    5.17
  -2  -6 -11   17.56    6.08
   2   6  11   21.89    6.26
   2  -6 -11   14.93    2.40
   2   6 -11   14.39    5.93
  -2   6 -11   12.55    5.65
   2  -6 -11    9.78    2.84
  -2   6  12  505.51   15.86
  -2   6 -12  528.59   16.19
  -2  -6 -12  501.84   18.62
   2   6  12  548.79   25.05
   2   6 -12  497.81   18.18
  -2   6 -12  514.49   18.51
   2  -6 -12  504.10   14.18
  -2   6  13  403.81   21.30
  -2   6 -13  399.17   15.76
  -2  -6 -13  335.17   15.04
   2   6  13  383.19   31.24
   2   6 -13  429.31   19.56
  -2   6 -13  394.34   17.11
   2  -6 -13  379.45   13.73
  -2   6  14  394.28   20.02
  -2   6 -14  441.11   15.68
  -2  -6 -14  441.29   18.13
   2   6  14  411.54   38.93
   2   6 -14  402.23   16.09
  -2   6 -14  383.42   15.18
   2  -6 -14  356.72   12.12
  -2   6  15  106.41   13.90
  -2   6 -15  124.90    7.20
  -2  -6 -15  128.29   13.70
   2   6  15  127.14    9.62
   2   6 -15  129.03    8.78
  -2   6 -15  125.29    8.66
   2  -6 -15  104.89    5.48
  -2   6 -16  288.01   10.93
  -2  -6 -16  277.24   12.83
   2  -6 -16  284.85   10.53
   2   6  16  305.15   20.79
   2   6 -16  316.26   17.10
  -2   6 -16  285.07   13.09
   2  -6 -16  287.48   10.51
  -2   6 -17   15.73    4.36
  -2  -6 -17    7.15    5.02
   2  -6 -17    1.66    2.56
   2   6  17    7.21    2.24
   2   6 -17    3.79    5.96
  -2   6 -17   11.88    7.25
   2  -6 -17    4.76    4.10
  -2   6 -18  127.84   11.07
  -2  -6 -18  129.49   13.09
   2   6  18  104.70   12.53
   2   6 -18  135.28   12.88
  -2   6 -18  130.85   13.26
   2  -6 -18  137.00   10.43
  -2   6 -19  176.85   14.53
  -2  -6 -19  186.33   17.31
   2   6  19  130.91   18.16
   2   6 -19  198.21   17.93
   2  -6 -19  173.26   14.04
  -2  -6 -20   67.54    9.25
   2   6 -20   94.19   10.26
  -2   6 -20   76.85   10.66
  -2  -6 -21   54.89    9.88
   2   6 -21   96.46   15.28
  -2   6 -21   92.55   14.22
  -2  -6 -21  109.02   16.51
  -2  -6 -22   16.39    5.50
   2   6 -22   36.71    9.40
  -2   6 -22   24.85    7.89
  -2  -6 -22   21.21    7.41
  -2   7   0  459.35   14.32
  -2  -7   0  417.66   13.44
   2   7   0  458.43   14.87
  -2   7   0  438.05   12.18
   2  -7   0  446.17   11.83
  -2   7   1  115.13    5.62
  -2   7  -1  124.45    6.36
  -2  -7   1  132.47    6.69
  -2  -7  -1  115.36    5.69
   2   7   1  116.29    7.86
   2   7  -1   99.36    6.69
  -2   7   1  126.14    4.38
  -2   7  -1  113.30    5.73
   2  -7  -1  127.69    4.44
   2  -7   1  111.79    4.37
  -2   7   2   66.60    4.26
  -2   7  -2   69.45    4.79
  -2  -7  -2   71.44    5.99
  -2  -7   2   69.56    5.05
   2   7   2   81.40    6.62
  -2   7   2   74.16    3.14
   2   7  -2   75.28    6.27
  -2   7  -2   71.21    4.28
   2  -7   2   61.76    3.52
  -2   7   3   56.11    4.97
  -2   7  -3   61.99    5.76
  -2  -7  -3   42.16    4.98
  -2  -7   3   52.01    4.23
  -2   7   3   49.30    2.36
   2   7   3   40.94    4.39
   2   7  -3   43.64    5.93
  -2   7  -3   43.90    4.02
   2  -7  -3   48.05    2.19
   2  -7   3   45.05    2.93
  -2  -7   4  792.15   20.46
  -2   7   4  833.73   22.31
  -2   7  -4  845.37   22.87
  -2  -7  -4  840.13   23.08
  -2  -7   4  853.38   22.26
  -2   7   4  865.20   21.17
   2   7  -4  865.41   24.00
  -2   7  -4  882.19   23.68
   2  -7  -4  838.64   20.51
  -2  -7   5 1014.75   29.22
  -2   7   5 1069.15   31.58
  -2   7  -5 1113.14   33.40
  -2  -7  -5 1101.62   33.89
  -2  -7   5 1059.51   30.92
  -2   7   5 1054.47   29.55
   2   7  -5 1098.27   33.21
   2  -7  -5 1058.28   29.68
  -2   7  -5 1074.23   31.80
  -2  -7   6  271.32    9.09
  -2   7   6  272.77   26.99
  -2   7  -6  295.14   12.25
  -2  -7  -6  238.56   11.88
  -2  -7   6  285.35    9.77
  -2   7   6  283.68    8.35
   2   7   6  289.19   11.34
   2   7  -6  303.56   13.09
  -2   7  -6  292.06   12.63
  -2   7   7   44.52    6.02
  -2  -7   7   35.24    2.51
  -2   7  -7   27.79    4.18
  -2  -7  -7   21.50    4.01
  -2  -7   7   43.55    3.75
   2   7   7   59.62    8.75
   2  -7  -7   36.91    2.18
   2   7  -7   33.77    6.08
  -2   7  -7   39.48    5.63
   2  -7  -7   32.23    1.99
  -2   7   8  153.79   14.47
  -2  -7   8  145.31    5.64
  -2   7  -8  142.20    8.65
  -2  -7  -8  146.71    9.66
  -2  -7   8  139.37    5.82
   2   7   8  158.95   13.59
   2  -7  -8  131.53    4.78
   2   7  -8  163.15    9.07
  -2   7  -8  136.54    8.32
   2  -7  -8  143.31    5.29
  -2   7   9  241.05   21.94
  -2  -7   9  207.69    7.43
  -2   7  -9  210.83   10.09
  -2  -7  -9  193.67   11.54
  -2  -7   9  212.01    7.70
   2   7   9  231.54   18.90
   2  -7  -9  198.94    6.90
   2   7  -9  223.85   11.01
  -2   7  -9  229.33   12.07
  -2   7  10   49.78    9.09
  -2  -7  10   35.74    3.54
  -2   7 -10   43.55    5.87
  -2  -7 -10   31.37    7.61
  -2  -7  10   38.20    3.76
   2   7  10   52.99    9.59
   2  -7 -10   32.95    3.23
   2   7 -10   47.26    7.47
  -2   7 -10   44.36    7.44
   2  -7 -10   43.52    4.57
  -2   7  11  346.64   13.07
  -2   7 -11  349.45   12.48
  -2  -7  11  321.85    8.60
  -2  -7 -11  325.14   14.66
  -2  -7  11  354.33    9.47
   2   7  11  367.83   26.14
   2  -7 -11  290.88    8.40
   2   7 -11  310.06   13.98
  -2   7 -11  312.70   13.42
   2  -7 -11  337.14    9.85
  -2   7  12  193.56   17.57
  -2   7 -12  184.62    9.76
  -2  -7  12  184.36    6.20
  -2  -7 -12  188.75   13.65
   2   7  12  186.56   20.21
   2  -7 -12  144.40    8.61
   2   7 -12  155.75   11.61
  -2   7 -12  195.67   14.02
   2  -7 -12  179.16    7.98
  -2   7  13  115.41   10.82
  -2   7 -13  127.15    7.89
  -2  -7 -13  125.82   11.33
   2   7  13  108.97   15.62
   2   7 -13  119.55    9.77
  -2   7 -13   93.30    9.30
   2  -7 -13  106.69    5.53
  -2   7  14  322.43   15.25
  -2   7 -14  296.07   11.64
  -2  -7 -14  297.04   12.84
   2   7  14  300.17   21.77
   2   7 -14  305.68   13.78
  -2   7 -14  301.78   13.92
   2  -7 -14  293.98    9.16
  -2   7  15   18.24    3.36
  -2   7 -15   19.63    4.57
  -2  -7 -15   19.91    8.48
   2   7  15   19.80    4.19
   2   7 -15   39.06    8.36
  -2   7 -15    8.49    5.61
   2  -7 -15   24.71    4.90
  -2   7  16   97.66    5.86
  -2   7 -16   95.31    6.80
  -2  -7 -16  112.56   11.08
   2   7  16   71.75    8.60
   2   7 -16   98.99    9.54
  -2   7 -16   93.81    9.18
   2  -7 -16   85.26    5.59
  -2   7 -17   18.20    4.23
  -2  -7 -17   16.20    5.81
   2  -7 -17    7.99    3.12
   2   7  17    9.60    3.67
   2   7 -17   49.71    8.58
  -2   7 -17   21.99    7.00
   2  -7 -17   22.60    4.87
  -2   7 -18  164.68   12.36
  -2  -7 -18  179.60   15.12
   2  -7 -18  160.92   11.93
   2   7  18  142.12   15.40
   2   7 -18  139.60   13.20
  -2   7 -18  187.26   16.16
  -2   7 -19   73.87    7.18
  -2  -7 -19   96.38   11.63
   2   7  19   85.10   11.74
   2   7 -19   61.23    9.39
  -2   7 -19   65.05    9.63
  -2  -7 -20  165.69   20.62
   2   7  20  113.81   19.59
   2   7 -20  164.29   20.72
  -2   7 -20  139.03   19.80
  -2  -7 -21   75.98   13.02
   2   7 -21   65.17   11.89
  -2  -7 -21   73.15   11.65
  -2  -7 -22   19.29    7.21
   2   7 -22   44.13   10.19
  -2   7 -22   27.50    8.44
  -2  -7 -22   17.30    6.72
  -2   8   0   92.55    7.30
  -2  -8   0   83.69    5.42
   2   8   0   94.54    6.44
  -2   8   0   97.73    4.83
   2  -8   0   88.85    4.16
  -2   8   1  421.67   14.42
  -2   8  -1  441.15   15.69
  -2  -8   1  415.61   14.28
  -2  -8  -1  418.50   14.29
   2   8   1  434.55   15.54
   2   8  -1  423.40   15.04
  -2   8   1  404.27   12.43
  -2   8  -1  438.00   13.97
   2  -8  -1  412.94   12.48
   2  -8   1  407.46   12.64
  -2   8  -2  230.60    9.91
  -2  -8  -2  214.76    9.47
  -2  -8   2  206.18    8.77
  -2   8   2  219.65    7.46
   2   8  -2  236.66   10.67
  -2   8  -2  213.61    8.11
   2  -8  -2  210.43    6.93
   2  -8   2  210.86    7.59
  -2   8   3  211.82    9.43
  -2   8  -3  221.23    9.20
  -2  -8  -3  253.15   11.39
  -2  -8   3  215.81    8.94
  -2   8   3  236.59    7.50
   2   8  -3  213.43   10.08
  -2   8  -3  209.31    9.60
   2  -8  -3  216.59    6.90
   2  -8   3  203.98    7.16
  -2   8   4  152.52    7.90
  -2   8  -4  161.68    7.34
  -2  -8   4  167.78    7.14
  -2   8   4  167.17    5.45
   2   8   4  158.43    8.31
   2   8  -4  169.16    9.42
  -2   8  -4  174.50    9.26
   2  -8  -4  154.66    5.32
  -2   8   5   14.08    2.92
  -2   8  -5   16.79    3.85
  -2  -8  -5   17.25    5.41
  -2  -8   5    7.47    3.99
  -2   8   5   14.74    1.47
   2   8   5   16.83    5.92
   2   8  -5   21.98    4.95
   2  -8  -5    9.59    2.02
  -2   8  -5   12.00    4.18
  -2   8   6   35.71    4.76
  -2  -8   6   39.42    3.05
  -2   8  -6   32.88    3.94
  -2  -8  -6   39.59    4.96
  -2  -8   6   41.03    3.62
  -2   8   6   44.82    3.33
   2   8   6   40.25    4.70
   2   8  -6   31.49    5.40
   2  -8  -6   31.47    2.30
  -2   8  -6   50.22    6.50
  -2   8   7  139.76   13.01
  -2  -8   7  116.14    5.01
  -2   8  -7  119.01    7.72
  -2  -8  -7  126.95    9.30
  -2  -8   7  133.44    6.21
  -2   8   7  138.85    9.27
   2   8   7  127.76    8.75
   2   8  -7  147.88   11.29
   2  -8  -7  125.77    4.70
  -2   8  -7  150.46   10.81
  -2   8   8   61.91    7.78
  -2  -8   8   61.31    5.52
  -2   8  -8   73.17    7.93
  -2  -8  -8   60.51    8.65
  -2  -8   8   74.34    7.04
  -2   8   8   64.66    6.86
   2   8   8   75.62   12.14
   2  -8  -8   61.11    5.17
   2   8  -8   61.83    7.90
  -2   8  -8   73.22    9.71
  -2   8   9   24.30    4.25
  -2  -8   9   15.36    2.42
  -2   8  -9   14.69    4.44
  -2  -8  -9   32.48    8.72
  -2  -8   9   15.57    2.71
   2   8   9   19.27    4.32
   2  -8  -9   11.19    1.55
   2   8  -9   18.09    5.36
  -2   8  -9   13.12    7.39
   2  -8  -9   22.79    2.98
  -2   8  10  507.43   19.64
  -2  -8  10  491.22   12.87
  -2   8 -10  554.85   17.22
  -2  -8 -10  506.38   17.52
  -2  -8  10  575.24   15.15
   2   8  10  536.92   27.03
   2  -8 -10  488.83   12.77
   2   8 -10  570.79   20.15
  -2   8 -10  568.56   18.00
   2  -8 -10  520.25   13.80
  -2   8  11   80.86    7.34
  -2   8 -11   95.50    8.15
  -2  -8 -11   60.93    8.24
  -2  -8  11   80.68    5.40
   2   8  11   87.86   13.01
   2  -8 -11   73.88    4.85
   2   8 -11   67.69    8.24
  -2   8 -11   76.92    7.48
   2  -8 -11   80.57    5.76
  -2   8  12   73.13    9.32
  -2   8 -12   91.69    6.73
  -2  -8 -12   76.68    9.93
  -2  -8  12   65.25    5.77
   2   8  12   74.97   11.71
   2   8 -12   49.57    8.07
  -2   8 -12   75.21   11.31
  -2   8  13   19.60    3.25
  -2   8 -13   15.40    3.41
  -2  -8 -13   18.46    8.00
   2   8  13   31.13    6.43
   2   8 -13   29.32    6.42
  -2   8 -13   17.19    5.39
   2  -8 -13   15.55    2.82
  -2   8  14   30.06    5.52
  -2   8 -14   51.83    8.12
  -2  -8 -14   19.65    6.19
   2   8  14   30.19    5.46
   2   8 -14   32.78    6.78
  -2   8 -14   44.68    8.98
   2  -8 -14   37.46    4.93
  -2   8  15  127.05   15.70
  -2   8 -15  144.85    7.71
  -2  -8 -15  170.64   13.30
   2   8  15  142.75   16.09
   2   8 -15  168.60   11.87
  -2   8 -15  162.24   10.16
   2  -8 -15  140.17    6.41
  -2   8  16   54.96    8.52
  -2   8 -16   60.73    6.10
  -2  -8 -16   55.88    9.36
   2   8  16   68.06    8.13
   2   8 -16   79.54   11.02
  -2   8 -16   96.64   11.97
   2  -8 -16   58.13    4.19
  -2   8 -17   76.45    7.26
  -2  -8 -17   86.52    9.33
   2  -8 -17  111.34   10.31
   2   8  17   68.69   11.95
   2   8 -17  101.40   11.59
  -2   8 -17   94.76   11.31
  -2   8 -18   44.92    5.54
  -2  -8 -18   36.53    9.23
   2  -8 -18   43.34    5.86
   2   8  18   22.52    6.33
   2   8 -18   36.25    9.79
  -2   8 -18   31.32    8.68
  -2   8 -19   12.57    2.95
  -2  -8 -19   21.60    7.27
   2   8  19   20.75    4.68
   2   8 -19   26.33    8.34
  -2   8 -19    4.42    5.37
  -2  -8 -20   17.41    6.50
   2   8  20    6.17    3.17
   2   8 -20   35.36    8.86
  -2   8 -20   17.78    8.64
  -2  -8 -21   92.74   15.73
   2   8  21   54.15   13.08
   2   8 -21   67.89   11.49
  -2   8 -21   65.26   11.46
  -2   9   0   15.01    5.06
  -2  -9   0    3.66    3.83
  -2   9   0   10.45    3.58
   2  -9   0    4.36    1.25
  -2   9   1  370.91   13.75
  -2   9  -1  365.65   13.28
  -2  -9  -1  393.84   13.71
  -2  -9   1  339.72   12.25
   2   9  -1  390.91   14.53
  -2   9   1  367.49   11.78
  -2   9  -1  386.34   12.85
   2  -9  -1  358.56   11.32
   2  -9   1  365.97   11.70
  -2   9  -2   93.33    5.40
  -2  -9  -2  105.03    6.96
  -2  -9   2   93.05    5.90
   2   9   2   87.22    6.00
  -2   9   2  100.80    4.57
   2   9  -2   91.79    6.26
  -2   9  -2  106.70    6.29
   2  -9  -2   94.54    4.51
   2  -9   2   92.56    4.40
  -2   9   3  108.87    6.47
  -2   9  -3  128.29    7.75
  -2  -9  -3   91.09    7.10
   2   9   3  103.64    6.69
  -2   9   3  112.19    4.68
   2   9  -3  118.48    9.22
  -2   9  -3   98.73    7.01
   2  -9  -3  104.65    4.42
  -2   9   4  217.49   25.11
  -2   9  -4  224.49    9.66
  -2   9   4  220.99    7.52
   2   9   4  233.15   11.24
   2   9  -4  241.57   11.79
  -2   9  -4  224.32   10.97
   2  -9  -4  212.96    7.42
  -2   9   5  157.14   18.66
  -2   9  -5  135.37    7.35
  -2  -9  -5  136.73   11.23
  -2   9   5  150.59    9.86
   2   9  -5  113.80    7.03
  -2   9  -5  129.12    8.85
   2  -9  -5  120.99    4.74
  -2   9   6  281.65   24.11
  -2   9  -6  303.71   13.21
  -2  -9  -6  273.99   12.41
  -2   9   6  292.55   10.26
   2   9   6  268.35   11.61
   2   9  -6  255.78   11.53
   2  -9  -6  278.27    9.53
  -2   9  -6  295.02   13.66
  -2   9   7   12.08    3.37
  -2   9  -7   12.54    4.83
  -2  -9  -7    7.18    9.13
  -2   9   7    9.32    1.75
   2   9   7   11.54    4.31
   2   9  -7   13.39    5.20
   2  -9  -7    6.84    1.95
  -2   9  -7   15.15    7.05
  -2   9   8  227.86   20.99
  -2   9  -8  202.23    9.29
  -2  -9  -8  217.38   12.18
  -2   9   8  211.02   10.02
   2   9   8  243.35   19.00
   2  -9  -8  197.56    6.04
   2   9  -8  224.50   10.41
  -2   9  -8  205.95   10.44
  -2   9   9    6.05    1.93
  -2  -9   9    7.78    2.03
  -2   9  -9    7.56    4.92
  -2  -9  -9    5.59    6.19
  -2  -9   9    8.16    3.59
  -2   9   9    5.53    1.29
   2   9   9    7.95    3.14
   2  -9  -9    9.73    2.26
   2   9  -9   15.24    5.91
  -2   9  -9   12.01    7.32
  -2   9  10  303.69   24.80
  -2   9 -10  289.33   12.84
  -2  -9  10  241.52    8.99
  -2  -9 -10  321.81   17.00
  -2  -9  10  299.27   10.88
   2   9  10  295.18   21.67
   2   9 -10  289.19   13.64
  -2   9 -10  265.10   14.13
   2  -9 -10  276.06    9.96
  -2   9  11  296.94   13.27
  -2   9 -11  305.43   11.53
  -2  -9 -11  280.45   12.90
  -2  -9  11  304.07    9.52
   2   9  11  318.79   33.27
   2   9 -11  306.44   15.05
  -2   9 -11  339.12   15.01
   2  -9 -11  315.77   10.00
  -2   9  12   21.82    4.27
  -2   9 -12   13.58    4.27
  -2  -9 -12   18.62    9.03
  -2  -9  12   11.48    2.14
   2   9  12   18.82    4.56
   2   9 -12   22.65    6.37
  -2   9 -12   22.21    7.05
   2  -9 -12    8.82    2.84
  -2   9  13  227.99   21.43
  -2   9 -13  254.66   10.00
  -2  -9 -13  233.82   11.66
   2   9  13  256.74   23.01
   2   9 -13  230.26   11.67
  -2   9 -13  230.78   11.15
   2  -9 -13  214.60    7.24
  -2   9  14   94.49   11.50
  -2   9 -14   90.33    6.08
  -2  -9 -14  128.48   12.54
   2   9  14  114.39   16.83
   2   9 -14  116.01   11.01
  -2   9 -14  120.98   10.61
   2  -9 -14  122.38    5.62
  -2   9  15   59.17   10.40
  -2   9 -15   64.46    8.53
  -2  -9 -15   32.41    7.53
   2   9  15   60.59   11.53
   2   9 -15   60.87    9.98
  -2   9 -15   75.95    9.93
  -2   9  16   57.99   11.53
  -2   9 -16   82.66    7.78
  -2  -9 -16   64.66   11.90
   2   9  16   69.44   11.65
   2   9 -16   48.23    9.16
  -2   9 -16   78.89   10.95
  -2   9 -17    4.42    4.00
  -2  -9 -17   -3.54    5.37
   2   9  17   13.05    4.54
   2   9 -17    9.77    5.94
  -2   9 -17   10.75    5.58
  -2   9 -18   23.99    3.81
  -2  -9 -18   17.45    4.31
   2  -9 -18   16.76    3.99
   2   9  18   15.17    3.86
   2   9 -18   13.93    5.89
  -2   9 -18   13.40    7.50
  -2  -9 -19   40.83    8.54
   2   9  19   39.62    9.26
   2   9 -19   54.97   10.78
  -2   9 -19   45.43    9.67
  -2  -9 -20    1.49    5.16
   2   9  20    2.05    2.56
   2   9 -20   10.45    6.17
  -2   9 -20   15.54    6.21
  -2  -9 -21   33.86    8.07
   2   9  21   27.06    6.06
   2   9 -21   50.93   10.72
  -2   9 -21   34.25    7.05
  -2  10   0  131.77    7.88
  -2 -10   0  139.24    8.65
   2  10   0  154.48    8.18
  -2  10   0  129.35    6.77
   2 -10   0  119.23    5.40
  -2  10   1   36.77    4.14
  -2  10  -1   29.81    4.57
  -2 -10  -1   38.10    5.17
   2  10   1   25.75    4.29
   2  10  -1   34.79    5.44
  -2  10   1   32.22    3.26
  -2  10  -1   30.50    3.38
   2 -10  -1   29.16    2.74
  -2  10   2   54.89    7.15
  -2  10  -2   49.45    5.99
  -2 -10  -2   45.18    7.14
   2  10   2   68.82    8.67
  -2  10   2   49.88    4.74
  -2  10  -2   45.46    5.61
   2 -10  -2   47.47    4.84
   2  10  -3  538.25   18.46
  -2  10   3  528.15   22.14
  -2  10  -3  584.19   20.84
  -2 -10  -3  577.98   21.58
   2  10   3  564.08   20.92
  -2  10   3  584.84   18.80
   2  10  -3  556.73   20.45
  -2  10  -3  502.33   17.72
   2 -10  -3  542.30   17.56
   2  10  -4   42.85    5.19
  -2  10   4   52.47    7.66
  -2  10  -4   40.83    6.33
  -2 -10  -4   44.61    6.64
  -2  10   4   49.57    4.64
   2  10   4   27.63    5.26
   2  10  -4   29.61    5.45
  -2  10  -4   48.19    6.96
   2 -10  -4   40.19    4.28
   2  10  -5   97.65    8.60
  -2  10   5  133.17   18.14
  -2  10  -5   97.12    9.41
  -2 -10  -5  101.87   10.94
  -2  10   5  106.67    8.61
   2  10   5  119.70   12.13
   2  10  -5  102.13    9.99
  -2  10  -5   88.34    9.50
   2 -10  -5   96.00    8.01
   2  10  -6  166.76    6.70
  -2  10   6  193.80   18.06
  -2  10  -6  153.46   10.43
  -2 -10  -6  169.63   10.06
  -2  10   6  168.40    8.92
   2  10   6  179.81    9.46
   2  10  -6  177.09   10.89
  -2  10  -6  175.36    9.96
   2 -10  -6  150.24    8.90
   2  10  -7  104.08    8.07
  -2  10   7  102.80   12.07
  -2  10  -7   87.71    8.02
  -2 -10  -7   75.79    8.10
  -2  10   7   85.84    8.42
   2  10   7   73.88    7.05
   2  10  -7   56.10    6.50
   2 -10  -7   82.26    5.98
  -2  10  -7  101.98   10.55
   2  10  -8  246.81    9.78
  -2  10   8  278.10   22.95
  -2  10  -8  274.09   13.46
  -2 -10  -8  254.84   13.11
  -2  10   8  231.19   10.76
   2  10   8  245.45   11.89
   2  10  -8  237.13   11.60
   2 -10  -8  218.79    8.13
  -2  10  -8  248.57   13.18
  -2  10   9  364.66   18.04
  -2  10  -9  375.24   15.41
  -2 -10  -9  379.30   16.50
  -2  10   9  377.10   15.63
   2  10   9  378.18   24.40
   2  10  -9  359.43   16.02
  -2  10  -9  381.16   16.78
  -2  10  10   76.07    7.16
  -2  10 -10   66.58    8.25
  -2 -10 -10   71.00    9.72
  -2 -10  10   69.18    6.76
  -2  10  10   72.48    8.37
   2  10  10   60.64    8.29
   2  10 -10   73.97    9.99
  -2  10 -10   78.05    8.48
  -2  10  11  358.33   14.81
  -2  10 -11  375.93   12.68
  -2 -10 -11  344.29   13.95
  -2 -10  11  371.57   10.55
   2  10  11  398.09   14.07
   2  10 -11  349.42   14.09
  -2  10 -11  357.44   14.32
  -2  10  12   72.80    5.32
  -2  10 -12   57.44    8.70
  -2 -10  12   69.62    3.57
   2  10  12   78.30    9.74
   2  10 -12   45.85    9.03
  -2  10 -12   86.65    8.59
   2 -10 -12   66.22    4.43
  -2  10  13   60.07   11.40
  -2  10 -13   72.81    5.70
  -2 -10 -13   81.82   11.01
   2  10  13   70.47    7.59
   2  10 -13   48.93    9.41
  -2  10 -13   58.77   10.34
  -2  10  14   48.01    7.56
  -2  10 -14   42.38    6.44
  -2 -10 -14   32.00    7.01
   2  10  14   56.54    9.90
   2  10 -14   54.44    9.08
  -2  10 -14   41.09    7.42
  -2  10  15   94.19   13.13
  -2  10 -15   99.06    8.62
  -2 -10 -15  117.32   13.63
   2  10  15   92.24   12.32
   2  10 -15  102.59   11.18
  -2  10 -15   97.67   11.66
  -2  10  16   23.37    6.40
  -2  10 -16   33.26    6.61
  -2 -10 -16   45.80    7.71
   2  10  16   27.46    6.18
   2  10 -16   24.89    6.28
  -2  10 -16   25.12    8.32
  -2  10  17   12.24    3.41
  -2  10 -17   36.86    5.32
  -2 -10 -17   21.57    5.80
   2  10  17   19.96    3.55
   2  10 -17   27.26    9.04
  -2  10 -17   20.61    8.26
  -2  10 -18   23.44    5.73
  -2 -10 -18   30.26    8.33
   2 -10 -18   14.64    5.16
   2  10  18   33.35    7.36
   2  10 -18   32.74    7.48
  -2  10 -18   46.39   10.34
  -2 -10 -19   15.58    6.44
   2  10 -19   19.55    6.97
  -2  10 -19   17.72    6.90
  -2 -10 -20   20.63    7.88
   2  10  20   11.38    4.08
   2  10 -20   19.30    6.33
  -2  10 -20   31.77    8.67
  -2  11   0   13.49    5.63
   2  11   0   19.40    6.16
  -2  11   0   11.39    4.44
   2  11  -1  207.02    8.33
  -2  11   1  192.07    8.34
  -2  11  -1  212.31    9.37
  -2 -11  -1  207.56    9.02
   2  11   1  217.30    9.95
   2  11  -1  214.11    9.56
  -2  11   1  197.53    7.55
  -2  11  -1  190.05    7.77
   2 -11  -1  175.01    6.27
   2  11  -2   44.58    4.70
  -2  11   2   48.26    6.47
  -2  11  -2   51.17    6.57
  -2 -11  -2   53.64    7.88
   2  11   2   41.70    6.82
  -2  11   2   55.55    4.81
   2  11  -2   52.57    6.11
  -2  11  -2   51.85    6.04
   2 -11  -2   35.92    3.78
   2  11  -3  108.76    8.63
  -2  11  -3  106.08   10.05
  -2 -11  -3   95.26    9.45
   2  11   3   96.81   10.04
  -2  11   3   89.83    6.67
  -2  11  -3   89.16    7.62
   2 -11  -3   86.87    6.57
   2  11  -4   16.46    3.36
  -2  11   4   10.34    3.35
  -2  11  -4    5.23    4.23
  -2 -11  -4   11.17    5.17
   2  11   4    4.84    4.68
  -2  11   4    8.55    2.59
  -2  11  -4   20.19    6.69
   2 -11  -4    6.29    2.90
   2  11  -5  230.62   15.55
  -2  11   5  216.17   17.93
  -2  11  -5  199.56    8.62
  -2  11   5  213.07    6.82
   2  11   5  206.15   10.05
   2  11  -5  217.12   10.78
  -2  11  -5  221.35   11.19
   2  11  -6  132.67   11.92
  -2  11   6  155.47   16.89
  -2  11  -6  135.11   10.98
  -2 -11  -6  126.15    9.85
  -2  11   6  147.25   12.60
   2  11   6  136.13   10.13
   2  11  -6  138.40   10.34
  -2  11  -6  141.96   10.63
   2 -11  -6  109.29    7.01
   2  11  -7   61.25    9.65
  -2  11   7   80.43   11.71
  -2  11  -7   61.39    6.13
  -2 -11  -7   72.35   10.04
  -2  11   7   67.83    7.25
   2  11   7   70.12    7.40
   2  11  -7   77.40    7.98
  -2  11  -7   46.23    5.69
   2  11  -8   65.27   11.43
  -2  11   8   69.05    8.94
  -2  11  -8   64.06    8.14
  -2 -11  -8   60.66   10.04
  -2  11   8   56.20    6.15
   2  11   8   63.09    8.82
   2  11  -8   76.74    8.65
  -2  11  -8   49.90    7.32
   2  11  -9   20.26    3.18
  -2  11   9   32.89    6.15
  -2  11  -9   26.14    4.72
  -2 -11  -9   20.40    5.17
  -2  11   9   29.38    3.51
   2  11   9   34.51    5.23
   2  11  -9   34.98    8.65
  -2  11  -9   44.79    7.38
  -2  11  10   26.17    4.05
  -2  11 -10   16.28    4.69
  -2 -11 -10   12.87    5.99
  -2  11  10   20.57    2.98
   2  11  10   36.69    5.63
   2  11 -10   25.44    7.79
  -2  11 -10   29.22    7.22
  -2  11  11  127.56   12.59
  -2  11 -11  118.21    6.71
  -2 -11 -11  109.62    9.06
   2  11  11  133.94   13.79
   2  11 -11  124.60   10.70
  -2  11 -11  131.46   10.48
  -2  11  12   33.60    8.84
  -2  11 -12   26.74    4.78
  -2 -11 -12   36.90    7.60
   2  11  12   34.48    5.97
   2  11 -12   56.37   10.82
  -2  11 -12   22.97    6.21
  -2  11  13   30.29    8.16
  -2  11 -13   37.48    7.94
  -2 -11 -13   31.93    9.45
   2  11  13   59.36    9.05
   2  11 -13   22.09    6.84
  -2  11 -13   26.64    7.63
  -2  11  14   35.36    7.07
  -2  11 -14   50.16    5.77
  -2 -11 -14   50.64    8.19
   2  11  14   50.77    8.79
   2  11 -14   47.91    9.89
  -2  11 -14   48.32    8.81
  -2  11  15   74.24   14.46
  -2  11 -15   87.33    8.28
  -2 -11 -15   87.06   12.80
   2  11  15  100.59   13.02
   2  11 -15   65.61    9.56
  -2  11 -15  104.55   12.14
  -2  11  16    7.05    2.98
  -2  11 -16    4.68    2.48
  -2 -11 -16   12.55    5.64
   2  11  16    8.51    3.41
   2  11 -16    1.31    5.66
  -2  11 -16    4.21    6.21
  -2  11  17  143.28   16.45
  -2  11 -17  139.01   15.98
  -2 -11 -17  175.31   21.69
   2  11  17  100.69   17.53
   2  11 -17  148.23   19.38
  -2  11 -17  128.58   16.53
  -2 -11 -18   34.55    8.66
   2 -11 -18   21.73    7.39
   2  11  18   37.72    6.77
   2  11 -18   21.00    9.36
  -2  11 -18   18.40    9.01
  -2 -11 -19  139.14   20.91
   2  11  19   97.32   19.88
   2  11 -19  158.79   20.62
  -2  11 -19  177.77   23.39
  -2  12   0  173.96    9.85
   2  12   0  171.52   10.63
  -2  12   0  165.09   14.25
   2  12  -1  108.86    8.49
  -2  12   1   85.83   13.12
  -2  12  -1  107.05    9.50
  -2 -12  -1  107.32    8.94
   2  12   1  113.08    9.76
   2  12  -1   95.21    7.93
  -2  12   1  106.27    7.52
  -2  12  -1  108.13    7.91
   2  12  -2  849.06   29.28
  -2  12   2  869.92   30.26
  -2  12  -2  859.55   29.96
  -2 -12  -2  811.41   28.94
   2  12   2  861.23   30.34
  -2  12   2  858.02   28.46
   2  12  -2  876.02   31.41
  -2  12  -2  885.35   30.24
   2  12  -3  291.52   23.27
  -2  12   3  239.96   23.58
  -2  12  -3  226.17   10.87
  -2 -12  -3  225.68   11.53
   2  12   3  237.09   11.64
  -2  12   3  241.06    9.42
   2  12  -3  246.31   12.02
  -2  12  -3  249.78   11.65
   2  12  -4  401.64   18.80
  -2  12   4  435.50   20.64
  -2  12  -4  392.82   15.58
  -2 -12  -4  409.05   18.01
   2  12   4  439.64   17.39
  -2  12   4  425.36   14.78
   2  12  -4  426.59   17.02
  -2  12  -4  390.78   16.12
   2  12  -5  137.67    8.27
  -2  12   5  126.02   15.97
  -2  12  -5  124.37    7.38
  -2 -12  -5  125.16    9.24
  -2  12   5  128.96    5.14
   2  12   5  118.96    8.46
  -2  12  -5  138.93    8.94
   2  12  -6   31.69    5.88
  -2  12   6   34.73    5.94
  -2  12  -6   31.47    5.31
  -2 -12  -6   34.04    6.42
  -2  12   6   21.63    2.98
   2  12   6   14.67    4.53
  -2  12  -6   27.50    6.57
   2  12  -7  111.02    7.18
  -2  12   7  103.95   11.29
  -2  12  -7   92.37    9.53
  -2 -12  -7   83.48   10.62
  -2  12   7   76.73    9.33
   2  12   7   91.33   10.33
   2  12  -7  108.95    7.86
  -2  12  -7   83.53    9.46
   2  12  -8   80.64   12.95
  -2  12   8   94.18   17.99
  -2  12  -8   93.48   10.38
  -2 -12  -8   78.34   10.87
  -2  12   8   75.54    8.97
   2  12   8   74.32    8.03
   2  12  -8  108.70    9.52
  -2  12  -8   70.29    9.46
   2  12  -9   70.35   12.68
  -2  12   9   84.18   11.86
  -2  12  -9   86.03    5.80
  -2 -12  -9   69.10    9.11
   2  12   9   77.63    8.83
   2  12  -9   80.49    9.88
  -2  12  -9   78.22    7.71
   2  12 -10  376.45   11.83
  -2  12  10  408.71   35.53
  -2  12 -10  397.91   14.20
  -2 -12 -10  395.59   18.02
   2  12  10  418.42   24.48
   2  12 -10  378.19   14.91
  -2  12 -10  408.49   15.45
  -2  12  11  156.11   14.87
  -2  12 -11  171.75    9.70
  -2 -12 -11  169.37   15.58
   2  12  11  167.62   17.50
   2  12 -11  143.37   11.79
  -2  12 -11  159.72   10.53
  -2  12  12    8.54    2.64
  -2  12 -12   17.45    4.60
  -2 -12 -12   19.02    8.50
   2  12  12   18.21    5.54
   2  12 -12    7.81    5.00
  -2  12 -12   12.71    8.13
  -2  12  13   11.24    4.03
  -2  12 -13    8.88    3.82
  -2 -12 -13   14.70    7.78
   2  12  13    5.88    3.11
   2  12 -13    9.26    4.95
  -2  12 -13   24.09    9.18
  -2  12  14   19.77    6.80
  -2  12 -14   35.56    7.66
   2  12  14   15.25    4.58
   2  12 -14   42.15    8.74
  -2  12 -14   29.58    8.19
  -2  12  15    5.24    2.58
  -2  12 -15   14.44    4.26
  -2 -12 -15    7.34    5.83
   2  12  15   13.12    4.92
   2  12 -15    6.16    5.73
  -2  12 -15    8.98    5.77
  -2  12  16    9.83    5.40
  -2  12 -16   22.36    5.98
  -2 -12 -16   33.78    8.65
   2  12  16   34.15    7.68
   2  12 -16   18.78    7.95
  -2  12 -16   31.60    8.89
  -2  12  17    6.75    2.79
  -2  12 -17   14.39    4.28
  -2 -12 -17   28.68    8.97
   2  12  17   12.26    5.79
   2  12 -17   11.24    5.85
  -2  12 -17   26.33    8.47
  -2 -12 -18    0.19    5.18
   2 -12 -18   15.78    6.34
   2  12  18   -0.04    3.11
   2  12 -18   15.15    7.96
  -2  12 -18   16.51    8.87
   2  13   0   13.00    4.71
  -2  13   0    8.77    2.48
   2  13   0   18.14    6.24
  -2  13   0   14.17    3.84
   2  13  -1   20.38    4.04
  -2  13   1   20.29    4.82
  -2  13  -1   29.94    4.06
   2  13   1    4.57    4.29
  -2  13   1   20.89    3.53
   2  13  -1   10.43    4.68
  -2  13  -1   27.21    4.49
   2  13  -2   25.20    4.88
  -2  13   2   28.06    5.24
  -2  13  -2   13.19    3.89
  -2 -13  -2   29.17    7.38
   2  13   2   14.52    7.19
  -2  13   2   26.21    4.04
   2  13  -2   14.83    5.21
  -2  13  -2   38.17    5.17
   2  13  -3   11.25    2.24
  -2  13   3   12.13    3.25
  -2  13  -3   22.23    5.20
  -2 -13  -3    6.38    4.77
   2  13   3   20.85    5.20
  -2  13   3   14.68    2.73
   2  13  -3   13.94    4.99
  -2  13  -3   13.27    4.56
   2  13  -4    4.04    3.25
  -2  13   4   11.63    3.18
  -2  13  -4    4.60    3.57
  -2 -13  -4   -0.12    4.76
   2  13   4   15.97    6.16
  -2  13   4    9.84    2.73
   2  13  -4    0.60    4.58
  -2  13  -4    5.59    3.43
   2  13  -5   68.07   13.16
  -2  13   5   67.46   10.06
  -2  13  -5   52.28    7.01
  -2 -13  -5   75.17   10.76
  -2  13   5   69.26    6.72
   2  13   5   62.35    8.24
   2  13  -5   74.76    8.83
  -2  13  -5   52.62    7.39
   2  13  -6    9.29    2.61
  -2  13   6   11.46    4.05
  -2  13  -6    7.66    3.69
  -2  13   6    2.46    1.18
   2  13   6   16.81    6.10
   2  13  -6   -0.58    4.43
  -2  13  -6    4.39    3.80
   2  13  -7   33.30    6.66
  -2  13   7   38.77    7.96
  -2  13  -7   40.40    7.43
  -2 -13  -7   35.23    9.08
  -2  13   7   25.97    4.60
   2  13   7   31.96    6.63
   2  13  -7   33.89    7.78
  -2  13  -7   37.57    7.20
   2  13  -8    8.77    2.49
  -2  13   8   12.80    4.32
  -2  13  -8    5.91    3.42
  -2 -13  -8   24.48    8.29
   2  13   8   18.32    6.10
  -2  13  -8    5.38    4.40
   2  13  -9  136.80   10.91
  -2  13   9  152.23   15.59
  -2  13  -9  146.21    8.38
  -2 -13  -9  136.65   10.37
   2  13   9  143.90   16.60
   2  13  -9  130.42   11.48
  -2  13  -9  143.43   10.93
   2  13 -10   41.66    7.48
  -2  13  10   37.21    9.08
  -2  13 -10   46.59    4.72
  -2 -13 -10   35.40    9.15
   2  13  10   39.96    9.45
   2  13 -10   32.62    8.08
  -2  13 -10   52.21    6.56
  -2  13  11   63.79    8.79
  -2  13 -11   78.59    7.83
  -2 -13 -11   40.11    9.23
   2  13  11   71.99    9.26
   2  13 -11   57.60    7.49
  -2  13 -11   65.99    9.11
  -2  13  12   49.46    8.07
  -2  13 -12   37.05    7.13
  -2 -13 -12   27.54    7.25
   2  13  12   36.04    9.08
   2  13 -12   44.91   10.13
  -2  13 -12   54.49    7.37
  -2  13  13   84.87    8.82
  -2  13 -13   83.64    8.69
  -2 -13 -13   82.45   12.54
   2  13  13   65.37   11.76
   2  13 -13   60.88    8.65
  -2  13 -13   72.26    9.24
  -2  13  14   32.07    8.01
  -2  13 -14   32.31    7.64
  -2 -13 -14   21.26    5.56
   2  13  14   34.94    7.11
   2  13 -14   35.42    7.13
  -2  13 -14   64.85    9.24
  -2  13  15  117.13   22.12
  -2  13 -15  141.74   16.35
  -2 -13 -15  172.84   21.31
   2  13  15  133.41   22.99
   2  13 -15  172.48   22.13
  -2  13 -15  163.86   21.46
  -2  13  16   10.80    5.49
  -2  13 -16   23.88    6.62
  -2 -13 -16   34.98   11.07
   2  13  16   14.25    5.69
   2  13 -16   11.91    6.18
  -2  13 -16   23.23    8.48
  -2  13  17   48.39    7.43
   2  13  17   62.41   10.87
   2  13 -17   71.69   11.32
  -2  13 -17   74.09   12.10
   2  14   0  256.71   10.69
  -2  14   0  290.17   30.85
   2  14   0  278.63   12.18
  -2  14   0  256.37    9.55
   2  14  -1   97.85    7.49
  -2  14   1   85.84   11.69
  -2  14  -1  103.38   18.04
   2  14   1   87.33    7.64
   2  14  -1  105.16    9.37
  -2  14   1   87.57    5.41
  -2  14  -1   91.38    5.74
   2  14  -2  502.53   16.73
  -2  14   2  487.63   20.68
  -2  14  -2  475.82   19.56
  -2 -14  -2  519.52   54.27
   2  14   2  529.07   55.29
  -2  14   2  504.81   14.98
   2  14  -2  529.68   55.70
  -2  14  -2  521.66   53.98
   2  14  -3  190.64   13.29
  -2  14   3  169.98   19.19
  -2  14  -3  179.91   24.71
  -2 -14  -3  181.79   11.43
   2  14   3  181.84    9.08
  -2  14   3  163.03    6.57
   2  14  -3  179.29   11.71
  -2  14  -3  182.95    8.28
   2  14  -4  109.40   14.87
  -2  14  -4  120.12    9.64
  -2 -14  -4  118.48    9.10
   2  14   4  116.08    8.01
  -2  14   4  130.33    5.78
   2  14  -4  126.19    9.77
  -2  14  -4  119.35    7.76
   2  14  -5   87.88   10.48
  -2  14   5  101.81   12.26
  -2  14  -5  107.83    8.55
  -2 -14  -5   91.25    8.25
  -2  14   5   94.39    5.22
   2  14   5  120.20    9.56
   2  14  -5  116.99    9.20
  -2  14  -5  117.99    8.41
   2  14  -6   86.38   17.27
  -2  14   6   74.30   10.79
  -2  14  -6   84.44    6.75
   2  14   6   94.94    8.38
   2  14  -6   78.69    8.21
  -2  14  -6   92.84    8.46
   2  14  -7   60.71   11.29
  -2  14   7   69.97    9.22
  -2  14  -7   61.60    8.78
   2  14   7   50.74    7.78
   2  14  -7   59.79    9.03
  -2  14  -7   66.69   12.58
   2  14  -8   28.88    6.46
  -2  14   8   30.98    7.37
  -2  14  -8   20.46    5.30
  -2 -14  -8   18.49    7.72
   2  14   8   20.44    6.10
   2  14  -8   19.41    7.97
  -2  14  -8   27.98    6.39
   2  14  -9  168.27   12.40
  -2  14   9  151.09   21.51
  -2  14  -9  138.39   11.26
  -2 -14  -9  128.24   11.86
   2  14   9  165.15   18.03
  -2  14  -9  141.66   12.31
   2  14 -10   90.64    7.77
  -2  14  10   90.97   12.35
  -2  14 -10   77.06    7.27
  -2 -14 -10   89.59   10.03
   2  14  10   85.99   14.06
  -2  14 -10  102.21   12.36
  -2  14  11  102.60   13.12
  -2  14 -11  104.74   10.29
  -2 -14 -11  113.90   12.02
   2  14  11   94.25   13.50
   2  14 -11  116.37   11.54
  -2  14 -11  108.20   12.05
  -2  14  12   63.26    9.90
  -2  14 -12   69.78    7.11
  -2 -14 -12   62.28    9.18
   2  14  12   79.01   11.37
   2  14 -12   78.29    9.12
  -2  14 -12   68.41    9.63
  -2  14  13    8.30    4.32
  -2  14 -13    4.31    2.80
  -2 -14 -13   13.40    7.85
   2  14  13   11.89    5.21
   2  14 -13   -0.87    4.56
  -2  14 -13   11.97    7.67
  -2  14  14   12.27    3.90
  -2  14 -14    1.15    2.48
  -2 -14 -14   16.11    7.93
   2  14  14   19.23    7.74
   2  14 -14   32.03    9.41
  -2  14 -14   29.97    9.79
  -2  14  15   15.78    5.96
  -2  14 -15   25.26    6.06
  -2 -14 -15   14.35    6.60
   2  14  15   22.23    7.31
   2  14 -15   13.87    8.20
  -2  14 -15    4.93    5.29
  -2  14  16   30.40    7.41
  -2  14 -16   35.61    5.78
   2  14  16   43.34    8.79
   2  14 -16   49.09    9.60
  -2  14 -16   39.33    9.30
   2  15   0    8.30    3.53
  -2  15   0   16.52    5.04
   2  15   0    8.72    4.10
  -2  15   0    5.68    2.15
   2  15  -1   39.52    6.70
  -2  15  -1   53.30   10.28
  -2  15   1   53.96    9.26
   2  15   1   33.75    6.22
  -2  15   1   43.18    5.93
   2  15  -1   32.06    5.74
  -2  15  -1   52.00    7.03
   2  15  -2    5.95    2.99
  -2  15   2    8.27    2.35
  -2  15  -2   10.57    2.74
  -2 -15  -2    2.67    4.28
   2  15   2   18.52    6.52
  -2  15   2   10.99    2.60
   2  15  -2   26.42    6.79
  -2  15  -2   11.83    3.85
   2  15  -3   56.17    4.90
  -2  15   3   62.23    8.30
  -2  15  -3   65.52    8.95
  -2 -15  -3   76.31    8.56
  -2  15   3   49.49    3.93
   2  15   3   62.21    6.12
   2  15  -3   62.53    7.06
  -2  15  -3   57.27    6.04
   2  15  -4   20.46    6.19
  -2  15   4   17.67    4.97
  -2  15  -4   30.82    6.90
  -2 -15  -4   22.09    7.99
   2  15   4   20.73    7.02
   2  15  -4   19.04    7.19
  -2  15  -4   36.80    7.52
   2  15  -5   31.31    6.67
  -2  15   5   19.88    5.27
  -2  15  -5   32.77    7.97
  -2 -15  -5   42.09   10.30
   2  15   5   28.20    7.20
   2  15  -5   36.05    8.66
  -2  15  -5   40.10    8.02
   2  15  -6   44.95    9.71
  -2  15   6   51.52   10.51
  -2  15  -6   47.88    6.93
  -2 -15  -6   27.42    7.88
   2  15   6   46.63    6.83
   2  15  -6   39.76    8.68
  -2  15  -6   30.70    6.30
   2  15  -7   40.18    9.08
  -2  15   7   81.35    9.48
  -2  15  -7   40.43    8.98
  -2 -15  -7   60.84    9.50
   2  15   7   65.93    7.59
   2  15  -7   49.23    7.03
  -2  15  -7   44.94    9.88
  -2  15   8   70.37   10.45
  -2  15  -8   75.65    7.61
  -2 -15  -8   40.35    6.97
   2  15   8   73.24    7.93
   2  15  -8   61.94    9.59
  -2  15  -8   68.93    8.89
   2  15  -9   29.85    6.71
  -2  15   9   16.72    5.82
  -2  15  -9   14.43    4.20
  -2 -15  -9   18.44    8.16
   2  15   9   20.60    6.41
   2  15  -9   33.51    9.30
  -2  15  -9   20.27    6.82
   2  15 -10   34.48    8.06
  -2  15  10   23.55    5.37
  -2  15 -10   31.52    7.99
   2  15  10   32.29    8.99
   2  15 -10   17.77    4.31
  -2  15 -10   31.78    8.71
  -2  15  11    4.60    2.70
  -2  15 -11    4.81    3.98
  -2 -15 -11    8.67    5.51
   2  15  11    6.82    3.19
   2  15 -11    2.02    6.56
  -2  15 -11   15.74    7.16
  -2  15  12    5.33    2.52
  -2  15 -12    8.07    3.35
  -2 -15 -12   -2.07    5.03
   2  15  12   12.87    5.75
  -2  15 -12   13.74    5.44
  -2  15  13   82.42   13.46
  -2  15 -13   98.82   13.14
  -2 -15 -13   76.98   12.47
   2  15  13   49.75   11.37
   2  15 -13  108.74   16.02
  -2  15 -13   84.05   12.28
  -2  15  14   70.20   14.73
  -2  15 -14   80.96   11.66
  -2 -15 -14   73.19   11.97
   2  15  14   72.03   14.06
   2  15 -14   86.80   13.73
  -2  15 -14   85.23   13.43
  -2  15  15   30.21    7.13
  -2  15 -15   56.71    8.25
   2  15  15   50.83    9.20
   2  15 -15   38.78    8.67
  -2  15 -15   64.50   11.95
  -2  16   0   68.60   12.59
   2  16   0   64.14    8.46
  -2  16   0   90.37    7.83
   2  16  -1  203.67   15.19
  -2  16   1  207.61   24.70
  -2  16  -1  176.02   22.66
  -2 -16  -1  199.25   15.98
   2  16   1  214.64   16.43
  -2  16   1  210.22   14.84
   2  16  -1  185.90   15.27
  -2  16  -1  190.13   13.92
   2  16  -2   48.05    6.62
  -2  16   2   31.34    6.71
  -2  16  -2   39.38    9.90
  -2 -16  -2   27.21    6.20
   2  16   2   53.35    7.40
   2  16  -2   43.65    9.41
  -2  16  -2   31.41    6.20
   2  16  -3  189.41   14.22
  -2  16   3  175.35   20.93
  -2  16  -3  187.23   18.03
  -2 -16  -3  182.69   15.91
   2  16   3  202.79   15.54
   2  16  -3  192.20   15.56
  -2  16  -3  187.94   13.66
   2  16  -4    2.32    3.12
  -2  16   4   21.37    6.49
  -2  16  -4   13.24    5.31
  -2 -16  -4   30.81    8.26
   2  16   4   20.53    6.44
   2  16  -4   15.57    5.26
  -2  16  -4   14.96    4.82
   2  16  -5  124.05   21.98
  -2  16   5  138.14   19.68
  -2  16  -5  110.04   20.59
  -2 -16  -5  117.32   11.99
   2  16   5  141.20   12.27
   2  16  -5  136.11   12.80
  -2  16  -5  134.72   12.16
   2  16  -6   17.34    4.15
  -2  16   6   34.99    8.13
  -2  16  -6   33.82    8.46
  -2 -16  -6   22.06    6.41
   2  16   6   32.27    7.27
   2  16  -6   27.49    7.85
  -2  16  -6   33.95    7.50
   2  16  -7   63.29    6.90
  -2  16   7   68.04   10.00
  -2  16  -7   58.09   11.06
   2  16   7   54.40    6.27
   2  16  -7   63.00    7.90
  -2  16  -7   47.80    6.34
   2  16  -8   38.68    5.41
  -2  16   8   40.81    6.54
  -2  16  -8   38.57    8.43
  -2 -16  -8   23.01    5.82
   2  16   8   33.32    8.72
   2  16  -8   30.09    6.69
  -2  16  -8   40.73    6.03
   2  16  -9   42.47    6.29
  -2  16   9   46.77    8.35
  -2  16  -9   32.62    6.67
  -2 -16  -9   30.14    6.57
   2  16   9   31.00    7.67
   2  16  -9   33.46    8.31
  -2  16  -9   19.12    6.27
  -2  16 -10   25.46    7.51
  -2 -16 -10   15.22    7.08
   2  16  10   31.70    6.70
   2  16 -10   34.61    7.35
  -2  16 -10   31.58    6.96
  -2  16  11   41.52    7.86
  -2  16 -11   32.58    7.68
  -2 -16 -11   28.99    8.54
   2  16  11   32.29    8.10
   2  16 -11   37.33    8.48
  -2  16 -11   52.53    8.82
  -2  16  12   30.60    7.37
  -2  16 -12   19.56    4.39
  -2 -16 -12    2.16    5.20
   2  16  12   15.89    5.32
   2  16 -12   18.05    6.72
  -2  16  13    2.84    2.98
  -2  16 -13    6.44    2.44
  -2 -16 -13   28.23    8.50
   2  16  13    6.34    3.33
   2  16 -13    8.97    7.34
  -2  16 -13    7.36    4.65
  -2  17   0   48.71    9.03
   2  17   0   36.70    5.96
  -2  17   1  100.89   22.81
  -2  17  -1  109.05   18.18
  -2 -17  -1  116.36   11.94
   2  17   1  107.51   10.13
   2  17  -1  130.53   12.14
   2  17  -2   26.07    5.38
  -2  17   2   20.81    4.25
  -2  17  -2   21.79    5.48
  -2 -17  -2   21.05    7.07
   2  17   2   14.80    3.58
   2  17  -2   20.37    6.37
  -2  17  -2   16.17    3.86
   2  17  -3   13.00    4.29
  -2  17   3   17.34    4.71
  -2  17  -3    4.24    1.94
  -2 -17  -3   15.05    4.77
   2  17   3    8.41    4.20
   2  17  -3   14.35    4.79
  -2  17  -3   14.89    3.96
   2  17  -4  135.40   11.35
  -2  17   4  131.28   22.37
  -2  17  -4  132.91   26.31
  -2 -17  -4  150.42   13.80
   2  17   4  149.64   12.85
   2  17  -4  164.07   13.81
  -2  17  -4  141.78   11.28
   2  17  -5   84.42   10.78
  -2  17  -5   63.65   13.14
  -2 -17  -5  114.56   17.02
   2  17   5  101.38   13.00
   2  17  -5   86.48   12.68
  -2  17  -5   69.65    9.17
   2  17  -6   26.25    7.32
  -2  17   6   22.34    7.37
  -2  17  -6    7.26    2.86
  -2 -17  -6   24.36    8.40
   2  17   6   14.84    5.92
   2  17  -6   30.51    7.48
  -2  17  -6   20.18    6.14
   2  17  -7   30.24    5.79
  -2  17   7   34.63    6.77
  -2  17  -7   18.50    6.47
  -2 -17  -7   16.50    6.22
   2  17   7   16.94    5.34
   2  17  -7   22.20    7.26
   2  17  -8   73.42   10.44
  -2  17   8   57.39   11.24
  -2  17  -8   41.76    8.66
  -2 -17  -8   51.30    9.47
   2  17   8   52.78    7.85
   2  17  -8   47.84    8.11
  -2  17  -8   65.87   10.14
  -2  17   9   52.18   11.85
  -2  17  -9   59.16   13.63
  -2 -17  -9   57.01   11.66
   2  17   9   64.39   11.18
   2  17  -9   73.12   11.81
  -2  17  -9   54.61    8.91
  -2  17  10   30.82    8.14
  -2  17 -10   13.58    4.56
  -2 -17 -10   27.72    9.81
   2  17  10   33.59    8.44
   2  17 -10   43.07   10.59
  -2  17 -10   26.86    6.90
  -2  17  11  118.07   24.19
  -2  17 -11  148.55   23.60
  -2 -17 -11  188.79   25.09
   2  17  11  137.27   21.98
   2  17 -11  165.78   21.54
  -2  17 -11  140.53   18.29
  -2  18   0   17.32    5.64
  -2 -18   0    8.73    4.74
   2  18   0   14.34    6.38
  -2  18  -1  103.44   18.55
  -2  18   1   98.71   19.40
  -2 -18  -1  111.82   15.01
   2  18   1  122.01   15.61
   2  18  -1  132.48   17.28
  -2  18   2   26.18    7.98
  -2  18  -2   41.28   10.21
  -2 -18  -2   20.53    7.22
   2  18   2   27.18    6.16
   2  18  -2   39.30    6.94
  -2  18   3    2.67    4.55
  -2  18  -3   10.81    4.66
  -2 -18  -3   10.32    6.48
   2  18   3    3.81    3.28
   2  18  -3    7.08    4.36
   2  18  -4    9.47    5.19
  -2  18   4    9.07    3.80
  -2  18  -4   10.19    4.67
  -2 -18  -4    8.65    5.03
   2  18   4   10.63    5.49
   2  18  -4   13.28    5.02
  -2  18  -4    5.26    2.76
   2  18  -5   12.62    4.58
  -2  18   5   14.31    5.07
  -2 -18  -5   21.79    8.68
   2  18   5   27.97    7.55
   2  18  -5   18.13    7.51
  -2  18  -5   17.72    5.40
   2  18  -6    4.57    3.78
  -2  18   6    5.29    2.43
  -2  18  -6    6.97    3.30
   2  18   6   10.42    4.30
   2  18  -6   15.83    8.11
  -2  18  -6    1.49    2.65
   2  18  -7   47.85    8.18
  -2  18  -7   61.32   15.36
  -2 -18  -7   45.32    8.76
   2  18   7   55.50    8.38
   2  18  -7  111.04   16.12
  -2  18  -7   57.48    9.04
  -2  18   8   16.46    5.51
  -2  18  -8   15.18    5.35
   2  18   8   19.89    5.70
   2  18  -8   12.48    4.95
  -2  18  -8    8.69    3.47
  -2  19   0   30.94    6.78
  -2 -19   0    5.57    4.15
   2  19   0   41.10    7.72
  -2  19   1    6.38    2.79
  -2  19  -1    6.30    4.43
  -2 -19   1   19.87    7.48
  -2 -19  -1   -0.75    4.53
   2  19   1   17.97    6.44
   2  19  -1   10.09    5.42
  -2  19   2   13.34    6.59
  -2  19  -2   13.68    4.52
  -2 -19  -2    7.37    4.60
  -2 -19   2    7.39    4.23
   2  19   2    5.75    3.53
   2  19  -2   17.93    6.43
  -2  19   3   36.37    7.93
  -2  19  -3   38.80   10.47
  -2 -19  -3   27.97    7.16
   2  19   3   45.59    8.36
   2  19  -3   39.68    7.50
  -2  19   4   27.92    8.09
  -2  19  -4   29.32    6.26
  -2 -19  -4   25.60    7.13
   2  19  -4   21.53    6.93
  -3   0   0    9.92    5.56
   3   0   0   11.76    2.54
  -3   0   0    2.69    2.04
  -3   0   1 4322.60   88.74
  -3   0  -1 4339.78   89.25
   3   0  -1 4267.06   86.84
  -3   0  -1 4136.37   84.30
  -3   0   1 4206.14   85.59
  -3   0   2  431.70   11.41
  -3   0  -2  408.03   11.72
   3   0  -2  418.05   10.98
   3   0   2  503.26   19.55
  -3   0  -2  430.73   10.57
   3   0  -2  445.31   11.05
  -3   0   2  444.44   10.92
  -3   0   3 3372.30   69.47
   3   0  -3 3176.12   65.26
   3   0   3 3455.47   70.97
   3   0  -3 3405.55   69.54
  -3   0   3 3353.84   68.52
  -3   0   4   69.61    4.14
  -3   0  -4   83.67    6.69
   3   0  -4   60.05    3.64
   3   0   4   81.52    5.37
   3   0  -4   73.12    4.49
  -3   0   4   75.76    4.75
  -3   0   5  668.15   17.81
   3   0  -5  641.39   17.21
   3   0   5  621.54   17.14
   3   0  -5  650.57   17.35
  -3   0   5  639.14   17.03
  -3   0   6   81.07    4.22
  -3   0  -6   74.12    7.61
   3   0  -6   64.82    3.32
   3   0   6   88.58   11.52
   3   0  -6   82.86    4.54
  -3   0   6   71.07    3.99
  -3   0   7  813.04   23.64
  -3   0  -7  820.43   26.59
   3   0  -7  753.30   22.01
   3   0   7  797.69   24.64
   3   0  -7  816.34   24.22
  -3   0   7  780.18   22.97
  -3   0   8  208.80    7.09
  -3   0  -8  209.41   10.39
   3   0  -8  207.54    7.04
   3   0   8  252.50   18.22
   3   0  -8  215.08    8.76
  -3   0   8  206.91    7.65
  -3   0   9  100.60    4.28
  -3   0  -9  106.11   10.90
   3   0  -9   93.18    3.96
   3   0   9  121.98   11.09
   3   0  -9  112.58    6.39
  -3   0  10   70.90    3.26
  -3   0 -10   92.10    8.24
   3   0 -10   62.95    3.13
   3   0  10   90.30    7.72
   3   0 -10   66.95    5.41
  -3   0  11  242.49    9.79
  -3   0 -11  259.55   12.59
   3   0 -11  254.88    8.46
   3   0  11  267.45   20.19
   3   0 -11  232.95    9.81
  -3   0  12  612.98   14.97
  -3   0 -12  694.87   22.82
   3   0 -12  613.24   15.09
   3   0  12  732.54   42.40
   3   0 -12  642.82   18.35
  -3   0 -13   38.51    6.55
   3   0  13   63.53    9.37
   3   0 -13   60.33    6.71
  -3   0 -14   12.77    6.02
   3   0 -14   16.03    5.17
  -3   0 -15   33.12    8.43
   3   0 -15   12.05    5.80
  -3   0 -15   20.69    8.67
  -3   0 -16   11.92    5.22
   3   0 -16   25.57    5.14
  -3   0 -16   32.83    8.69
  -3   0 -17   20.62    6.87
   3   0 -17   30.73    6.59
  -3   0 -17   25.17    7.78
  -3   0 -18   50.41    6.23
   3   0 -18   54.15    6.24
  -3   0 -18   67.51    9.59
  -3   0 -19    4.74    4.85
   3   0 -19    1.49    3.78
  -3   0 -19   12.12    7.05
  -3   0 -20    2.51    4.21
   3   0 -20   11.46    7.30
  -3   0 -20    6.91    5.28
  -3   0 -21   17.55    6.66
   3   0 -21   31.88    7.82
  -3   0 -21   26.72    9.73
  -3   0 -22    6.75    3.89
   3   0 -22   -0.76    3.60
  -3   0 -22   -1.72    5.02
  -3   1   0  732.70   17.47
  -3  -1   0  750.36   18.08
   3  -1   0  770.54   17.56
  -3   1   0  750.77   16.52
  -3  -1   0  725.41   16.44
  -3   1   1  284.53    9.47
  -3  -1   1  274.80    9.04
  -3  -1  -1  267.03    9.05
   3   1  -1  277.79    8.16
   3  -1   1  296.40    9.17
   3  -1  -1  277.67    7.72
   3   1   1  269.85    8.36
  -3   1  -1  268.70    7.49
  -3  -1  -1  277.68    7.81
  -3   1   1  274.49    7.21
  -3  -1   1  258.70    7.26
  -3   1   2   42.92    4.43
  -3   1  -2   54.68    7.15
  -3  -1   2   28.13    3.26
   3  -1  -2   31.40    2.97
   3   1  -2   39.91    3.71
   3  -1   2   47.30    3.74
   3   1   2   33.70    3.77
   3  -1  -2   41.50    3.05
  -3   1  -2   34.52    3.03
  -3  -1  -2   31.80    3.21
   3   1  -2   33.25    3.08
  -3   1   2   41.51    2.86
  -3  -1   2   32.23    3.48
  -3   1   3  193.34    7.14
  -3  -1   3  200.52    6.85
  -3   1  -3  206.68    8.79
   3  -1  -3  180.13    6.25
   3   1  -3  193.29    6.35
   3  -1   3  248.09   17.48
   3   1   3  212.07   15.61
  -3   1  -3  184.55    5.54
   3  -1  -3  191.52    5.49
   3   1  -3  204.59    7.26
  -3   1   3  194.18    5.81
  -3  -1   3  203.70    6.32
  -3   1   4 1273.07   32.26
  -3  -1   4 1213.88   30.73
  -3   1  -4 1251.16   33.05
   3  -1  -4 1161.85   29.48
  -3  -1  -4 1233.17   32.91
   3   1  -4 1233.92   31.02
   3  -1   4 1290.10   33.05
   3   1   4 1308.48   33.54
   3  -1  -4 1266.84   31.44
   3   1  -4 1285.78   32.42
  -3  -1   4 1196.01   30.22
  -3   1   4 1282.30   31.90
  -3   1   5  146.87    6.40
  -3  -1   5  152.47    6.20
  -3   1  -5  149.19   10.43
   3  -1  -5  140.39    5.57
  -3  -1  -5  179.94   12.07
   3   1  -5  161.97    5.76
   3  -1   5  184.76   14.53
   3   1   5  183.10   18.14
   3  -1  -5  148.97    5.24
   3   1  -5  153.82    5.97
  -3  -1   5  138.72    5.82
  -3   1   5  147.76    5.62
  -3   1   6    8.58    1.82
  -3  -1   6   10.12    3.01
  -3   1  -6   21.82    5.81
   3  -1  -6   10.52    2.36
  -3  -1  -6   15.04    5.81
   3   1  -6   13.11    2.25
   3  -1   6   20.26    4.04
   3   1   6   10.67    3.57
   3  -1  -6    8.68    2.09
   3   1  -6   16.63    3.21
  -3  -1   6   12.55    3.43
  -3   1   7   57.06    3.85
  -3  -1   7   45.83    3.05
  -3   1  -7   33.27    4.33
   3  -1  -7   58.74    3.75
  -3  -1  -7   44.89    6.09
   3   1  -7   44.97    2.73
   3  -1   7   60.55    5.80
   3   1   7   52.28    5.67
   3   1  -7   54.16    4.25
   3  -1  -7   47.93    3.69
  -3  -1   7   41.20    3.90
  -3   1   7   53.89    3.36
  -3   1   8  237.33    8.38
  -3  -1   8  224.68    7.26
  -3   1  -8  221.25   10.45
   3  -1  -8  216.55    7.43
  -3  -1  -8  226.29   10.72
   3   1  -8  232.01    7.54
   3  -1   8  238.50   18.65
   3   1   8  242.56   17.65
   3  -1  -8  236.20    9.03
   3   1  -8  225.54    8.71
  -3   1   8  231.76    8.37
  -3   1   9   97.90    4.58
  -3  -1   9   86.73    3.72
  -3   1  -9   92.25    7.55
   3  -1  -9   81.36    3.98
  -3  -1  -9  105.88   10.17
   3   1  -9   80.27    3.44
   3  -1   9   84.52   10.77
   3   1   9   88.41   12.47
   3  -1  -9   82.67    5.28
   3   1  -9   85.80    6.01
  -3   1   9   82.61    4.34
  -3   1  10   35.76    3.70
  -3  -1  10   35.42    2.00
  -3   1 -10   41.17    6.05
   3  -1 -10   34.96    2.67
  -3  -1 -10   69.28    9.09
   3   1 -10   36.24    1.97
   3  -1  10   51.51    7.38
   3   1  10   40.29    3.83
   3  -1 -10   39.52    3.85
   3   1 -10   37.16    5.19
  -3   1  10   27.50    2.54
  -3   1  11   31.06    3.74
  -3   1 -11   64.64   10.39
   3  -1 -11   32.86    3.26
  -3  -1 -11   31.34    8.51
   3  -1  11   41.55    6.95
   3   1  11   56.21    7.34
   3  -1 -11   38.09    5.01
   3   1 -11   43.30    5.90
  -3   1  12   16.77    2.18
   3  -1 -12   18.30    2.36
  -3  -1 -12    2.33    6.43
   3   1  12   30.81    5.41
   3   1 -12   25.95    4.74
   3  -1 -12   19.74    3.59
  -3   1  13  652.67   21.06
  -3   1 -13  676.82   27.02
   3  -1 -13  608.60   19.77
  -3  -1 -13  663.17   26.44
   3   1  13  706.73   34.22
   3   1 -13  672.01   24.32
   3  -1 -13  680.12   23.73
  -3   1 -13  664.27   24.27
  -3   1 -14  221.64   12.90
  -3  -1 -14  201.36   11.26
   3  -1 -14  184.05    5.56
   3   1  14  217.26   20.17
   3   1 -14  205.01    9.96
   3  -1 -14  225.15    9.68
  -3   1 -14  224.83   12.36
  -3   1 -15  380.48   14.31
  -3  -1 -15  417.50   17.26
   3   1  15  390.35   14.05
   3   1 -15  368.23   12.68
   3  -1 -15  373.10   13.01
  -3   1 -16  189.68   12.02
  -3  -1 -16  170.80   12.00
   3   1 -16  178.37    9.53
   3  -1 -16  187.68   10.46
  -3  -1 -16  166.01   10.45
  -3   1 -17  254.01   14.92
  -3  -1 -17  224.82   14.11
   3   1 -17  245.19   12.69
   3  -1 -17  247.75   13.45
  -3   1 -17  236.04   14.03
  -3  -1 -17  207.85   12.48
  -3   1 -18   65.16    7.84
  -3  -1 -18   76.79    9.47
   3   1 -18   68.32    6.79
   3  -1 -18   88.35    8.21
  -3   1 -18   82.89   10.14
  -3  -1 -18   92.12   10.08
  -3   1 -19   30.59    8.49
  -3  -1 -19   29.65    9.05
   3   1 -19   32.12    8.80
   3  -1 -19   41.42    6.24
  -3   1 -19   42.04    8.65
  -3  -1 -19   29.29    8.77
  -3   1 -20  117.19   11.85
  -3  -1 -20  122.53   13.69
   3  -1 -20  124.71   11.24
  -3   1 -20  109.18   12.66
  -3  -1 -20  143.01   14.25
  -3   1 -21  130.91   17.30
  -3  -1 -21  148.57   18.87
   3   1 -21  132.82   17.27
   3  -1 -21   92.67   12.43
  -3   1 -21  136.83   18.31
  -3  -1 -21   95.03   13.68
  -3   1 -22   65.15   11.01
  -3  -1 -22   88.08   13.36
   3   1 -22   63.80   10.07
  -3   1 -22   98.11   14.86
  -3  -1 -22   53.38   10.45
  -3   2   0  326.81   10.57
  -3  -2   0  330.56   11.06
   3  -2   0  353.29   11.47
   3   2   0  333.89    9.76
  -3   2   0  307.50    7.51
  -3   2   1  387.62   10.94
  -3  -2   1  416.44   11.19
  -3  -2  -1  407.42   12.33
   3  -2   1  390.56    9.76
   3  -2  -1  428.77   12.39
   3   2   1  408.34   10.73
  -3   2  -1  382.77    9.22
   3   2  -1  406.42   11.00
  -3   2   1  408.73    9.46
  -3  -2   1  370.49    9.69
  -3   2   2 1445.69   31.43
  -3  -2   2 1458.23   31.60
   3   2  -2 1343.37   28.83
   3  -2   2 1408.58   31.24
   3  -2  -2 1429.25   29.60
   3   2   2 1425.80   30.88
  -3   2  -2 1385.82   29.15
   3   2  -2 1398.27   30.12
  -3   2   2 1376.95   28.58
  -3  -2   2 1276.67   27.46
  -3   2   3   70.62    4.64
  -3   2  -3   57.90    5.05
  -3  -2   3   72.04    5.38
  -3  -2  -3   63.89    5.48
   3   2  -3   62.15    4.03
   3  -2   3   86.26    7.37
  -3   2  -3   61.66    3.45
   3  -2  -3   69.56    3.02
   3   2  -3   69.77    5.12
  -3  -2   3   58.94    4.55
  -3   2   3   55.92    2.82
  -3   2   4   82.09    5.04
  -3   2  -4  107.75    6.94
   3  -2  -4   82.40    4.28
  -3  -2   4   92.15    4.67
  -3  -2  -4   89.30    6.05
   3   2  -4   92.73    4.54
   3  -2   4  110.93   11.58
   3  -2  -4   95.29    3.61
   3   2  -4  104.06    5.38
  -3  -2   4   97.00    5.24
  -3   2   4   84.11    3.69
  -3   2   5  258.83    8.36
  -3   2  -5  307.12   13.58
  -3  -2   5  299.52    9.28
   3  -2  -5  257.67    8.07
  -3  -2  -5  296.18   13.99
   3   2  -5  260.82    8.05
   3  -2   5  276.37    9.13
   3   2   5  288.49   10.24
   3  -2  -5  270.65    7.74
   3   2  -5  268.34    9.21
  -3   2   5  273.58    7.73
  -3   2   6  173.12    6.23
  -3  -2   6  180.09    6.13
  -3   2  -6  165.64    8.75
  -3  -2  -6  194.31   10.65
   3   2  -6  167.57    5.68
   3  -2   6  220.17   19.88
   3   2   6  193.10   19.88
   3  -2  -6  175.46    5.60
   3   2  -6  172.46    7.43
  -3   2   6  158.77    4.91
  -3   2   7   30.07    3.41
  -3  -2   7   35.68    3.04
  -3   2  -7   33.43    5.65
   3  -2  -7   28.60    2.84
  -3  -2  -7   41.05    7.04
   3   2  -7   31.08    2.17
   3  -2   7   35.17    5.67
   3   2   7   40.17    4.92
   3  -2  -7   27.69    2.76
   3   2  -7   35.40    3.45
  -3   2   7   30.60    2.46
  -3   2   8  371.83   11.75
  -3  -2   8  365.10   11.01
  -3   2  -8  349.59   13.37
   3  -2  -8  351.70   11.44
  -3  -2  -8  374.18   14.60
   3   2  -8  352.58   10.56
   3  -2   8  386.50   13.34
   3   2   8  401.71   25.27
   3  -2  -8  365.57   11.49
   3   2  -8  349.83   12.77
  -3   2   8  367.44   11.34
  -3   2   9  301.06   10.39
  -3  -2   9  302.59    9.63
   3  -2  -9  290.20   10.13
  -3   2  -9  313.57   14.22
  -3  -2  -9  309.26   13.69
   3   2  -9  298.48    9.49
   3  -2   9  296.15   13.35
   3   2   9  321.70   18.59
   3   2  -9  300.10   11.94
   3  -2  -9  318.18   11.00
  -3   2   9  270.71    9.21
  -3  -2  10  192.45    6.07
  -3   2  10  189.63    9.86
  -3  -2  10  202.18    6.30
   3  -2 -10  186.21    7.03
  -3   2 -10  181.99   10.79
  -3  -2 -10  203.39   12.90
   3   2  10  194.76   15.00
   3   2 -10  216.28    9.52
   3  -2 -10  217.07    8.85
  -3   2  10  188.23    7.30
  -3   2 -10  208.43   10.10
  -3   2  11  223.62   10.32
   3  -2 -11  218.27    8.22
  -3   2 -11  238.33   12.08
  -3  -2 -11  233.34   12.34
   3   2  11  277.52   31.34
   3   2 -11  218.67   10.26
   3  -2 -11  227.44   10.01
  -3   2 -11  277.83   15.35
  -3   2  12    9.71    1.72
  -3   2 -12    7.34    5.81
   3  -2 -12    9.66    2.47
  -3  -2 -12   21.33    9.86
   3   2  12    8.11    4.43
   3   2 -12    7.22    4.20
   3  -2 -12   15.65    5.83
  -3   2 -12    2.14    5.35
  -3   2  13  126.25   10.49
  -3   2 -13  138.34   11.86
  -3  -2 -13  162.40   15.74
   3   2  13  165.77   18.43
   3   2 -13  154.76   11.09
   3  -2 -13  129.57    9.08
  -3   2 -13  136.06   10.84
  -3   2  14  266.67    9.14
  -3   2 -14  293.18   15.35
  -3  -2 -14  267.61   12.62
   3   2  14  291.74   21.84
   3   2 -14  280.64   11.94
   3  -2 -14  272.04   10.72
  -3   2 -14  312.97   14.26
  -3   2 -15   22.70    7.23
  -3  -2 -15   26.60    8.26
   3   2  15   38.51    6.85
   3   2 -15   36.09    5.78
   3  -2 -15   21.33    5.05
  -3   2 -15   33.59    6.51
  -3   2 -16   13.49    6.35
  -3  -2 -16   20.83    8.17
   3   2  16   33.50    6.82
   3   2 -16   16.76    6.63
   3  -2 -16   20.22    6.33
  -3   2 -16   11.87    4.37
  -3   2 -17   31.02    6.05
  -3  -2 -17   42.78    9.20
   3   2 -17   27.71    6.47
   3  -2 -17   57.94    8.79
  -3   2 -18   14.58    4.65
  -3  -2 -18   23.27    7.50
   3   2 -18   27.28    6.45
   3  -2 -18   32.30    7.76
  -3  -2 -18   36.40   10.29
  -3   2 -19   48.82    8.76
  -3  -2 -19   42.92    8.00
   3   2 -19   47.35    7.65
   3  -2 -19   41.50    5.51
  -3   2 -19   37.18    7.59
  -3  -2 -19   47.18   10.18
  -3   2 -20   33.03    8.71
   3   2 -20   35.80    7.02
   3  -2 -20   22.28    4.32
  -3   2 -20   26.49    6.40
  -3  -2 -20   27.56    7.97
  -3   2 -21   14.12    6.15
  -3  -2 -21   14.05    7.05
   3   2 -21    6.11    4.47
  -3   2 -21   12.52    6.00
  -3  -2 -21   15.44    5.76
  -3   2 -22   44.59    8.26
  -3  -2 -22   44.09    8.43
   3   2 -22   45.28    7.78
  -3   2 -22   55.24   10.86
  -3  -2 -22   23.74    6.90
  -3   3   0   45.65    5.68
  -3  -3   0   41.06    5.16
   3  -3   0   48.39    4.03
  -3   3   0   43.06    2.68
   3   3   0   43.80    4.72
  -3   3   1  105.37    6.71
  -3   3  -1  109.16    5.72
  -3  -3   1   99.55    5.97
  -3  -3  -1  107.48    7.39
   3  -3   1  113.27    9.46
   3  -3  -1  114.90    6.50
  -3   3  -1  102.56    4.13
   3   3   1  135.53    7.00
   3   3  -1  101.84    5.05
  -3   3   1   96.98    3.77
  -3   3   2  118.87    6.71
  -3   3  -2  113.20    8.04
  -3  -3   2  117.43    6.40
  -3  -3  -2  100.30    7.24
   3   3  -2  105.48    4.65
   3  -3   2  132.23   10.23
   3  -3  -2  117.98    6.50
  -3   3  -2  114.38    4.54
   3   3  -2  125.34    6.43
  -3   3   2  123.50    4.17
  -3   3   3  153.20    6.64
  -3   3  -3  163.13    8.54
  -3  -3   3  153.36    6.50
  -3  -3  -3  151.80    8.39
   3   3  -3  161.54    5.68
   3  -3   3  165.47    8.30
   3  -3  -3  150.33    5.53
  -3   3  -3  143.11    9.72
   3   3   3  164.56    7.62
   3   3  -3  152.79    7.00
  -3   3   3  155.97    4.69
  -3   3   4  185.66    7.28
  -3   3  -4  170.37    8.71
  -3  -3   4  161.62    6.72
   3   3  -4  161.38    5.55
   3  -3   4  188.58    6.70
  -3   3  -4  143.44   10.72
   3  -3  -4  167.38    5.84
   3   3   4  182.56   11.75
   3   3  -4  201.16    8.34
  -3   3   4  164.05    4.72
  -3   3   5  237.77    7.87
  -3   3  -5  226.13   10.55
  -3  -3   5  244.17    8.40
  -3  -3  -5  225.97   10.63
   3   3  -5  228.19    6.98
   3  -3   5  222.49   10.14
   3   3   5  224.06   17.51
   3  -3  -5  228.54    6.06
   3   3  -5  233.73    8.88
  -3   3   5  219.93    5.83
  -3   3   6  350.12   12.21
  -3   3  -6  368.88   13.73
  -3  -3   6  371.49   12.09
  -3  -3  -6  333.07   15.91
   3   3  -6  327.62   10.16
   3   3   6  415.14   23.82
   3  -3  -6  353.74   10.42
   3   3  -6  324.87   12.60
  -3   3   6  335.07    9.83
  -3   3   7  156.84    7.09
  -3   3  -7  168.79   10.02
  -3  -3   7  164.41    6.37
  -3  -3  -7  147.04    9.17
   3   3  -7  149.42    5.23
   3   3   7  177.82   21.19
   3  -3  -7  172.45    5.86
   3   3  -7  166.46    8.25
  -3   3  -7  164.15    8.67
  -3   3   7  149.97    5.00
  -3  -3   8  129.95    4.95
  -3   3   8  145.93    6.21
  -3  -3   8  130.38    4.87
   3  -3  -8  131.72    5.86
  -3   3  -8  133.60    7.76
  -3  -3  -8  156.83   12.11
   3  -3  -8  139.50    4.75
   3   3   8  172.49   20.54
   3  -3  -8  143.34    5.58
   3   3  -8  151.78    8.28
  -3   3  -8  150.64    9.65
  -3  -3   9  192.93    6.72
  -3   3   9  178.73    7.11
  -3  -3   9  190.31    6.46
   3  -3  -9  174.88    7.09
  -3   3  -9  188.04    9.59
  -3  -3  -9  175.74   11.41
   3  -3  -9  191.54    7.09
   3   3   9  203.85   17.96
   3   3  -9  163.95    7.92
   3  -3  -9  190.61    7.47
  -3   3  -9  213.27   11.65
  -3   3  10  588.69   21.91
   3  -3 -10  496.56   16.47
  -3   3 -10  595.73   22.40
  -3  -3 -10  613.13   23.27
   3  -3 -10  537.19   17.08
   3   3  10  570.21   20.04
   3   3 -10  587.11   21.07
   3  -3 -10  550.18   18.15
  -3   3 -10  602.96   22.27
  -3   3  11  169.16   12.83
   3  -3 -11  149.18   11.86
  -3   3 -11  178.98   11.18
  -3  -3 -11  159.08   15.42
   3  -3 -11  140.98   11.06
   3   3  11  178.81   23.23
   3   3 -11  180.80    9.63
   3  -3 -11  177.01    7.70
  -3   3 -11  177.77   10.14
  -3   3  12   34.03    3.95
   3  -3 -12   29.68    3.18
  -3   3 -12   38.70    6.81
  -3  -3 -12   37.89    7.87
   3  -3 -12   28.75    3.83
   3   3  12   34.16    5.20
   3   3 -12   49.68    7.01
   3  -3 -12   35.90    4.76
  -3   3 -12   22.61    5.94
  -3   3  13  134.73   14.38
  -3   3 -13  149.53   11.48
  -3  -3 -13  150.93   14.19
   3   3  13  173.34   21.06
   3   3 -13  151.28   11.35
   3  -3 -13  173.99    8.31
  -3   3 -13  149.04   12.92
  -3   3  14  343.09   10.91
  -3   3 -14  351.80   15.56
  -3  -3 -14  317.61   14.28
   3   3  14  352.80   27.99
   3   3 -14  333.08   13.86
   3  -3 -14  291.45   10.30
  -3   3 -14  337.92   14.03
  -3   3  15   38.56    6.68
  -3   3 -15   53.16    9.09
  -3  -3 -15   57.14    9.86
   3   3  15   67.22   11.10
   3   3 -15   71.76    9.78
   3  -3 -15   64.71    7.30
  -3   3 -15   62.88    9.74
  -3   3 -16   69.39    7.50
  -3  -3 -16  100.70    9.55
   3   3  16   86.98    8.66
   3   3 -16   79.25    7.43
   3  -3 -16   79.53    5.75
  -3   3 -16   81.12    8.47
  -3   3 -17   94.40    8.72
   3   3 -17  101.90    8.40
   3  -3 -17  113.52    7.43
  -3   3 -17   89.92    7.59
  -3   3 -18   57.73    7.28
  -3  -3 -18   53.46    6.77
   3   3 -18   57.14    6.97
   3  -3 -18   58.95    7.33
  -3   3 -18   71.50   10.90
  -3   3 -19   16.54    5.19
  -3  -3 -19   18.69    7.91
   3   3 -19   25.86    7.87
   3  -3 -19   17.22    6.19
  -3  -3 -19   22.36    6.24
  -3   3 -20  154.67   13.05
  -3  -3 -20  126.44   12.37
   3   3 -20  142.27   11.98
  -3   3 -20  138.30   12.54
  -3  -3 -20  147.78   15.63
  -3   3 -21   21.96    6.99
  -3  -3 -21   25.38    8.60
   3   3 -21   26.10    8.39
  -3   3 -21   20.63    8.81
  -3  -3 -21   22.73    8.47
  -3   3 -22   30.01    7.57
  -3  -3 -22   23.20    7.92
   3   3 -22   10.97    4.60
  -3   3 -22   16.93    6.69
  -3  -3 -22   34.05    9.67
  -3   4   0  957.63   25.93
  -3  -4   0  970.07   25.86
  -3   4   0  950.14   23.56
  -3   4   0  986.93   24.49
  -3   4   1  120.45    5.88
  -3  -4   1  134.35    7.07
  -3  -4  -1  127.26    6.66
  -3   4  -1  126.80    6.76
   3   4   1  126.90    6.31
  -3   4   1  130.33    4.14
   3   4  -1  133.89    6.09
  -3   4   1  129.36    4.06
  -3   4  -1  131.55    5.38
  -3   4   2  373.81   12.12
  -3   4  -2  384.28   12.41
  -3  -4   2  364.05   11.72
  -3  -4  -2  361.35   12.26
  -3   4  -2  366.73   15.00
   3   4   2  365.71   11.68
   3   4  -2  358.03   11.66
  -3   4   2  367.17    9.31
  -3   4   2  356.07    9.04
  -3   4  -2  365.98   10.65
  -3   4   3   76.07    5.82
  -3   4  -3   83.33    6.07
  -3  -4   3   74.49    4.87
  -3  -4  -3  106.31    8.50
   3   4  -3   73.65    3.67
  -3   4  -3   67.18    6.25
   3   4   3   92.68    6.87
   3   4  -3   79.69    4.90
  -3   4  -3   90.54    5.48
  -3   4   4  522.23   14.97
  -3   4  -4  552.91   17.68
  -3  -4   4  552.18   15.42
  -3   4  -4  487.69   13.32
   3   4   4  537.73   16.25
   3   4  -4  561.94   16.96
  -3   4  -4  560.06   15.63
  -3   4   5   11.35    3.04
  -3   4  -5   19.07    4.99
  -3  -4   5   16.03    2.81
  -3  -4  -5   27.15    9.25
   3   4  -5   16.44    1.87
   3   4   5   20.32    4.34
   3   4  -5    1.26    4.04
  -3   4  -5   17.31    3.83
  -3  -4   6  116.33    7.28
  -3   4   6  143.27    7.19
  -3   4  -6  150.17    9.18
  -3  -4   6  142.98    5.97
  -3  -4  -6  133.05    8.60
   3   4   6  148.94   12.35
   3   4  -6  126.98    7.49
  -3   4  -6  141.97    8.70
  -3  -4   7  247.20    8.81
  -3   4   7  267.29    9.52
  -3   4  -7  276.61   12.21
  -3  -4   7  257.64    8.84
  -3  -4  -7  299.52   12.99
   3  -4  -7  269.70    7.75
   3   4   7  325.13   21.16
   3  -4  -7  267.00    7.72
   3   4  -7  276.06   11.29
  -3   4  -7  270.20   10.42
  -3  -4   8  177.78    6.42
  -3   4   8  190.81    7.64
  -3   4  -8  228.16   12.32
  -3  -4   8  185.61    6.79
  -3  -4  -8  203.47   13.08
   3  -4  -8  185.02    6.12
   3   4   8  211.48   24.17
   3  -4  -8  191.65    6.48
   3   4  -8  192.70    9.00
  -3   4  -8  195.43   10.22
  -3  -4   9    9.01    0.95
  -3   4   9   12.31    3.31
  -3   4  -9    2.68    4.50
  -3  -4   9   10.17    2.20
  -3  -4  -9   11.92    8.76
   3  -4  -9    4.23    1.14
   3   4   9   10.57    2.85
   3   4  -9   11.01    7.98
   3  -4  -9   12.73    2.60
  -3   4  -9   15.75    6.62
  -3   4  10  307.15   14.60
  -3   4 -10  320.09   14.82
  -3  -4 -10  332.13   14.96
   3   4  10  313.41   21.86
   3  -4 -10  288.22    9.52
   3   4 -10  286.54   12.47
   3  -4 -10  295.80   10.14
  -3   4 -10  307.05   14.19
  -3   4  11   38.61    5.49
  -3   4 -11   50.64    8.26
  -3  -4 -11   33.47    9.91
   3   4  11   54.18    7.69
   3  -4 -11   26.25    3.77
   3   4 -11   35.80    6.69
   3  -4 -11   40.29    4.37
  -3   4 -11   41.53    6.40
  -3   4  12  118.76   12.23
  -3   4 -12  146.76   12.53
  -3  -4 -12  157.26   13.01
   3   4  12  142.27   11.63
   3  -4 -12  103.46    8.60
   3   4 -12  145.34   11.60
   3  -4 -12  129.05    8.48
  -3   4 -12  126.20   11.30
  -3   4  13   22.67    3.31
  -3   4 -13   12.60    5.48
  -3  -4 -13   12.96    8.85
   3   4  13    8.55    3.27
   3   4 -13   15.10    7.88
   3  -4 -13   14.17    3.07
  -3   4 -13   13.76    5.36
  -3   4  14   46.38    7.68
  -3   4 -14   40.97    6.92
  -3  -4 -14   72.07   12.57
   3   4  14   64.89    8.48
   3   4 -14   51.68    7.20
   3  -4 -14   62.45    6.57
  -3   4 -14   62.25    8.38
  -3   4  15  122.41   13.78
  -3   4 -15  178.21   10.42
  -3  -4 -15  149.66   10.53
   3   4 -15  154.83    9.10
   3  -4 -15  143.98    7.32
  -3   4 -15  168.62   12.00
  -3   4 -16   24.82    5.48
  -3  -4 -16   11.22    6.23
   3   4 -16   24.98    7.26
   3  -4 -16   29.81    5.05
  -3   4 -16   13.45    5.53
  -3   4 -17   49.50    6.89
  -3  -4 -17   64.11    7.72
   3   4  17   63.02    8.94
   3   4 -17   68.19    8.24
   3  -4 -17   59.47    4.74
  -3   4 -17   48.92    8.54
  -3   4 -18    6.45    3.76
  -3  -4 -18    4.17    5.23
   3   4  18    6.49    4.31
   3   4 -18   14.88    6.65
  -3   4 -18    9.49    5.28
  -3   4 -19   23.72    6.72
  -3  -4 -19   27.69    8.73
   3   4  19   11.49    4.39
   3   4 -19   23.19    7.84
  -3   4 -19   26.53    8.76
  -3   4 -20   34.23    6.30
  -3  -4 -20   38.87    8.45
   3   4 -20   58.47   11.40
  -3   4 -20   23.72    8.35
  -3  -4 -20   22.77    6.94
  -3   4 -21   49.29    8.11
  -3  -4 -21   76.74   12.96
   3   4 -21   58.51    9.84
  -3  -4 -21   81.07   13.26
  -3  -4 -22    6.63    4.43
   3   4 -22    5.58    4.21
  -3  -4 -22    4.16    4.77
  -3   5   0   -1.52    3.43
  -3  -5   0    1.31    4.61
  -3   5   0    6.68    1.68
   3   5   0    5.07    3.97
  -3   5   0    2.10    1.79
  -3   5   1  126.27    7.32
  -3  -5   1  129.55    6.55
  -3  -5  -1  132.57    6.81
  -3   5  -1  120.53    8.88
  -3   5   1  132.33    4.00
   3   5   1  134.68    7.57
   3   5  -1  132.35    6.82
  -3   5   1  125.27    4.04
  -3   5  -1  124.01    4.72
  -3   5   2  148.23    7.32
  -3   5  -2  150.65    7.93
  -3  -5   2  143.72    6.99
  -3  -5  -2  137.03    7.12
  -3   5  -2  137.17    8.43
   3   5   2  141.24    8.07
   3   5  -2  133.87    6.57
  -3   5  -2  135.00    5.07
  -3   5   3  270.78   10.49
  -3   5  -3  257.99   10.84
  -3  -5   3  250.09    9.41
  -3  -5  -3  266.23   11.27
  -3   5  -3  234.85   13.42
   3   5   3  285.46   11.45
   3   5  -3  291.85   11.97
  -3   5  -3  268.30    9.24
  -3  -5   4  694.12   20.52
  -3   5   4  727.47   22.44
  -3   5  -4  768.90   24.72
  -3  -5   4  747.67   22.62
  -3  -5  -4  768.89   25.27
   3   5   4  758.83   23.94
   3   5  -4  729.29   22.82
  -3   5  -4  749.71   22.45
  -3  -5   5  214.89    9.65
  -3   5   5  249.53    9.58
  -3   5  -5  238.13   10.19
  -3  -5   5  254.13    9.09
  -3  -5  -5  252.51   13.18
   3   5   5  258.21   10.64
   3   5  -5  233.74    9.50
  -3   5  -5  249.42    9.32
  -3  -5   6  254.19   12.19
  -3   5   6  299.30   10.89
  -3   5  -6  292.73   12.60
  -3  -5   6  315.63   11.14
  -3  -5  -6  332.38   15.31
   3   5   6  302.80   24.05
   3   5  -6  310.54   12.47
  -3   5  -6  287.62   10.83
  -3  -5   7  386.94   13.28
  -3   5   7  432.34   15.16
  -3   5  -7  460.00   17.62
  -3  -5   7  420.96   14.12
  -3  -5  -7  425.24   17.83
   3   5   7  483.24   25.68
   3   5  -7  430.80   16.04
  -3   5  -7  390.11   14.80
  -3  -5   8   61.48    5.30
  -3   5   8   82.64    4.68
  -3   5  -8   86.38    6.49
  -3  -5   8   85.96    4.52
  -3  -5  -8  117.09   11.34
   3   5   8   73.93    7.74
   3   5  -8   86.72    6.15
  -3   5  -8   87.62    6.46
  -3  -5   9  591.33   19.15
  -3   5   9  650.98   21.77
  -3   5  -9  614.54   22.62
  -3  -5   9  596.80   18.90
  -3  -5  -9  678.59   25.13
   3   5   9  589.72   28.99
   3  -5  -9  584.49   18.08
   3  -5  -9  607.73   18.87
   3   5  -9  618.31   22.00
  -3   5  -9  656.61   23.51
  -3   5  10  207.26   14.47
  -3  -5  10  189.09    5.01
  -3   5 -10  191.21   11.14
  -3  -5  10  191.72    5.27
  -3  -5 -10  215.00   11.98
   3   5  10  172.93   12.04
   3  -5 -10  161.43    8.51
   3   5 -10  182.18    9.69
   3  -5 -10  187.20    5.88
  -3   5 -10  191.48    9.26
  -3   5  11  169.77   12.27
  -3   5 -11  189.51    9.84
  -3  -5 -11  208.86   14.20
   3   5  11  197.63   17.56
   3  -5 -11  133.87   12.22
   3   5 -11  190.88   10.66
   3  -5 -11  180.07    6.20
  -3   5 -11  164.58    8.35
  -3   5  12  105.86    9.85
  -3   5 -12  143.91   12.44
  -3  -5 -12  134.72   15.11
   3   5  12  121.14   17.72
   3   5 -12   98.10    9.58
   3  -5 -12  116.29    7.45
  -3   5 -12  108.40   10.29
  -3   5  13  117.82   12.17
  -3   5 -13  144.15   11.12
  -3  -5 -13  142.25   10.05
   3   5 -13  154.28   10.08
   3  -5 -13  157.48    6.50
  -3   5 -13  144.03    9.42
  -3   5  14   55.42    7.56
  -3   5 -14   61.56    8.09
  -3  -5 -14   60.05   10.20
   3   5 -14   76.76   11.13
   3  -5 -14   77.56    8.19
  -3   5 -14   80.63   10.42
  -3   5  15  171.30    9.87
  -3   5 -15  185.05   10.31
  -3  -5 -15  178.53   10.99
   3   5  15  160.73   12.57
   3   5 -15  172.40   11.17
   3  -5 -15  192.72    7.84
  -3   5 -15  187.48   12.11
  -3   5  16   66.16   14.34
  -3   5 -16  113.85    9.35
  -3  -5 -16  107.64    9.86
   3   5  16   80.36    8.82
   3   5 -16  124.85    9.76
   3  -5 -16  116.72    7.21
  -3   5 -16  141.53   14.33
  -3   5 -17   41.49    9.22
  -3  -5 -17   28.57    7.48
   3   5  17   29.70    7.31
   3   5 -17   25.76    7.70
  -3   5 -17   22.32    6.52
  -3   5 -18   11.45    4.44
  -3  -5 -18    8.43    5.82
   3   5  18   19.48    6.15
   3   5 -18   15.90    5.51
  -3   5 -18   17.92    6.09
  -3   5 -19   33.06    8.38
  -3  -5 -19   27.42    7.65
   3   5  19   24.03    5.66
   3   5 -19   24.28    5.88
  -3   5 -19   37.79    7.32
  -3   5 -20   27.20    7.67
  -3  -5 -20   27.35    9.78
   3   5  20   28.21    8.65
   3   5 -20   48.89    9.23
  -3   5 -20   47.80    9.12
  -3   5 -21   51.27    8.24
  -3  -5 -21   65.95   11.45
   3   5 -21   73.96   11.31
  -3   5 -21   56.84   10.44
  -3  -5 -21   45.03    9.42
  -3  -5 -22   14.58    6.90
   3   5 -22   22.87    5.72
  -3   5 -22   22.76    6.36
  -3  -5 -22   15.53    5.48
  -3   6   0   50.06    4.70
  -3  -6   0   49.63    5.19
  -3   6   0   52.24    4.21
   3   6   0   38.23    5.14
  -3   6   0   45.81    3.11
  -3   6   1   12.11    3.08
  -3   6  -1   23.66    5.71
  -3  -6  -1   13.41    3.12
  -3  -6   1   31.01    5.19
  -3   6  -1   16.91    2.38
  -3   6   1   15.97    1.26
   3   6   1   20.57    4.03
   3   6  -1   10.35    3.93
  -3   6   1   13.35    1.56
  -3   6  -1   19.06    3.09
  -3   6   2  111.15    6.13
  -3   6  -2  103.38    7.24
  -3  -6  -2  122.61    7.21
  -3  -6   2  111.62    7.81
  -3   6  -2   92.45    8.43
   3   6   2   98.93    7.49
   3   6  -2  100.33    8.01
  -3   6  -2  107.16    5.31
  -3   6   3    5.51    3.12
  -3   6  -3    6.16    3.91
  -3  -6   3    7.83    4.02
  -3  -6  -3   12.77    5.49
  -3   6  -3    7.35    1.47
   3   6   3   10.93    5.58
   3   6  -3   10.85    4.39
  -3   6  -3    9.03    2.48
  -3   6   4  122.38    6.33
  -3   6  -4  135.31    8.08
  -3  -6   4  132.33    6.36
  -3  -6  -4  105.53   10.08
   3   6   4  113.88    6.64
   3   6  -4  103.32    6.17
  -3   6  -4  115.85    6.85
  -3  -6   5  854.92   26.53
  -3   6   5  953.09   30.47
  -3   6  -5  962.29   31.79
  -3  -6   5  990.48   74.51
   3   6   5  970.16   73.39
   3   6  -5  917.61   30.01
  -3   6  -5 1006.16   75.76
  -3  -6   6   95.78   10.02
  -3   6   6  133.81    6.67
  -3   6  -6  132.05    9.51
  -3  -6   6  142.55    6.99
  -3  -6  -6  147.70    9.20
   3   6   6  157.38    8.76
   3   6  -6  132.28    7.47
  -3   6  -6  144.78    8.04
  -3  -6   7   32.37    3.55
  -3   6   7   44.76    4.06
  -3   6  -7   58.28    7.18
  -3  -6   7   44.61    4.23
  -3  -6  -7   37.21    6.32
   3   6   7   43.73    7.12
   3   6  -7   56.09    6.82
  -3   6  -7   47.25    6.37
  -3  -6   8   15.51    2.42
  -3   6   8   21.39    3.55
  -3   6  -8   26.07    6.39
  -3  -6   8   27.02    3.87
  -3  -6  -8   33.13    9.42
   3   6   8   52.77    7.32
   3   6  -8   24.06    4.07
  -3   6  -8   17.27    4.74
  -3  -6   9  208.10    9.41
  -3   6   9  240.29   20.18
  -3   6  -9  233.63   12.29
  -3  -6   9  240.73    8.81
  -3  -6  -9  245.14   12.84
   3   6   9  273.34   19.26
   3   6  -9  249.41   12.53
  -3   6  -9  244.45   10.95
  -3   6  10   56.40    6.67
  -3  -6  10   53.37    3.85
  -3   6 -10   56.00    6.80
  -3  -6  10   54.65    4.13
  -3  -6 -10   54.60    8.96
   3   6  10   57.43    8.82
   3  -6 -10   55.44    3.71
   3   6 -10   39.07    6.21
   3  -6 -10   51.06    3.57
  -3   6 -10   65.74    8.31
  -3   6  11  209.42   15.95
  -3   6 -11  221.41   12.85
  -3  -6 -11  180.09   15.66
   3   6  11  199.13   16.41
   3   6 -11  213.14   13.08
   3  -6 -11  202.81    7.54
  -3   6 -11  206.34   10.84
  -3   6  12  123.66   11.51
  -3   6 -12  123.06    8.38
  -3  -6 -12  128.24    9.54
   3   6 -12  119.05    8.00
   3  -6 -12  118.59    5.03
  -3   6 -12  132.38    8.05
  -3   6  13  103.97   11.21
  -3   6 -13  103.09    8.93
  -3  -6 -13  135.04   12.74
   3   6  13  117.51   11.69
   3   6 -13   93.80   10.44
   3  -6 -13  103.51    4.40
  -3   6 -13   96.04   13.75
  -3   6  14   29.73    5.62
  -3   6 -14   24.65    5.59
  -3  -6 -14   39.22   10.00
   3   6  14   32.05    6.59
   3   6 -14   25.06    7.84
   3  -6 -14   25.82    4.32
  -3   6 -14   22.16    6.01
  -3   6  15  107.68   11.28
  -3   6 -15  138.38   10.41
  -3  -6 -15  119.76   10.22
   3   6  15  120.80   15.15
   3   6 -15  108.36    8.41
  -3   6 -15  134.37   11.06
  -3   6  16   49.61    6.68
  -3   6 -16   82.43    7.84
  -3  -6 -16   57.64    8.15
   3   6  16   63.44   11.56
   3   6 -16   74.04    8.21
  -3   6 -16   80.00    7.90
  -3   6 -17   58.08    7.51
  -3  -6 -17   27.98    7.14
   3   6  17   38.94    8.97
   3   6 -17   35.81    8.11
  -3   6 -17   54.98   10.03
  -3   6 -18  125.18   12.34
  -3  -6 -18   90.50   11.50
   3   6  18   76.11   14.02
   3   6 -18  108.96   12.35
  -3   6 -18  105.75   10.98
  -3   6 -19   21.99    5.95
  -3  -6 -19   45.49    9.25
   3   6  19   33.04    7.24
   3   6 -19   34.90    7.25
  -3   6 -19   21.25    7.73
  -3   6 -20  193.56   23.71
  -3  -6 -20  114.74   15.93
   3   6  20   92.05   17.60
   3   6 -20  110.15   14.71
  -3   6 -20  156.38   21.44
  -3  -6 -21   30.94    9.36
   3   6  21   23.44    6.11
   3   6 -21   48.11   10.14
  -3  -7   0  235.52   10.85
  -3   7   0  250.11   11.12
   3   7   0  249.32   10.33
  -3   7   0  248.45    8.38
  -3   7   1  220.49   10.36
  -3   7  -1  200.98    9.69
  -3  -7   1  200.94    9.60
  -3  -7  -1  193.96    8.81
  -3   7  -1  185.72    9.08
  -3   7   1  200.92    7.38
   3   7   1  202.18    9.01
   3   7  -1  200.70   10.30
  -3   7   1  191.13    6.23
  -3   7  -1  202.59    7.64
  -3   7   2  359.95   14.13
  -3   7  -2  371.87   15.13
  -3  -7  -2  334.57   13.44
  -3  -7   2  386.99   14.76
  -3   7  -2  338.00   11.83
   3   7   2  340.85   13.21
   3   7  -2  366.03   14.56
  -3   7  -2  364.09   12.49
  -3   7   3  107.78    6.77
  -3   7  -3  109.70    7.47
  -3  -7  -3  121.29    9.99
  -3  -7   3  113.22    6.19
  -3   7  -3   88.60    7.79
   3   7   3  113.75    6.88
   3   7  -3  104.08    6.52
  -3   7  -3  108.03    5.75
  -3   7   4  374.70   14.16
  -3   7  -4  379.18   15.29
  -3  -7   4  393.92   14.66
  -3  -7  -4  409.79   16.40
   3   7   4  394.57   14.72
   3   7  -4  356.33   14.64
  -3   7   5  302.48   12.30
  -3   7  -5  298.67   12.94
  -3  -7   5  319.20   11.98
   3   7   5  256.46   10.85
   3   7  -5  290.54   12.69
  -3   7  -5  290.26   11.30
  -3   7   6  340.21   13.33
  -3   7  -6  332.58   13.62
  -3  -7  -6  350.28   16.00
  -3  -7   6  333.23   12.12
   3   7   6  342.02   13.76
   3   7  -6  331.67   14.34
  -3   7  -6  370.73   13.89
  -3   7   7  161.98   13.73
  -3   7  -7  182.22   10.72
  -3  -7   7  180.43    8.25
  -3  -7  -7  148.49   13.80
   3   7   7  178.62   15.11
   3   7  -7  175.08   11.26
  -3   7  -7  152.97   13.07
  -3   7   8  168.79   13.28
  -3   7  -8  167.90    8.36
  -3  -7   8  179.30    6.51
  -3  -7  -8  190.90   10.63
   3   7   8  170.69   17.17
   3   7  -8  181.97    9.41
  -3   7  -8  173.49    9.27
  -3   7   9  119.82   12.50
  -3  -7   9  109.30    7.45
  -3   7  -9  119.67   11.46
  -3  -7   9  118.00    8.37
  -3  -7  -9  122.62   12.15
   3   7   9  131.49   18.16
   3   7  -9  120.80   10.48
  -3   7  -9  135.22   12.13
  -3   7  10  183.74   15.04
  -3   7 -10  206.54   11.89
  -3  -7  10  175.02    6.98
  -3  -7 -10  199.38   14.71
   3   7 -10  170.03   16.32
  -3   7 -10  189.45   12.26
  -3   7  11  764.27   23.59
  -3   7 -11  774.55   25.47
  -3  -7  11  754.23   20.81
  -3  -7 -11  797.69   27.80
   3   7 -11  762.01   25.40
  -3   7 -11  816.64   26.40
  -3   7  12  251.59   22.19
  -3   7 -12  243.55   10.82
  -3  -7 -12  252.03   14.14
   3   7  12  264.25   23.61
   3   7 -12  309.24   14.43
  -3   7 -12  287.39   13.36
  -3   7  13   51.12    7.56
  -3   7 -13   34.62    5.66
  -3  -7 -13   20.30    6.91
   3   7  13   65.37   10.71
   3   7 -13   46.85    8.82
  -3   7 -13   54.89    8.69
  -3   7  14   29.04    5.07
  -3   7 -14   36.78    7.55
  -3  -7 -14   27.88    9.25
   3   7  14   29.66    6.37
   3   7 -14   29.19    8.61
  -3   7 -14   30.08    7.49
  -3   7  15  274.93   16.32
  -3   7 -15  275.53   13.68
  -3  -7 -15  326.61   19.88
   3   7  15  272.95   24.13
   3   7 -15  305.36   16.87
  -3   7 -15  291.42   15.11
  -3   7  16    6.69    2.20
  -3  -7 -16    2.88    5.34
   3   7  16   18.91    4.75
   3   7 -16   28.10    8.16
  -3   7 -16   16.70    7.20
  -3   7 -17   76.91    8.98
  -3  -7 -17   71.05   11.98
   3   7  17   62.80   10.52
   3   7 -17   70.00    9.75
  -3   7 -17  105.14   14.32
  -3   7 -18   22.56    4.88
  -3  -7 -18    5.46    5.41
   3   7  18   14.50    5.87
   3   7 -18    7.25    4.63
  -3   7 -18   13.40    5.31
  -3   7 -19   78.77   10.49
  -3  -7 -19   76.08   12.62
   3   7  19   53.59   11.15
   3   7 -19   83.02   11.64
  -3   7 -19   95.78   14.71
  -3   7 -20   26.13    6.83
  -3  -7 -20   32.24    9.39
   3   7  20   17.96    7.80
   3   7 -20   22.52    6.81
  -3   7 -20   31.86    9.74
  -3  -7 -21   12.64    5.65
   3   7  21    8.86    4.27
   3   7 -21    7.11    6.25
  -3   7 -21   10.17    5.36
  -3  -8   0   85.93    6.34
  -3   8   0   64.14    5.52
   3   8   0   87.78    7.57
  -3   8   0   75.75    3.96
  -3   8   1   16.71    5.40
  -3   8  -1   18.05    5.52
  -3  -8   1   21.76    5.38
  -3  -8  -1   33.36    6.00
  -3   8  -1   13.65    1.75
  -3   8   1    8.77    1.40
   3   8   1   11.82    2.79
   3   8  -1    8.22    4.23
  -3   8   1    9.08    2.14
  -3   8  -1   18.44    2.79
  -3   8   2   20.71    5.55
  -3   8  -2    8.91    3.81
  -3  -8  -2   18.14    4.72
  -3  -8   2    8.95    4.80
  -3   8  -2    7.23    1.08
  -3   8   2    7.04    0.96
   3   8   2   11.56    4.18
  -3   8   2   10.12    0.93
   3   8  -2   27.08    5.16
  -3   8  -2   16.40    4.85
  -3   8   3    2.18    3.69
  -3   8  -3   -0.07    3.73
  -3  -8   3   13.55    5.70
  -3  -8  -3    5.03    6.17
  -3   8  -3    4.51    1.55
   3   8   3    6.41    5.91
   3   8  -3    8.90    7.29
  -3   8  -3    8.95    3.89
  -3   8   4  424.90   15.68
  -3   8  -4  412.53   16.97
  -3  -8   4  440.16   16.13
  -3  -8  -4  423.73   17.55
   3   8   4  400.94   15.20
   3   8  -4  435.25   17.18
  -3   8  -4  410.33   14.89
  -3   8   5  207.16    8.93
  -3   8  -5  197.50    9.55
  -3  -8  -5  225.04   12.89
  -3  -8   5  214.31    9.21
   3   8   5  207.11    9.84
   3   8  -5  222.84   11.74
  -3   8  -5  214.01   10.00
  -3   8   6  156.55   13.12
  -3   8  -6  186.32   10.90
  -3  -8   6  153.48   12.96
  -3  -8  -6  171.31   10.15
   3   8   6  158.70   13.51
   3   8  -6  166.97   14.17
  -3   8  -6  172.28   10.10
  -3   8   7   13.08    4.64
  -3   8  -7   18.45    6.39
  -3  -8  -7   26.57    9.01
  -3  -8   7   13.49    5.79
   3   8   7   13.01    4.44
   3   8  -7   15.74    6.17
  -3   8  -7   16.60    4.29
  -3   8   8   60.61    7.31
  -3  -8   8   25.70    4.60
  -3   8  -8   54.82    8.08
  -3  -8   8   44.04    4.59
  -3  -8  -8   58.25    9.60
   3   8  -8   66.22    9.20
  -3   8  -8   53.42    7.76
  -3   8   9  174.37   15.54
  -3   8  -9  175.46   10.56
  -3  -8   9  184.73    7.97
  -3  -8  -9  209.79   12.79
   3   8  -9  209.20   11.53
  -3   8  -9  184.98   10.86
  -3   8  10  122.97   12.51
  -3   8 -10  100.18    8.43
  -3  -8  10  109.21    4.89
  -3  -8 -10   87.64   10.34
   3   8  10  120.25    9.38
   3   8 -10  121.66    9.80
  -3   8 -10  110.74    9.24
  -3   8  11   67.50    9.36
  -3   8 -11   75.90    7.01
  -3  -8  11   62.82    5.81
  -3  -8 -11   72.83   12.23
   3   8  11   71.71   10.79
   3   8 -11   64.81    8.07
  -3   8 -11   62.14    7.87
  -3   8  12   96.60   15.29
  -3   8 -12  114.42    8.40
  -3  -8 -12  109.49   10.50
   3   8  12  112.29   10.74
   3   8 -12  110.60    7.82
  -3   8 -12  117.62    9.91
  -3   8  13  118.26   12.37
  -3   8 -13  174.51    9.91
  -3  -8 -13  136.44   10.72
   3   8  13  164.59   13.44
   3   8 -13  165.85   11.50
  -3   8 -13  160.78    9.50
  -3   8  14    9.27    2.72
  -3   8 -14    2.02    3.18
  -3  -8 -14   14.27    6.23
   3   8  14   13.50    4.16
   3   8 -14   29.35    9.96
  -3   8 -14   11.34    8.98
  -3   8  15   18.37    4.99
  -3   8 -15   28.59    6.42
  -3  -8 -15   34.09   10.35
   3   8 -15   15.09    7.12
  -3   8 -15   27.25    8.29
  -3   8  16   18.54    5.15
  -3   8 -16   17.87    5.77
  -3  -8 -16   38.50    9.47
   3   8  16   28.95    6.64
   3   8 -16   31.64    8.29
  -3   8 -16   23.89    5.90
  -3   8 -17   73.57    8.60
  -3  -8 -17   58.16   10.47
   3   8  17   64.39    9.98
   3   8 -17   83.84   11.45
  -3   8 -17   96.81   12.81
  -3   8 -18   22.16    5.88
  -3  -8 -18   14.86    6.26
   3   8  18   13.22    5.36
   3   8 -18   20.27    7.92
  -3   8 -18   34.99    8.46
  -3   8 -19   82.48   11.18
  -3  -8 -19   85.33   14.00
   3   8  19   66.63   15.30
   3   8 -19  104.38   15.68
  -3   8 -19   95.16   14.98
  -3   8 -20    7.64    4.13
  -3  -8 -20   20.27    8.51
   3   8  20    9.70    5.04
   3   8 -20   12.29    5.44
  -3   8 -20   18.25    8.47
  -3   9   0    5.32    3.91
  -3  -9   0    3.82    4.83
  -3   9   0   -0.16    0.87
   3   9   0    3.46    4.36
  -3   9   0    0.72    1.71
  -3   9   1   66.81    7.24
  -3   9  -1   64.56    7.95
  -3  -9   1   63.23    7.03
  -3  -9  -1   54.28    8.28
  -3   9  -1   47.80    5.10
  -3   9   1   47.96    5.41
   3   9   1   44.41    6.81
   3   9  -1   53.66    6.76
  -3   9   1   59.61    5.33
  -3   9  -1   60.95    6.05
  -3   9   2   52.83    7.75
  -3   9  -2   23.79    4.49
  -3  -9   2   24.14    4.95
  -3  -9  -2   25.78    4.13
  -3   9  -2   19.07    2.42
  -3   9   2   24.99    3.12
   3   9   2   27.49    4.55
  -3   9   2   33.69    3.00
   3   9  -2   34.41    7.26
  -3   9  -2   27.58    4.02
  -3   9   3  160.90   14.62
  -3   9  -3  142.92   12.79
  -3  -9   3  143.46   12.82
  -3  -9  -3  140.20   14.24
   3   9   3  149.39   13.49
   3   9  -3  146.01   14.02
  -3   9  -3  144.60   12.91
  -3   9   4   34.33    6.06
  -3   9  -4   19.38    6.61
  -3  -9  -4   16.16    6.04
  -3  -9   4   36.56    6.08
   3   9   4   31.58    4.45
   3   9  -4   25.71    5.06
  -3   9  -4   28.44    5.16
  -3   9   5  468.00   15.18
  -3   9  -5  479.26   16.18
  -3  -9  -5  501.53   18.14
  -3  -9   5  453.21   13.79
   3   9   5  486.81   16.38
   3   9  -5  469.13   15.59
  -3   9  -5  475.23   15.16
  -3   9   6  358.59   12.14
  -3   9  -6  358.82   14.23
  -3  -9   6  372.28   11.66
   3   9  -6  364.49   14.43
  -3   9  -6  389.54   13.08
  -3   9   7  158.11   17.31
  -3   9  -7  156.90   11.41
  -3  -9   7  165.81   14.44
  -3  -9  -7  157.72   13.47
   3   9  -7  171.59   10.13
  -3   9  -7  167.88   15.54
  -3   9   8  237.91   20.22
  -3   9  -8  212.72   11.39
  -3  -9  -8  225.15   14.49
  -3  -9   8  211.27    9.20
   3   9   8  234.74   24.92
   3   9  -8  231.78   13.29
  -3   9  -8  229.50   11.38
  -3   9   9    6.18    2.15
  -3   9  -9    6.27    3.83
  -3  -9  -9    1.17    6.48
  -3  -9   9   11.64    4.06
   3   9   9   -0.56    4.23
   3   9  -9    4.88    5.40
  -3   9  -9   17.87    6.26
  -3   9  10  343.16   14.96
  -3   9 -10  357.60   13.40
  -3  -9  10  353.77   10.08
  -3  -9 -10  352.48   14.25
   3   9  10  348.78   26.46
   3   9 -10  325.22   12.88
  -3   9 -10  366.68   13.11
  -3   9  11   46.53    8.96
  -3   9 -11   54.26    8.06
  -3  -9 -11   31.95    7.94
   3   9  11   41.96    7.74
   3   9 -11   45.21    6.93
  -3   9 -11   58.07    9.34
  -3   9  12   60.30   10.08
  -3   9 -12   52.32    9.33
  -3  -9 -12   68.30    8.59
   3   9  12   44.01    8.73
   3   9 -12   44.50    8.40
  -3   9 -12   70.47    8.63
  -3   9  13   33.72    7.91
  -3   9 -13   33.18    6.07
  -3  -9 -13   30.79    7.06
   3   9  13   41.10    8.09
   3   9 -13   48.13    9.41
  -3   9 -13   36.14    7.38
  -3   9  14    0.95    1.59
  -3   9 -14    7.13    4.62
  -3  -9 -14   11.22    5.92
   3   9  14   12.13    6.08
   3   9 -14    7.16    4.97
  -3   9 -14   13.81    5.60
  -3   9  15   23.53    6.13
  -3   9 -15   34.25    7.72
  -3  -9 -15   34.51    9.89
   3   9  15   44.45   10.03
   3   9 -15   40.31    9.37
  -3   9 -15   43.42   11.95
  -3   9  16   87.77   13.09
  -3   9 -16  108.28   10.93
  -3  -9 -16  105.83   14.63
   3   9  16  105.92   18.21
   3   9 -16  132.33   12.72
  -3   9 -16  109.08   13.22
  -3   9  17   25.24    3.80
  -3   9 -17   18.24    4.52
  -3  -9 -17   20.81   10.15
   3   9  17   20.70    4.83
   3   9 -17   27.55    7.91
  -3   9 -17   35.49    7.69
  -3   9 -18  114.17   14.60
  -3  -9 -18  102.60   16.04
   3   9  18   90.89   17.01
   3   9 -18  111.57   15.10
  -3   9 -18  109.27   15.20
  -3   9 -19   27.89    6.80
  -3  -9 -19   11.95    6.01
   3   9  19   22.19    7.28
   3   9 -19   29.23    8.98
  -3   9 -19   18.82    6.92
  -3  -9 -20   32.25    8.76
   3   9  20   43.32    8.73
   3   9 -20   60.61   11.09
  -3   9 -20   65.05   11.37
  -3  10   0  283.70   11.50
  -3 -10   0  247.95   10.97
  -3  10   0  218.10   11.96
   3  10   0  283.76   11.35
  -3  10   0  296.32    9.36
  -3  10  -1   10.29    5.08
  -3 -10   1   13.56    6.98
  -3 -10  -1   22.78    7.59
  -3  10   1    7.57    1.47
  -3  10  -1    5.37    1.13
   3  10   1   16.63    6.33
   3  10  -1   11.86    4.52
  -3  10   1   12.04    2.71
  -3  10  -1   12.38    3.90
  -3  10   2  275.43   10.65
  -3  10  -2  266.50   11.47
  -3 -10   2  268.26   10.18
  -3 -10  -2  281.47   12.20
  -3  10   2  243.35    6.78
   3  10   2  270.12   10.53
  -3  10   2  271.74    7.48
   3  10  -2  255.01   10.75
  -3  10  -2  259.99    9.23
  -3  10   3   39.11    5.69
  -3  10  -3   35.89    5.88
  -3 -10  -3   32.91    6.64
  -3 -10   3   21.85    4.34
  -3  10   3   19.66    2.50
  -3  10   3   34.13    2.43
   3  10   3   33.02    4.52
   3  10  -3   35.28    6.55
  -3  10  -3   32.95    4.56
  -3  10   4  303.03   13.70
  -3  10  -4  327.70   15.07
  -3 -10  -4  302.32   13.75
  -3 -10   4  317.72   12.89
   3  10  -4  310.51   14.86
  -3  10  -4  306.70   13.18
  -3  10   5  220.98   10.96
  -3  10  -5  227.70   11.46
  -3 -10  -5  250.71   14.13
  -3 -10   5  244.67   11.26
   3  10  -5  230.77   11.46
  -3  10  -5  244.65   11.26
  -3  10   6  200.86   18.91
  -3  10  -6  216.01   11.88
  -3 -10   6  206.89    9.23
  -3 -10  -6  221.92   13.64
   3  10   6  182.17   10.51
   3  10  -6  217.52   12.80
  -3  10  -6  234.71   11.10
  -3  10   7   41.94    7.25
  -3  10  -7   55.19    8.23
  -3 -10  -7   37.85    7.19
  -3 -10   7   43.80    5.72
   3  10   7   34.64    5.62
   3  10  -7   59.05    7.17
  -3  10  -7   42.05    6.05
  -3  10   8   51.48    8.93
  -3  10  -8   41.81    6.52
  -3 -10   8   49.03    5.63
  -3 -10  -8   47.55    8.74
   3  10   8   63.54    8.92
   3  10  -8   32.81    8.65
  -3  10  -8   48.77    6.76
  -3  10   9   57.22    8.82
  -3  10  -9   52.69    7.25
  -3 -10   9   66.22    6.74
  -3 -10  -9   45.05    9.05
   3  10   9   81.20   12.24
   3  10  -9   69.96    8.74
  -3  10  -9   78.17    9.70
  -3  10  10   74.10    9.03
  -3  10 -10   63.76    9.63
  -3 -10  10   59.64    8.25
  -3 -10 -10   51.27   11.29
   3  10  10   67.66    8.38
   3  10 -10   70.63    6.62
  -3  10 -10   44.43    7.78
  -3  10  11   33.60    6.29
  -3  10 -11   33.36    6.31
  -3 -10 -11   38.37   10.10
   3  10  11   30.15    8.77
   3  10 -11   27.66    5.85
  -3  10 -11   26.58    7.26
  -3  10  12   39.06    7.31
  -3  10 -12   54.37    8.53
  -3 -10 -12   32.72    9.39
   3  10  12   31.02    7.01
   3  10 -12   35.13    9.03
  -3  10 -12   40.08    7.00
  -3  10  13   70.13   10.37
  -3  10 -13   88.34    7.58
  -3 -10 -13   81.44    8.92
   3  10  13   77.13    9.38
   3  10 -13   96.03    9.58
  -3  10 -13   70.84    7.82
  -3  10  14   52.49    8.48
  -3  10 -14   72.04    7.85
  -3 -10 -14   58.48    9.11
   3  10  14   57.75   13.98
   3  10 -14  108.40   12.06
  -3  10 -14   66.59    8.77
  -3  10  15   43.60    6.86
  -3  10 -15   46.02    6.70
  -3 -10 -15   62.08   11.91
   3  10  15   51.97    8.34
  -3  10 -15   58.85    8.09
  -3  10  16   10.60    3.58
  -3  10 -16   27.96    6.26
  -3 -10 -16   20.05    8.11
   3  10  16   23.32    5.89
   3  10 -16   28.54    7.56
  -3  10 -16   24.80    7.25
  -3  10  17   45.60    8.95
  -3  10 -17   75.36   10.41
  -3 -10 -17   58.11   10.72
   3  10  17   63.62    9.44
   3  10 -17   64.84   10.20
  -3  10 -17   72.18   12.22
  -3  10 -18   45.31    7.54
  -3 -10 -18   49.39   10.40
   3  10  18   17.12    5.40
   3  10 -18   14.32    6.09
  -3  10 -18   38.07   11.02
  -3  10 -19   25.12    5.15
  -3 -10 -19   10.72    5.77
   3  10  19   16.47    6.64
   3  10 -19   17.35    7.81
  -3  10 -19   15.36    6.48
  -3  11   0   22.63    4.45
  -3 -11   0   22.79    5.47
   3  11   0   27.46    4.79
  -3  11   0   27.35    3.01
  -3  11   1   24.07    3.84
  -3  11  -1   25.72    4.60
  -3 -11   1   37.61    5.01
  -3 -11  -1   23.81    5.63
   3  11   1   26.06    4.37
   3  11  -1   28.90    5.31
  -3  11   1   35.15    3.37
  -3  11  -1   36.58    4.03
  -3  11   2  259.18   11.45
  -3  11  -2  277.87   13.70
  -3 -11   2  239.43   10.71
  -3 -11  -2  221.60   12.31
  -3  11   2  249.21    8.77
   3  11  -2  235.22   11.78
  -3  11  -2  251.37   10.42
  -3  11   3   34.39    6.01
  -3  11  -3   36.63    5.85
  -3 -11  -3   63.39   10.03
  -3 -11   3   45.94    7.27
  -3  11   3   43.68    3.87
   3  11  -3   38.83    5.97
  -3  11  -3   32.56    4.80
  -3  11   4   46.84    6.65
  -3  11  -4   57.35    7.37
  -3 -11   4   41.45    5.79
  -3 -11  -4   35.97    6.49
   3  11   4   38.99    5.97
   3  11  -4   56.42    8.50
  -3  11  -4   38.20    5.44
  -3  11   5   28.18    6.45
  -3  11  -5   19.18    4.31
  -3 -11  -5   19.29    8.23
  -3 -11   5   10.03    4.65
   3  11   5   14.76    6.47
   3  11  -5    8.71    5.33
  -3  11  -5   24.84    6.68
  -3  11   6   43.24    5.91
  -3  11  -6   39.71    6.95
  -3 -11  -6   21.87    6.07
  -3 -11   6   61.05    7.36
   3  11   6   65.72    8.45
   3  11  -6   40.73    6.66
  -3  11  -6   55.87    6.91
  -3  11   7   74.59   10.02
  -3  11  -7   47.97    6.18
  -3 -11   7   46.67    6.24
   3  11   7   59.49    9.40
   3  11  -7   53.54    9.11
  -3  11  -7   67.13    8.73
  -3  11   8    8.67    2.53
  -3  11  -8   14.26    4.63
  -3 -11  -8   22.51    9.24
  -3 -11   8   20.33    5.36
   3  11   8   22.11    7.18
   3  11  -8   20.80    8.69
  -3  11  -8   26.24    5.48
  -3  11   9   13.60    3.67
  -3  11  -9   18.08    6.94
  -3 -11  -9    8.28    8.64
  -3 -11   9    2.62    2.32
   3  11   9    9.20    4.88
   3  11  -9   14.68    6.36
  -3  11  -9   -0.58    4.11
  -3  11  10   -1.63    3.07
  -3  11 -10    8.01    3.97
  -3 -11  10    8.99    3.02
  -3 -11 -10   26.71    9.05
   3  11  10   21.42    6.60
   3  11 -10   11.65    7.80
  -3  11 -10   13.12    4.91
  -3  11  11   70.61    7.14
  -3  11 -11   70.98    6.19
  -3 -11 -11   76.58   10.11
   3  11  11   83.71    8.39
   3  11 -11   94.96    8.26
  -3  11 -11   71.86    9.24
  -3  11  12  185.20   18.72
  -3  11 -12  190.96   14.91
  -3 -11 -12  199.00   17.82
   3  11  12  165.92   22.62
   3  11 -12  198.56   15.86
  -3  11 -12  192.81   15.99
  -3  11  13   94.70   15.16
  -3  11 -13   86.43    9.58
  -3 -11 -13  113.13   11.77
   3  11  13  114.73   14.91
   3  11 -13   84.89    8.97
  -3  11 -13  101.86   12.05
  -3  11  14   91.53   13.48
  -3  11 -14  115.12   11.41
  -3 -11 -14  110.12   15.14
   3  11  14  119.60   18.22
   3  11 -14   81.55    9.36
  -3  11 -14  114.56   11.67
  -3  11  15  257.08   33.71
  -3  11 -15  302.25   21.20
  -3 -11 -15  304.19   24.29
   3  11  15  283.78   27.05
   3  11 -15  320.70   66.38
  -3  11 -15  341.50   71.28
  -3  11  16   63.78   11.15
  -3  11 -16   90.87   12.04
  -3 -11 -16   83.97   15.48
   3  11  16   68.97   13.32
   3  11 -16   84.41   12.26
  -3  11 -16  102.07   15.67
  -3  11  17   54.66   11.43
  -3  11 -17   75.15   10.88
  -3 -11 -17   75.28   14.09
   3  11  17   69.04   12.77
   3  11 -17   72.75   12.48
  -3  11 -17   87.30   14.14
  -3  11 -18  124.19   15.42
  -3 -11 -18  100.24   14.74
   3  11  18   93.28   15.10
   3  11 -18  114.78   15.45
  -3  11 -18  118.37   16.69
  -3  12   0    4.30    3.73
  -3 -12   0   23.25    6.89
  -3  12   0    6.88    2.51
  -3  12   1  447.55   14.80
  -3  12  -1  452.99   16.06
  -3 -12   1  420.27   14.96
  -3 -12  -1  415.64   14.55
   3  12  -1  457.82   16.55
  -3  12   1  442.86   11.95
  -3  12  -1  455.63   13.20
  -3  12   2   11.02    3.60
  -3  12  -2   16.05    5.70
  -3 -12   2   14.17    4.03
  -3 -12  -2    2.44    4.75
   3  12   2    7.02    4.45
  -3  12   2   10.53    2.23
   3  12  -2   15.09    7.87
  -3  12  -2    3.43    3.14
  -3  12   3  338.19   12.31
  -3  12  -3  342.82   14.06
  -3 -12  -3  304.05   12.22
  -3 -12   3  332.34   11.79
   3  12   3  321.51   12.86
   3  12  -3  324.59   12.91
  -3  12  -3  324.92   11.05
  -3  12   4   38.66    7.10
  -3  12  -4   35.98    5.71
  -3 -12  -4   34.90    8.36
  -3 -12   4   56.79    8.25
   3  12   4   39.58    6.13
   3  12  -4   51.69    8.76
  -3  12  -4   46.57    6.35
  -3  12   5  712.90   30.79
  -3  12  -5  736.81   91.65
  -3 -12  -5  720.37   22.19
  -3 -12   5  717.22   20.56
   3  12   5  754.14   93.83
   3  12  -5  732.24   91.35
  -3  12  -5  730.86   90.60
  -3  12   6  140.74   12.42
  -3  12  -6  142.72    8.30
  -3 -12  -6  144.37    9.12
  -3 -12   6  153.62    7.35
   3  12   6  132.70    8.37
   3  12  -6  152.73   11.13
  -3  12  -6  139.37    8.04
  -3  12   7   89.06    9.57
  -3  12  -7   73.40    6.49
  -3 -12   7   70.80    5.94
   3  12   7   72.37    8.38
   3  12  -7   74.06    7.16
  -3  12  -7   83.32    7.15
  -3  12   8  233.52   26.61
  -3  12  -8  272.46   14.87
  -3 -12  -8  241.38   14.49
  -3 -12   8  257.59   11.93
   3  12   8  274.51   14.41
   3  12  -8  258.55   13.94
  -3  12  -8  257.66   13.85
  -3  12   9   71.81    8.37
  -3  12  -9   49.49    5.28
  -3 -12  -9   73.99    9.60
  -3 -12   9   57.26    4.85
   3  12   9   60.70    8.18
   3  12  -9   51.60    6.59
  -3  12  -9   67.85    8.00
  -3  12  10  121.76   14.72
  -3  12 -10  124.24    7.84
  -3 -12 -10  138.51   11.00
   3  12  10  123.10   12.21
   3  12 -10  132.67    9.55
  -3  12  11  122.12   14.29
  -3  12 -11  135.49   11.35
  -3 -12 -11  147.33   13.56
   3  12  11  135.36   17.82
   3  12 -11  159.04   14.35
  -3  12 -11  133.06   11.52
  -3  12  12   34.47    7.61
  -3  12 -12   31.88    7.25
  -3 -12 -12   36.00   10.45
   3  12  12   39.05    7.12
   3  12 -12   33.81    8.77
  -3  12 -12   33.77    7.95
  -3  12  13   12.60    4.58
  -3  12 -13   19.81    4.58
  -3 -12 -13   19.20    9.04
   3  12  13   17.31    6.95
   3  12 -13   13.88    7.65
  -3  12 -13    3.20    4.66
  -3  12  14   90.65   16.22
  -3  12 -14  112.26   14.00
  -3 -12 -14  122.68   16.43
   3  12  14  113.28   16.14
   3  12 -14  135.25   17.78
  -3  12 -14  146.67   19.11
  -3  12  15    6.43    3.05
  -3  12 -15   11.45    4.66
  -3 -12 -15    5.77    5.66
   3  12  15    5.66    3.16
   3  12 -15   13.27    7.85
  -3  12 -15   13.34    7.80
  -3  12  16   10.48    3.42
  -3 -12 -16   22.25    7.65
   3  12  16   29.10    7.79
   3  12 -16   25.28    8.51
  -3  12 -16   24.55    7.90
  -3  12  17    2.67    1.62
  -3  12 -17   -0.12    2.50
  -3 -12 -17    7.60    8.48
   3  12  17    8.96    4.00
   3  12 -17    0.13    4.64
  -3  12 -17   14.25    6.06
  -3  13   0   36.55    7.79
  -3 -13   0   25.17    5.83
   3  13   0   29.78    5.97
  -3  13   0   30.72    4.71
  -3  13   1    9.77    3.83
  -3  13  -1    9.24    3.90
  -3 -13   1    9.48    4.37
  -3 -13  -1   13.68    4.91
   3  13   1   16.52    4.61
  -3  13   1    8.79    1.95
  -3  13  -1   12.60    2.95
  -3  13  -2   42.83    8.49
  -3 -13   2   41.91    8.12
  -3 -13  -2   17.72    4.37
   3  13   2   33.44    7.14
   3  13  -2   28.19    7.29
  -3  13  -2   27.36    4.64
  -3  13   3   26.54    5.35
  -3  13  -3   30.02    6.31
  -3 -13  -3   22.61    5.97
  -3 -13   3   24.47    6.08
   3  13   3   23.23    5.85
   3  13  -3   34.04    7.68
  -3  13  -3   26.06    4.85
  -3  13   4   93.73   11.40
  -3  13  -4  104.17    9.14
  -3 -13  -4   89.15    8.80
  -3 -13   4   93.08    7.41
   3  13   4   99.60    8.57
   3  13  -4   84.27    8.57
  -3  13  -4   89.82    6.85
  -3  13   5  113.16   15.31
  -3  13  -5  120.19    9.52
  -3 -13  -5  110.37   11.78
  -3 -13   5  119.64    7.92
   3  13   5  104.08    8.30
   3  13  -5  131.43   10.53
  -3  13  -5  109.37    7.36
  -3  13   6  209.24   24.97
  -3  13  -6  186.94   12.21
  -3 -13  -6  203.05   12.53
  -3 -13   6  206.91   10.77
   3  13   6  170.28   10.68
   3  13  -6  180.36   10.90
  -3  13  -6  168.22   10.15
  -3  13   7   62.22    6.94
  -3  13  -7   35.19    7.49
  -3 -13  -7   32.08    8.19
  -3 -13   7   37.77    7.22
   3  13   7   54.02    7.66
   3  13  -7   33.06    7.70
  -3  13  -7   55.44    6.64
  -3  13   8   83.60   12.41
  -3  13  -8   90.81    8.14
  -3 -13  -8  110.27    9.27
  -3 -13   8  101.67    6.25
   3  13   8   93.29    7.68
   3  13  -8  112.19    8.02
  -3  13  -8   87.75    7.30
  -3  13   9    8.30    3.43
  -3  13  -9   27.31    6.54
  -3 -13  -9    5.31    4.88
  -3 -13   9   10.97    3.74
   3  13  -9   18.74    6.24
  -3  13  -9    9.25    5.54
  -3  13  10   13.63    4.45
  -3  13 -10    6.03    3.74
  -3 -13 -10    5.53    5.85
   3  13  10    5.99    2.89
   3  13 -10    5.82    4.84
  -3  13 -10   11.80    6.00
  -3  13  11   18.09    5.40
  -3  13 -11    9.97    5.00
  -3 -13 -11   42.56    9.49
   3  13  11   34.36    9.44
   3  13 -11   15.82    7.83
  -3  13 -11   23.44    7.49
  -3  13  12   13.36    3.24
  -3  13 -12   10.48    2.63
  -3 -13 -12   23.47    8.74
   3  13  12   15.46    4.11
   3  13 -12   14.81    6.97
  -3  13 -12   21.64    6.39
  -3  13 -13   79.28   10.70
  -3 -13 -13   95.28   14.12
   3  13  13  100.19   14.69
   3  13 -13   82.11   10.68
  -3  13  14    7.71    4.34
  -3  13 -14   11.57    4.80
  -3 -13 -14   11.56    6.50
   3  13  14   13.22    5.01
   3  13 -14   16.65    7.85
  -3  13 -14   12.02    5.58
  -3  13  15   57.41   10.34
  -3  13 -15   63.11    9.40
  -3 -13 -15   54.23   10.83
   3  13  15   56.78   10.08
   3  13 -15   85.91   13.04
  -3  13 -15   74.29   11.76
  -3  13  16   11.45    3.47
  -3  13 -16   15.27    5.01
  -3 -13 -16   49.05   10.16
   3  13  16   45.55   10.70
   3  13 -16   25.36    8.06
  -3  13 -16   37.82    8.41
  -3  14   0   75.04    6.56
  -3 -14   0   96.96    8.33
   3  14   0   88.20    8.96
  -3  14   1   44.72    6.24
  -3  14  -1   65.48    7.24
  -3 -14   1   51.98    5.47
  -3 -14  -1   48.64    7.92
   3  14   1   39.41    8.32
   3  14  -1   50.16    5.88
  -3  14  -1   52.75    4.10
  -3  14   2   46.30    6.16
  -3  14  -2   46.01    6.23
  -3 -14   2   40.97    9.26
  -3 -14  -2   46.62    7.73
   3  14   2   28.78    6.89
   3  14  -2   54.15    6.11
  -3  14  -2   30.35    5.86
  -3  14   3   50.31    9.62
  -3  14  -3   52.29    7.26
  -3 -14   3   40.31    8.46
  -3 -14  -3   46.47    6.21
   3  14   3   69.45    6.64
  -3  14  -3   50.84    4.30
  -3  14   4    4.43    2.96
  -3  14  -4    4.20    3.80
  -3 -14   4   11.92    6.15
  -3 -14  -4   26.85    8.53
   3  14   4    9.13    4.75
   3  14  -4    7.92    6.11
  -3  14  -4   10.03    3.15
  -3  14   5  163.98   20.16
  -3  14  -5  137.40    8.50
  -3 -14  -5  165.57   10.76
  -3 -14   5  146.03    8.02
   3  14   5  141.62    9.17
   3  14  -5  158.51    9.22
  -3  14  -5  143.55    7.55
  -3  14   6   75.08   10.73
  -3  14  -6   83.44    8.52
  -3 -14  -6   64.22    9.55
  -3 -14   6   76.18    7.96
   3  14   6   64.34    7.35
   3  14  -6   65.05    7.54
  -3  14  -6   54.30    6.37
  -3  14   7  199.62   24.12
  -3  14  -7  186.44   15.18
  -3 -14  -7  211.33   19.05
  -3 -14   7  206.41   15.30
   3  14   7  217.86   17.08
   3  14  -7  189.40   14.90
  -3  14  -7  178.22   13.77
  -3  14   8   88.14   13.13
  -3  14  -8   82.45    9.15
  -3 -14   8   85.86    8.17
   3  14   8   94.72    9.99
   3  14  -8   63.68    7.74
  -3  14  -8   76.98    8.63
  -3  14   9   22.80    5.58
  -3  14  -9   29.99    7.14
  -3 -14  -9   21.99    8.64
   3  14   9   26.23    6.66
   3  14  -9   18.91    7.40
  -3  14  -9   23.71    5.66
  -3  14  10   64.60   10.88
  -3  14 -10   76.59    7.71
  -3 -14 -10   75.83    9.56
   3  14  10   74.53   10.94
   3  14 -10   81.69    9.10
  -3  14 -10   91.40    9.77
  -3  14  11    8.65    4.86
  -3  14 -11   14.68    5.40
  -3 -14 -11   16.86    6.95
   3  14  11    4.05    3.04
   3  14 -11   19.25    7.86
  -3  14 -11    6.36    4.15
  -3  14  12   16.65    5.27
  -3  14 -12   12.97    4.22
  -3 -14 -12   16.92    7.01
   3  14  12   17.98    5.44
   3  14 -12   16.34    6.27
  -3  14 -12    7.12    4.47
  -3  14  13   41.83   11.19
  -3  14 -13   40.84    9.37
  -3 -14 -13   29.80    9.53
   3  14  13   14.00    4.55
   3  14 -13   42.76   10.17
  -3  14 -13   32.72    9.26
  -3  14  14   35.55    7.14
  -3  14 -14   52.59    8.52
  -3 -14 -14   61.12   11.39
   3  14  14   44.30   11.20
   3  14 -14   65.43   11.59
  -3  14 -14   71.10   12.10
  -3  15   0    6.18    2.15
  -3 -15   0    7.39    4.73
   3  15   0    7.02    4.47
  -3  15   1   41.86    8.84
  -3  15  -1   45.69    6.81
  -3 -15   1   50.63    6.69
  -3 -15  -1   43.55    9.79
   3  15   1   55.01    7.71
   3  15  -1   55.74    7.05
  -3  15   2   60.63   10.65
  -3  15  -2   65.98    7.45
  -3 -15  -2   63.91    7.81
  -3 -15   2   40.18    8.08
   3  15   2   58.59    6.68
   3  15  -2   51.90    7.25
  -3  15   3    9.82    5.37
  -3  15  -3    9.73    3.80
  -3 -15  -3    3.76    4.78
  -3 -15   3    7.44    5.64
   3  15   3   10.52    4.39
   3  15  -3   13.92    5.52
  -3  15  -3    6.02    3.05
  -3  15   4   10.28    3.63
  -3  15  -4    7.16    3.98
  -3 -15  -4    8.98    5.03
  -3 -15   4    0.86    3.93
   3  15   4   20.76    6.88
   3  15  -4   10.25    4.98
  -3  15  -4   13.20    4.13
  -3  15   5   85.24   13.11
  -3  15  -5   97.85    9.47
  -3 -15  -5   83.37    9.62
  -3 -15   5  113.50   10.49
   3  15   5  119.87   12.64
  -3  15  -5   96.01    9.23
  -3  15   6   67.53   12.72
  -3  15  -6   69.19    8.36
  -3 -15  -6   79.41   10.25
  -3 -15   6   81.72    8.60
   3  15   6   83.15   10.17
  -3  15  -6   73.42    8.08
  -3  15   7   92.98   12.82
  -3  15  -7   82.34    8.29
  -3 -15  -7   84.19   11.26
  -3 -15   7  104.03    9.70
   3  15   7   90.42   10.16
   3  15  -7   87.03    9.97
  -3  15  -7   92.05    8.64
  -3  15   8   10.47    2.94
  -3  15  -8   21.01    4.17
  -3 -15  -8   12.80    5.32
  -3 -15   8   13.43    4.06
   3  15   8   20.04    5.63
   3  15  -8    6.49    6.06
  -3  15  -8    9.25    3.34
  -3  15   9   23.66    7.67
  -3  15  -9    7.55    3.61
  -3 -15  -9   29.05    9.88
   3  15   9   15.87    5.26
   3  15  -9   39.06    8.01
  -3  15  -9    8.25    3.71
  -3  15  10   17.56    5.39
  -3  15 -10   48.15    8.06
  -3 -15 -10   23.78    7.84
   3  15  10   22.85    7.22
   3  15 -10   43.10    8.58
  -3  15 -10   47.04    7.45
  -3  15  11   33.70    6.69
  -3  15 -11   28.93    7.07
  -3 -15 -11   42.82   11.68
   3  15  11   32.74    7.23
   3  15 -11   25.72    8.41
  -3  15 -11   12.67    4.83
  -3  15  12   75.50   13.20
  -3  15 -12   96.64   13.46
  -3 -15 -12  111.18   18.86
   3  15  12   73.66   15.13
   3  15 -12   92.02   13.55
  -3  15 -12   77.70   11.40
  -3  15  13   10.87    3.36
  -3  15 -13   23.64    4.92
  -3 -15 -13   26.13    8.32
   3  15  13   12.23    4.17
   3  15 -13   26.69    6.57
  -3  16   0  259.72   33.64
  -3 -16   0  233.29   17.93
   3  16   0  220.95   16.71
  -3  16  -1   15.94    6.52
  -3  16   1   22.71    5.75
  -3 -16  -1    4.07    5.85
  -3 -16   1   18.40    6.33
   3  16   1   23.67    6.22
   3  16  -1   20.97    5.30
  -3  16   2   53.77    8.29
  -3  16  -2   46.38    8.60
  -3 -16  -2   47.56    7.61
  -3 -16   2   72.30    9.19
   3  16   2   51.24    6.97
   3  16  -2   51.98    6.62
  -3  16  -3   11.89    5.10
  -3 -16  -3   15.87    5.36
  -3 -16   3   13.11    5.75
   3  16   3   33.15    8.72
   3  16  -3   26.36    6.00
  -3  16   4  130.48   21.74
  -3  16  -4  145.59   14.76
  -3 -16  -4  134.68   12.49
  -3 -16   4  146.53   12.03
   3  16   4  171.44   14.43
   3  16  -4  110.73   10.03
  -3  16   5   14.97    4.63
  -3  16  -5    5.92    3.41
  -3 -16  -5   16.68    7.72
  -3 -16   5    9.34    4.93
   3  16   5   15.94    6.41
   3  16  -5    2.16    4.38
  -3  16   6   85.49   13.07
  -3  16  -6   87.36   11.81
  -3 -16  -6   89.95   12.66
  -3 -16   6  109.59   13.53
   3  16   6   81.90   11.06
   3  16  -6   74.16   10.93
  -3  16  -6   93.22   11.36
  -3  16   7   30.60    6.33
  -3  16  -7   21.55    6.54
  -3 -16  -7   19.12    8.55
  -3 -16   7   11.63    4.84
   3  16   7   22.91    7.47
  -3  16  -7   21.67    5.99
  -3  16   8   48.18   10.13
  -3  16  -8   38.71    6.73
  -3 -16  -8   58.48   10.07
   3  16   8   79.12   11.79
  -3  16  -8   67.91   10.14
  -3  16   9   27.08    7.82
  -3  16  -9   41.82    9.79
  -3 -16  -9   18.60    6.87
   3  16   9   23.25    6.63
   3  16  -9   29.95    8.33
  -3  16  -9   35.19    8.04
  -3  16  10   20.43    5.54
  -3  16 -10   16.65    5.00
  -3 -16 -10   16.89    8.97
   3  16  10   14.03    4.95
   3  16 -10   15.06    6.19
  -3  16 -10   12.21    5.23
  -3  16  11   17.57    5.36
  -3  16 -11   15.46    5.40
  -3 -16 -11   35.53    9.08
   3  16  11   18.42    5.34
   3  16 -11   15.10    5.83
  -3  16 -11   15.21    5.51
  -3  17   0    9.45    4.58
  -3 -17   0    4.67    4.21
   3  17   0    8.52    5.82
  -3  17   1   13.11    5.44
  -3  17  -1   15.35    5.43
  -3 -17   1    7.73    5.99
  -3 -17  -1    7.93    4.57
   3  17   1    6.63    5.66
   3  17  -1    7.93    4.53
  -3  17   2   27.76    6.61
  -3  17  -2    8.74    3.94
  -3 -17  -2   30.44    7.61
  -3 -17   2   13.61    6.31
   3  17   2   18.76    6.25
   3  17  -2   29.45    7.16
  -3  17   3   56.69    9.50
  -3  17  -3   56.70   15.50
  -3 -17  -3   57.59   10.65
  -3 -17   3   46.44    8.34
   3  17   3   52.18    8.34
   3  17  -3   35.93    6.66
  -3  17   4   13.75    5.78
  -3  17  -4   13.06    4.49
  -3 -17  -4   11.35    5.05
  -3 -17   4    6.52    5.32
   3  17   4   11.37    4.57
   3  17  -4   18.03    6.06
  -3  17   5  165.23   29.40
  -3  17  -5  161.64   31.31
  -3 -17  -5  210.82   28.42
  -3 -17   5  206.82   26.88
   3  17   5  196.29   25.72
   3  17  -5  224.57   29.29
  -3  17   6   14.62    4.95
  -3  17  -6   30.71    8.72
  -3 -17  -6   15.86    6.24
  -3 -17   6   23.84    6.67
   3  17  -6   20.31    6.25
  -3  17   7   90.79   18.97
  -3  17  -7   87.43   17.29
  -3 -17  -7  103.97   15.87
  -3 -17   7   98.71   13.96
   3  17   7   85.81   12.63
   3  17  -7  101.92   14.28
  -3  17   8   98.72   19.52
  -3  17  -8   89.53   12.80
  -3 -17  -8  112.63   17.10
   3  17   8   96.04   13.00
   3  17  -8  108.52   16.03
  -3  18   0   18.56    6.29
  -3 -18   0    2.91    4.09
   3  18   0    6.90    3.92
  -3  18   1    7.42    3.03
  -3  18  -1   15.67    5.09
  -3 -18   1   14.10    6.34
  -3 -18  -1   12.24    6.35
   3  18   1   16.73    6.53
   3  18  -1    6.17    5.53
  -3  18   2    3.93    2.73
  -3  18  -2    5.27    3.78
  -3 -18   2   11.73    5.80
  -3 -18  -2    4.76    4.57
   3  18   2    8.00    4.17
   3  18  -2    6.48    4.23
  -3  18   3   10.33    4.66
  -3  18  -3    8.80    4.77
  -3 -18  -3   26.46    8.06
  -3 -18   3    3.05    3.69
   3  18   3   12.69    6.03
   3  18  -3    1.04    3.99
  -3  18   4   35.66    7.31
  -3  18  -4   29.48    7.08
  -3 -18  -4   40.52    8.32
  -3 -18   4   58.78   10.00
   3  18   4   45.62    8.03
   3  18  -4   52.53    8.87
  -3  18   5   28.53    5.80
  -3  18  -5   33.64    7.09
  -3 -18  -5   25.33    6.77
  -3 -18   5   10.72    3.83
   3  18   5   39.81    7.50
   3  18  -5   26.74    6.19
  -4   0   0 1292.18   39.38
   4   0   0 1229.70   37.17
  -4   0   1   60.66    5.57
  -4   0  -1   58.88    6.38
   4   0   1   71.36    6.69
   4   0  -1   55.61    4.18
  -4   0   2 1954.11   56.39
  -4   0  -2 1934.69   56.37
   4   0   2 1870.38   55.26
   4   0  -2 1923.94   54.73
  -4   0   2 1673.92   47.69
  -4   0   3  204.98    8.85
  -4   0  -3  187.43    9.85
   4   0   3  259.38   20.59
   4   0  -3  220.66    8.44
  -4   0   3  178.06    6.81
  -4   0   4  153.88    7.45
   4   0   4  207.19   16.51
   4   0  -4  162.26    6.56
  -4   0   4  160.34    6.89
  -4   0   5  296.41   11.32
  -4   0  -5  314.37   13.75
   4   0   5  349.98   21.87
   4   0  -5  285.17   10.38
  -4   0   5  268.90    9.70
  -4   0   6  225.93    9.26
  -4   0  -6  221.74   11.80
   4   0   6  265.43   14.19
   4   0  -6  248.53    9.64
  -4   0   6  213.24    8.62
  -4   0   7 1187.34   37.60
  -4   0  -7 1212.99   40.29
   4   0   7 1202.80   39.01
   4   0  -7 1181.83   37.48
  -4   0   8  130.45   10.81
  -4   0  -8  143.62   15.74
   4   0  -8  110.37    9.26
   4   0   8  150.78   21.70
   4   0  -8  139.86   11.80
  -4   0   9  810.24   20.86
  -4   0  -9  835.55   26.36
   4   0  -9  711.02   18.55
   4   0   9  829.08   23.38
   4   0  -9  818.11   21.96
  -4   0  10   29.53    3.13
  -4   0 -10   29.07    8.61
   4   0 -10   11.47    2.25
   4   0  10   26.68    4.70
   4   0 -10   23.21    3.69
  -4   0  11  349.05   12.02
  -4   0 -11  396.52   17.74
   4   0  11  407.07   28.67
   4   0 -11  364.33   13.87
  -4   0  12   78.49    8.05
  -4   0 -12  113.19   11.10
   4   0  12  128.48   11.75
   4   0 -12  120.12    6.92
  -4   0 -13    0.27    5.54
   4   0  13   10.10    2.77
   4   0 -13    3.22    4.30
  -4   0 -14  111.83   11.27
   4   0  14   85.77    9.67
   4   0 -14   83.92    6.20
  -4   0 -15   98.68    8.93
   4   0  15  110.59    8.31
   4   0 -15   94.31    7.00
  -4   0 -16   30.91    9.07
   4   0 -16    5.33    3.29
  -4   0 -16   25.54    8.51
  -4   0 -17   15.56    7.11
   4   0 -17    5.73    2.98
  -4   0 -17    7.25    5.40
  -4   0 -18   17.84    6.39
   4   0 -18    5.34    3.59
  -4   0 -18    5.09    4.91
  -4   0 -19   64.14   10.34
  -4   0 -19   53.29   10.71
  -4   0 -20   15.51    7.03
  -4   0 -21    8.82    4.38
  -4   0 -21    6.06    5.36
  -4   1   0  161.77    8.84
  -4  -1   0  150.87    8.06
   4  -1   0  174.05   10.66
   4   1   0  160.37    6.87
  -4   1   0  151.67    6.45
  -4   1   1    4.20    4.50
  -4   1  -1   22.29    6.60
  -4  -1   1   17.85    6.88
  -4  -1  -1   17.43    6.66
   4  -1   1    8.65    2.50
   4  -1  -1   13.87    3.32
   4   1   1    3.01    3.25
   4   1  -1    5.69    2.94
  -4   1   1    7.01    2.63
  -4   1   2  150.63    8.23
  -4   1  -2  153.16   10.16
  -4  -1   2  162.16    9.18
  -4  -1  -2  136.17    8.12
   4  -1   2  162.15   11.26
   4   1   2  162.60   16.61
   4  -1  -2  150.57    6.21
   4   1  -2  148.42    7.32
  -4   1   2  123.12    5.52
  -4   1   3  256.66   10.99
  -4   1  -3  253.99   12.70
  -4  -1   3  279.99   11.27
  -4  -1  -3  266.62   13.49
   4  -1   3  317.86   23.52
   4   1   3  273.18   17.88
   4  -1  -3  266.50    9.42
   4   1  -3  267.30   10.55
  -4   1   3  248.33    9.23
  -4   1   4  242.53   10.21
  -4  -1   4  247.33   10.32
  -4  -1  -4  242.92   11.67
   4  -1   4  279.99   21.36
   4   1   4  277.58   20.74
   4  -1  -4  231.74    8.54
   4   1  -4  222.99    8.68
  -4   1   4  243.17    9.08
  -4   1   5  212.94    9.69
  -4   1  -5  225.94   11.25
  -4  -1  -5  228.52   13.29
   4  -1   5  260.70   18.37
   4   1   5  255.14   16.09
   4  -1  -5  213.82    7.93
   4   1  -5  224.01    9.08
  -4   1   5  216.87    8.36
  -4   1   6  109.13    6.57
  -4  -1   6   96.65    5.69
  -4   1  -6   94.56    7.99
  -4  -1  -6  108.09    8.40
   4  -1   6  116.39   11.40
   4   1   6  115.30    8.67
   4  -1  -6  100.07    5.00
   4   1  -6  102.58    5.63
  -4   1   6   93.60    5.17
  -4   1   7  232.12    9.51
  -4  -1   7  239.43    9.98
  -4   1  -7  238.00   14.69
  -4  -1  -7  206.01   12.21
   4   1  -7  194.58    7.73
   4  -1   7  254.03   21.55
   4   1   7  241.78   17.06
   4  -1  -7  208.61    8.03
   4   1  -7  211.96    9.18
  -4   1   7  204.42    7.99
  -4   1   8  526.82   17.66
  -4  -1   8  557.50   18.55
  -4   1  -8  544.99   21.14
  -4  -1  -8  523.07   21.82
   4   1  -8  489.20   16.22
   4  -1   8  548.75   19.86
   4   1   8  598.64   26.66
   4  -1  -8  544.55   18.18
   4   1  -8  524.13   18.31
  -4   1   9   34.88    3.80
  -4  -1   9   33.12    3.68
  -4   1  -9   46.96    9.42
  -4  -1  -9   43.66    9.18
   4   1  -9   22.87    2.65
   4  -1   9   28.65    5.30
   4   1   9   45.01    6.43
   4  -1  -9   41.02    4.50
   4   1  -9   35.27    5.09
  -4   1  10  150.82    9.27
  -4  -1  10  152.84    9.00
  -4   1 -10  123.97   12.21
  -4  -1 -10  141.22   14.50
   4  -1 -10  126.79    7.81
   4   1 -10  139.81    8.33
   4  -1  10  150.97   21.11
   4   1  10  166.04   19.38
   4  -1 -10  153.23   10.05
   4   1 -10  145.29    9.93
  -4   1  11  241.26    8.78
  -4  -1  11  237.59    8.43
  -4   1 -11  272.14   13.57
  -4  -1 -11  275.00   16.91
   4  -1  11  276.29   20.48
   4   1  11  263.24   21.71
   4  -1 -11  257.13   10.28
   4   1 -11  208.86    9.32
  -4   1  12  248.07   11.01
  -4   1 -12  266.37   12.88
  -4  -1 -12  266.48   13.06
   4  -1  12  272.15   31.71
   4   1  12  291.80   16.64
   4   1 -12  271.63   10.19
   4  -1 -12  295.76   10.22
  -4   1 -13  243.96   11.73
  -4  -1 -13  232.09   11.82
   4  -1  13  244.69   10.90
   4   1  13  272.79   18.80
   4   1 -13  245.94    9.98
   4  -1 -13  226.77    8.30
  -4   1 -14    6.07    5.20
  -4  -1 -14   12.15    8.74
   4   1  14   -1.19    4.12
   4  -1 -14   14.71    4.99
   4   1 -14   15.09    5.24
  -4   1 -14   -0.54    4.86
  -4   1 -15  144.19   10.91
  -4  -1 -15  155.15   10.94
   4   1  15  156.46   21.42
   4   1 -15  180.29   10.96
   4  -1 -15  160.38    9.38
  -4   1 -15  172.80   14.15
  -4   1 -16   91.14   10.48
  -4  -1 -16   87.92    8.46
   4   1  16   77.84    9.58
   4  -1 -16   87.36    6.17
   4   1 -16   79.29    6.61
  -4   1 -16   74.20    8.07
  -4   1 -17  169.59   15.37
  -4  -1 -17  153.53   15.66
   4  -1 -17  128.83   11.20
   4   1 -17  154.05   13.85
  -4   1 -17  146.31   15.03
  -4   1 -18  112.56   10.63
  -4  -1 -18  161.41   16.10
   4   1 -18  141.33   11.51
  -4   1 -18  160.08   14.96
  -4   1 -19   21.17    8.03
  -4  -1 -19   47.00    9.45
   4   1 -19   33.36    6.73
  -4   1 -19   22.61    7.92
  -4  -1 -19   36.79    8.24
  -4   1 -20   12.69    5.15
  -4  -1 -20   18.25    7.69
  -4   1 -20   20.66    9.29
  -4  -1 -20   36.24   10.31
  -4   1 -21   17.75    7.68
  -4  -1 -21   23.14    7.03
  -4   1 -21    6.84    4.93
  -4  -1 -21   14.15    5.91
  -4   2   0  274.22   10.70
  -4  -2   0  291.95   12.67
   4  -2   0  292.71   18.46
   4   2   0  283.57   10.47
  -4   2   0  270.69    9.14
  -4   2   1  147.17    8.63
  -4   2  -1  128.19    8.52
  -4  -2   1  123.42    7.22
  -4  -2  -1  146.51   10.66
   4  -2   1  141.88   10.21
   4  -2  -1  137.16    8.72
   4   2   1  131.22    6.78
   4   2  -1  127.97    7.04
  -4   2  -1  108.49    4.53
  -4   2   1  114.73    4.66
  -4   2   2  207.94    9.76
  -4   2  -2  227.04   11.33
  -4  -2   2  222.56    9.71
  -4  -2  -2  233.44   10.80
   4  -2   2  231.38   12.13
   4  -2  -2  231.56   14.97
   4   2   2  217.45    9.32
   4   2  -2  218.13    9.02
  -4   2   2  217.56    7.86
  -4   2   3  385.99   14.16
  -4   2  -3  388.90   15.66
  -4  -2   3  377.53   14.13
  -4  -2  -3  386.54   16.33
   4  -2   3  394.26   13.68
   4  -2  -3  398.61   16.81
   4   2   3  377.91   16.85
   4   2  -3  390.95   13.91
  -4   2   3  380.78   12.56
  -4   2   4  480.30   16.91
  -4   2  -4  495.55   19.09
  -4  -2   4  479.95   17.33
  -4  -2  -4  493.96   18.66
   4  -2   4  483.25   16.69
   4   2   4  498.17   22.96
   4  -2  -4  479.97   15.39
   4   2  -4  480.08   17.42
  -4   2   4  452.24   14.62
  -4   2   5  373.54   13.59
  -4   2  -5  365.25   16.22
   4  -2   5  378.64   18.78
   4   2   5  369.26   23.50
   4  -2  -5  337.66   11.11
   4   2  -5  390.82   14.25
  -4   2   5  358.21   11.90
  -4   2   6  260.00   11.02
  -4  -2   6  271.59   10.73
  -4   2  -6  256.06   12.05
  -4  -2  -6  272.02   12.68
   4  -2   6  292.25   23.71
   4   2   6  289.00   18.72
   4  -2  -6  268.71    9.16
   4   2  -6  285.87   11.40
  -4   2   6  264.25    9.46
  -4   2   7  969.85   31.28
  -4  -2   7 1014.45   32.57
  -4   2  -7  987.05   33.72
  -4  -2  -7 1020.41   35.31
   4  -2   7  985.81   36.97
   4   2   7 1041.48   35.97
   4  -2  -7  957.40   29.99
   4   2  -7  975.82   31.68
  -4   2   7  935.97   29.31
  -4   2   8  310.10    9.95
  -4  -2   8  309.44    9.23
  -4   2  -8  348.03   13.98
  -4  -2  -8  320.63   15.12
   4   2  -8  297.86    8.83
   4  -2   8  350.31   27.29
   4   2   8  340.71   19.55
   4  -2  -8  315.70    9.44
   4   2  -8  318.05   11.05
  -4   2   8  307.45    8.81
  -4   2   9   96.16    7.77
  -4  -2   9   91.97    6.91
  -4   2  -9   87.14    9.44
  -4  -2  -9  125.91   13.54
   4   2  -9   68.75    5.08
   4  -2   9   89.70   10.88
   4   2   9  109.92   14.41
   4  -2  -9   80.33    5.99
   4   2  -9   96.76    8.01
  -4   2   9   69.58    5.28
  -4   2  10  162.98    9.85
  -4  -2  10  160.41    9.43
  -4   2 -10  163.63   16.27
  -4  -2 -10  150.09   15.16
   4  -2  10  171.94   22.77
   4   2  10  162.76   15.85
   4  -2 -10  152.26    9.53
   4   2 -10  144.50    9.87
  -4   2  10  128.35    7.75
  -4   2  11   12.32    2.12
  -4  -2  11   19.34    2.26
  -4   2 -11    9.20    5.68
  -4  -2 -11    3.74    7.06
   4   2  11   18.58    4.86
   4  -2 -11   17.25    2.99
   4   2 -11   20.18    4.03
  -4   2  12    4.02    1.36
  -4   2 -12    4.44    5.22
  -4  -2 -12   14.14    8.68
   4   2  12   14.45    5.35
   4   2 -12   13.70    3.76
   4  -2 -12    4.13    2.83
  -4   2 -12   16.33    6.87
  -4   2 -13  172.22   13.14
  -4  -2 -13  165.39   13.22
   4   2  13  162.25   15.43
   4   2 -13  170.07    8.31
   4  -2 -13  166.64    6.99
  -4   2 -13  159.16    9.07
  -4   2 -14  103.81    9.46
  -4  -2 -14  114.76   10.16
   4   2  14   95.58   12.22
   4  -2 -14   95.10    5.77
   4   2 -14   98.31    7.36
  -4   2 -14   99.13    9.77
  -4   2 -15   73.81   10.55
  -4  -2 -15   64.44   10.00
   4   2  15   47.98    7.42
   4  -2 -15   68.53    5.43
   4   2 -15   78.01    7.21
  -4   2 -15   76.87   10.30
  -4   2 -16   80.03   10.12
  -4  -2 -16   64.53   10.51
   4   2  16   58.78   11.19
   4   2 -16   84.34    8.82
  -4   2 -16   67.31    9.85
  -4   2 -17   77.28   10.05
  -4  -2 -17   77.94   10.43
   4   2  17   75.92   13.81
   4   2 -17   81.22    8.78
  -4   2 -17   87.92   11.26
  -4   2 -18  210.47   17.23
  -4  -2 -18  208.08   17.24
   4   2 -18  183.67   14.64
  -4   2 -18  230.94   19.51
  -4   2 -19   57.29    9.77
  -4  -2 -19   49.61    9.18
   4   2 -19   43.25    7.28
  -4   2 -19   52.95    9.82
  -4  -2 -19   44.22    7.39
  -4   2 -20   21.36    6.99
  -4  -2 -20   28.59    8.73
   4   2 -20   23.22    6.60
  -4   2 -20   22.60    7.98
  -4  -2 -20   25.28    7.26
  -4   2 -21   34.69    7.52
  -4  -2 -21   29.98    8.07
   4   2 -21   35.40    7.20
  -4   2 -21   30.43    8.42
  -4  -2 -21   41.96   11.47
  -4   3   0   41.91    4.83
  -4  -3   0   45.24    6.85
   4  -3   0   45.93    4.55
   4   3   0   38.38    5.21
  -4   3   0   37.10    2.84
  -4   3   1   18.47    4.15
  -4   3  -1    8.72    4.96
  -4  -3   1   -2.49    5.07
  -4  -3  -1    9.88    5.34
   4  -3   1   21.22    3.26
   4  -3  -1   15.23    1.95
   4   3   1   13.30    3.76
   4   3  -1   16.92    3.79
  -4   3  -1   16.75    2.53
  -4   3   1   16.73    2.65
  -4   3   2  174.98    9.81
  -4   3  -2  170.95    9.63
  -4  -3   2  170.16    9.05
  -4  -3  -2  162.18    9.00
   4  -3   2  175.94   14.69
   4  -3  -2  173.90   10.90
   4   3   2  196.93    8.70
  -4   3  -2  151.94    5.95
   4   3  -2  159.96    8.12
  -4   3   2  174.08    6.59
  -4   3   3  140.32    8.23
  -4  -3   3  146.73    8.11
  -4  -3  -3  144.80   10.24
   4  -3   3  184.80   16.65
   4  -3  -3  149.48   10.29
   4   3   3  142.92    7.26
   4   3  -3  158.12    8.47
  -4   3   3  143.67    5.69
  -4   3   4  414.38   15.65
  -4   3  -4  372.22   15.17
  -4  -3   4  391.67   14.90
  -4  -3  -4  399.23   17.00
   4  -3   4  413.56   18.14
   4  -3  -4  397.31   12.64
   4   3   4  424.01   29.72
   4   3  -4  394.43   14.14
  -4   3   4  400.52   12.80
  -4   3   5   96.69    6.19
  -4   3  -5   89.53    7.21
  -4  -3   5   96.42    5.66
  -4  -3  -5   90.65    9.85
   4  -3   5   94.50   10.62
   4   3   5  109.42   11.22
   4  -3  -5   75.35    6.38
   4   3  -5   91.27    8.28
  -4   3   5   77.36    3.44
  -4   3   6  452.69   15.99
  -4   3  -6  455.43   17.58
  -4  -3   6  444.41   15.59
  -4  -3  -6  470.33   19.90
   4  -3   6  503.28   17.64
   4   3   6  484.13   29.27
   4  -3  -6  437.82   13.91
   4   3  -6  470.75   17.39
  -4   3   6  422.70   13.56
  -4   3   7  191.22    8.94
  -4   3  -7  177.50   12.08
  -4  -3   7  197.31    9.04
  -4  -3  -7  189.00   10.38
   4   3  -7  161.00   12.67
   4  -3   7  198.21   15.03
   4   3   7  218.24   16.65
   4  -3  -7  179.97    6.29
   4   3  -7  179.99    8.96
  -4   3   7  175.38    6.13
  -4   3   8  261.38    8.94
  -4  -3   8  291.64    9.19
  -4   3  -8  297.64   13.48
  -4  -3  -8  274.91   12.52
   4   3  -8  244.89    7.34
   4   3   8  307.05   23.91
   4  -3  -8  274.83    7.68
   4   3  -8  265.58    9.46
  -4   3   8  253.25    6.96
  -4   3   9  162.69    6.92
  -4  -3   9  152.91    9.21
  -4   3  -9  116.67   11.69
  -4  -3  -9  150.72   16.29
   4   3   9  166.37   15.61
   4  -3  -9  151.31    8.91
   4   3  -9  135.73   10.60
  -4   3  -9  151.97   10.90
  -4   3  10   88.61    6.06
  -4  -3  10   97.32    6.24
  -4   3 -10   85.33    8.93
  -4  -3 -10  125.75   14.52
   4   3  10  114.56   15.81
   4  -3 -10  102.15    6.46
   4   3 -10   92.51    8.32
  -4   3 -10  118.29   10.52
  -4   3  11  196.84    7.39
  -4  -3  11  181.22    5.47
  -4   3 -11  198.55   11.81
  -4  -3 -11  214.36   16.06
   4   3  11  190.69   15.19
   4  -3 -11  192.32    6.74
   4   3 -11  176.94    9.56
  -4   3 -11  198.72   10.92
  -4   3  12  132.10   12.84
  -4   3 -12  158.76    9.41
  -4  -3 -12  144.45    9.72
   4   3  12  180.91   15.01
   4  -3 -12  164.35    5.99
   4   3 -12  154.64    7.56
  -4   3 -12  167.73    8.71
  -4   3  13   40.44    7.19
  -4   3 -13   45.35    8.87
  -4  -3 -13   62.38   11.99
   4   3  13   63.79   10.94
   4  -3 -13   50.40    7.25
   4   3 -13   61.77    8.55
  -4   3 -13   51.25    9.36
  -4   3 -14   47.72    9.23
  -4  -3 -14   22.15    7.00
   4   3  14   41.76    7.60
   4   3 -14   45.61    6.94
  -4   3 -14   36.27    7.95
  -4   3 -15   47.64    6.85
  -4  -3 -15   73.15   11.13
   4   3  15   65.00    9.43
   4   3 -15   68.84    6.68
  -4   3 -15   63.93    7.47
  -4   3 -16   24.56    5.65
  -4  -3 -16   74.00   12.11
   4   3  16   47.08    9.59
   4   3 -16   53.40    7.28
  -4   3 -16   63.53    9.76
  -4   3 -17   76.90    9.40
  -4  -3 -17   51.24    7.89
   4   3  17   75.82   12.09
   4   3 -17   61.20    8.10
  -4   3 -17   65.44    8.36
  -4   3 -18   13.08    4.43
  -4  -3 -18   27.93    8.30
   4   3  18    6.66    3.78
  -4   3 -18   30.45    7.75
  -4   3 -19   73.62   11.67
  -4  -3 -19   74.34   13.17
   4   3  19   48.08    8.04
   4   3 -19   48.75    7.97
  -4   3 -19   43.30    7.54
  -4   3 -20   14.29    5.17
  -4  -3 -20   28.47    8.82
   4   3 -20   29.72    7.93
  -4   3 -20   24.72    8.10
  -4  -3 -20   28.27    9.45
  -4   3 -21   28.33    6.01
  -4  -3 -21   34.03    7.95
   4   3 -21   46.94    8.26
  -4   3 -21   44.01    8.56
  -4   4   0  651.96   22.62
  -4  -4   0  727.17   25.50
   4  -4   0  671.84   21.42
   4   4   0  713.47   23.87
  -4   4   0  635.80   19.95
  -4   4   1  219.20    9.58
  -4   4  -1  238.86   10.88
  -4  -4  -1  252.57   11.95
  -4  -4   1  243.88   11.08
   4  -4   1  226.34    9.59
   4  -4  -1  226.71    7.74
   4   4   1  250.30   10.83
  -4   4  -1  219.04    7.90
   4   4  -1  260.42   11.22
  -4   4   1  228.89    7.99
  -4   4   2  623.27   21.26
  -4   4  -2  655.12   23.20
  -4  -4   2  661.59   22.46
  -4  -4  -2  652.48   22.99
   4  -4   2  631.24   20.72
   4  -4  -2  617.88   19.11
   4   4   2  691.47   23.80
   4   4  -2  683.67   23.23
  -4   4   2  636.23   19.65
  -4   4   3  380.18   14.14
  -4  -4   3  353.70   13.39
  -4  -4  -3  361.81   16.19
   4  -4  -3  348.63   10.93
   4   4   3  368.74   13.98
   4   4  -3  336.97   13.04
  -4   4   3  357.66   11.32
  -4   4   4   57.91    6.96
  -4   4  -4   59.59    8.55
  -4  -4   4   54.97    6.66
  -4  -4  -4   43.11    8.49
   4  -4  -4   43.13    3.86
   4   4   4   57.54    7.18
   4   4  -4   50.76    5.65
  -4   4   4   54.40    4.45
  -4   4   5  357.46   13.74
  -4   4  -5  276.93   12.19
  -4  -4   5  314.96   12.30
  -4  -4  -5  317.69   15.37
   4   4   5  344.79   24.95
   4   4  -5  347.98   13.74
  -4   4  -5  339.71   12.83
  -4   4   6  115.27   10.51
  -4   4  -6  108.28   11.88
  -4  -4   6   98.28    9.17
   4   4   6   92.33   14.83
   4   4  -6   91.15    9.32
  -4   4  -6   95.11    9.41
  -4   4   7  187.61    8.57
  -4   4  -7  202.43   10.95
  -4  -4   7  178.62    7.01
  -4  -4  -7  200.67   11.91
   4   4  -7  166.42    5.74
   4   4   7  226.79   22.71
   4   4  -7  177.56    7.87
  -4   4  -7  185.53    8.85
  -4   4   8  260.00    9.60
  -4   4  -8  240.54   11.12
  -4  -4   8  239.35    7.93
  -4  -4  -8  225.42   14.13
   4   4   8  274.20   19.44
   4   4  -8  246.84   10.05
  -4   4  -8  259.02   12.15
  -4  -4   9    5.88    1.63
  -4   4   9   15.94    3.99
  -4  -4   9   14.72    3.43
  -4   4  -9   26.87    8.45
  -4  -4  -9   36.62   10.12
   4  -4  -9    6.50    0.81
   4   4   9   14.86    4.50
   4  -4  -9    6.03    0.83
   4   4  -9   14.75    5.86
  -4   4  -9   21.53    6.61
  -4   4  10  267.98    9.58
  -4  -4  10  272.05    8.47
  -4   4 -10  270.01   12.40
  -4  -4 -10  281.30   15.83
   4   4  10  303.59   34.37
   4  -4 -10  256.47    7.57
   4   4 -10  280.36   12.09
  -4   4 -10  297.87   13.30
  -4   4  11  177.84   11.37
  -4   4 -11  199.28   10.97
  -4  -4 -11  194.64   13.90
   4   4  11  215.18   14.89
   4  -4 -11  195.23    6.32
   4   4 -11  192.74    9.44
  -4   4 -11  195.85   11.04
  -4   4  12   56.73    6.86
  -4   4 -12   44.80    7.21
  -4  -4 -12   30.58    7.25
   4   4  12   47.46    7.91
   4   4 -12   71.65    9.13
  -4   4 -12   66.78    9.82
  -4   4  13   16.35    3.43
  -4   4 -13   10.70    6.67
  -4  -4 -13   18.95   10.38
   4   4  13    9.99    3.37
   4   4 -13    6.33    3.65
  -4   4 -13   16.18    5.16
  -4   4  14   62.77    9.03
  -4   4 -14  119.19   11.61
  -4  -4 -14   98.04   12.76
   4   4  14   78.94   13.41
   4   4 -14   87.22    8.39
  -4   4 -14   71.47    9.41
  -4   4 -15   75.44    7.96
  -4  -4 -15   83.73   10.82
   4   4  15   84.83   11.38
   4   4 -15   85.53    7.75
  -4   4 -15   55.95    7.01
  -4   4 -16   16.16    6.47
  -4  -4 -16   32.46    9.38
   4   4  16   27.22    6.23
   4   4 -16   17.70    5.92
  -4   4 -16   25.67    7.97
  -4   4 -17   67.59    9.34
  -4  -4 -17   59.07    9.48
   4   4  17   43.95   10.09
   4   4 -17   42.12    7.71
  -4   4 -17   83.35   12.56
  -4   4 -18   40.94    8.40
  -4  -4 -18   27.82    9.85
   4   4  18   49.75    9.84
   4   4 -18   50.37    7.94
  -4   4 -18   33.40    7.76
  -4   4 -19   11.60    4.58
  -4  -4 -19   18.08    6.95
   4   4  19   39.80    8.44
   4   4 -19   28.09    5.84
  -4   4 -19   29.39    9.38
  -4   4 -20   70.76   11.18
  -4  -4 -20   68.29   13.05
   4   4 -20   63.06   10.33
  -4   4 -20   58.40   10.50
  -4   5   0  880.92   29.34
  -4  -5   0  934.79   31.02
   4   5   0  951.99   31.03
  -4   5   0  867.15   26.68
  -4   5   0  882.88   27.18
  -4   5   1  336.12   13.52
  -4   5  -1  315.12   13.01
  -4  -5   1  331.93   13.76
  -4  -5  -1  347.79   15.91
   4   5   1  337.24   13.20
  -4   5  -1  310.82   10.71
   4   5  -1  313.59   12.96
  -4   5   1  312.20   10.32
  -4   5   1  315.54   10.39
  -4   5  -1  332.31   11.47
  -4   5   2  601.02   20.99
  -4   5  -2  602.08   22.16
  -4  -5   2  583.10   20.55
  -4  -5  -2  639.96   23.00
  -4   5  -2  551.31   17.87
   4   5   2  568.09   20.31
   4   5  -2  585.57   20.82
  -4   5   2  607.78   18.96
  -4   5   2  591.87   18.47
  -4   5  -2  563.50   18.58
  -4   5   3  838.02   28.04
  -4   5  -3  845.91   28.73
  -4  -5   3  810.90   27.21
  -4  -5  -3  866.63   30.02
   4   5   3  859.49   29.14
   4   5  -3  827.10   27.72
  -4   5  -3  823.19   26.72
  -4   5   4  300.55   12.58
  -4   5  -4  293.33   12.91
  -4  -5   4  303.16   12.63
  -4  -5  -4  304.62   16.25
   4   5   4  282.75   13.44
   4   5  -4  300.27   12.28
  -4   5  -4  309.53   11.53
  -4   5   5  327.64   12.67
  -4   5  -5  323.11   14.50
  -4  -5   5  312.46   11.96
  -4  -5  -5  341.78   16.55
   4   5   5  331.68   27.82
   4   5  -5  326.92   13.36
  -4   5  -5  322.36   12.38
  -4   5   6  278.01   10.22
  -4   5  -6  303.40   14.62
  -4  -5   6  286.40    9.99
   4   5   6  314.09   22.22
   4   5  -6  289.23   11.48
  -4   5  -6  271.25   10.39
  -4   5   7  404.62   12.68
  -4   5  -7  424.35   16.54
  -4  -5   7  387.65   11.87
  -4  -5  -7  463.45   17.13
   4   5   7  427.70   24.66
   4   5  -7  409.07   14.18
  -4   5  -7  399.34   13.04
  -4  -5   8  665.43   21.89
  -4   5   8  755.38   25.80
  -4   5  -8  788.82   29.64
  -4  -5   8  751.54   25.25
  -4  -5  -8  746.09   29.32
   4   5   8  799.73   53.53
   4   5  -8  746.53   26.90
  -4   5  -8  823.09   28.69
  -4   5   9  117.46    8.29
  -4   5  -9  106.88    9.69
  -4  -5   9  105.58    6.99
  -4  -5  -9  128.57   14.32
   4   5   9  104.72   13.34
   4   5  -9  116.04    9.16
  -4   5  -9   97.72    9.53
  -4   5  10  275.21    9.80
  -4   5 -10  280.05   14.18
  -4  -5  10  281.01    8.98
  -4  -5 -10  317.69   18.79
   4   5  10  342.26   24.09
   4   5 -10  288.49   12.02
  -4   5 -10  274.42   11.02
  -4   5  11   96.02   14.57
  -4   5 -11   86.34    9.94
  -4  -5 -11  120.90   10.16
   4   5  11  119.36   11.78
   4   5 -11  103.81    7.09
  -4   5 -11  106.41    8.63
  -4   5  12  143.78   11.26
  -4   5 -12  157.38   11.39
  -4  -5 -12  148.90   12.91
   4   5  12  177.60   21.44
   4   5 -12  151.94    8.35
  -4   5 -12  155.04   10.95
  -4   5  13    7.02    2.48
  -4   5 -13   10.11    5.94
  -4  -5 -13   37.11   12.86
   4   5  13   11.08    2.98
   4   5 -13   11.51    6.31
  -4   5 -13   17.55    6.81
  -4   5  14   62.85    7.14
  -4   5 -14   78.88    7.39
  -4  -5 -14   73.63    8.92
   4   5  14  100.47   11.17
   4   5 -14   74.73    7.47
  -4   5 -14   82.75    9.26
  -4   5 -15   19.13    7.51
  -4  -5 -15   25.99    9.85
   4   5  15   21.62    6.37
   4   5 -15   30.40    7.41
  -4   5 -15   28.47    7.91
  -4   5 -16  105.25   12.17
  -4  -5 -16  144.65   17.36
   4   5  16   99.11   19.24
   4   5 -16  135.72   13.00
  -4   5 -16  120.06   11.80
  -4   5 -17   15.76    6.42
  -4  -5 -17    7.53    5.68
   4   5 -17    8.25    3.67
  -4   5 -17   20.28    5.63
  -4   5 -18   97.31   13.72
  -4  -5 -18   90.83   14.04
   4   5  18   89.28   14.19
   4   5 -18  115.46   14.69
  -4   5 -18   79.72   11.74
  -4   5 -19    7.98    4.90
  -4  -5 -19   17.11    8.48
   4   5 -19   16.14    6.36
  -4   5 -19    2.30    5.26
  -4   5 -20   30.41    6.92
  -4  -5 -20   21.83    8.64
   4   5  20   13.48    5.85
   4   5 -20   18.01    5.95
  -4   5 -20    8.01    5.43
  -4   6   0    5.20    4.76
  -4  -6   0   -6.87    5.12
  -4   6   0    6.34    1.88
   4   6   0    4.96    4.10
  -4   6   0    3.37    1.28
  -4   6   1    2.95    4.28
  -4   6  -1    2.53    4.21
  -4  -6  -1   15.47    5.75
  -4  -6   1    9.70    4.98
  -4   6  -1    5.88    1.58
   4   6   1    2.68    4.26
   4   6  -1    8.90    4.30
  -4   6   1    7.87    1.70
  -4   6   1    6.27    1.57
  -4   6  -1    6.36    2.74
  -4   6   2   86.66    9.42
  -4  -6   2   88.03    9.50
  -4  -6  -2   89.40   10.45
  -4   6  -2   71.42    6.18
   4   6   2   73.66    8.23
   4   6  -2   88.41    9.71
  -4   6  -2   87.12    7.93
  -4   6   3  287.39   11.87
  -4   6  -3  293.23   13.44
  -4  -6   3  294.58   12.66
  -4  -6  -3  256.60   13.61
   4   6   3  290.24   12.46
   4   6  -3  264.20   11.99
  -4   6  -3  276.96   10.69
  -4   6   4  157.39    8.32
  -4   6  -4  154.71   11.98
  -4  -6   4  153.15   10.84
  -4  -6  -4  170.70   12.02
   4   6   4  147.24   10.67
   4   6  -4  163.49    8.99
  -4   6  -4  147.39    9.43
  -4   6   5    6.02    3.62
  -4   6  -5    2.71    4.72
  -4  -6   5   18.39    6.53
  -4  -6  -5    9.70    9.45
   4   6   5   16.55    6.61
   4   6  -5    6.71    5.17
  -4   6  -5    9.10    3.27
  -4   6   6  321.42   11.81
  -4   6  -6  318.87   13.58
  -4  -6   6  323.83   11.10
  -4  -6  -6  315.37   13.54
   4   6   6  334.72   35.88
   4   6  -6  333.28   13.23
  -4   6  -6  304.39   11.15
  -4   6   7   65.14    5.82
  -4   6  -7   62.56    7.39
  -4  -6   7   47.80    4.74
  -4  -6  -7   67.98    9.47
   4   6   7   72.48    9.71
   4   6  -7   57.62    6.17
  -4   6  -7   68.42    7.43
  -4   6   8  461.71   17.13
  -4   6  -8  415.72   19.19
  -4  -6   8  486.52   17.08
  -4  -6  -8  457.12   20.10
   4   6   8  494.20   19.60
   4   6  -8  448.45   17.59
  -4   6  -8  477.65   17.94
  -4   6   9   24.94    4.11
  -4   6  -9   32.80    6.09
  -4  -6   9   22.04    3.28
  -4  -6  -9   13.00    7.17
   4   6   9   19.52    6.76
   4   6  -9   27.81    7.90
  -4   6  -9   19.51    5.22
  -4   6  10  383.77   11.89
  -4   6 -10  403.82   15.45
  -4  -6  10  365.45   10.11
  -4  -6 -10  371.66   16.45
   4   6  10  407.35   14.16
   4   6 -10  386.95   14.49
  -4   6 -10  372.03   12.56
  -4   6  11    9.31    2.59
  -4   6 -11    9.31    4.06
  -4  -6 -11    7.73    7.40
   4   6  11    9.79    4.41
   4   6 -11   11.41    4.86
  -4   6 -11   11.29    6.15
  -4   6  12  245.45   19.32
  -4   6 -12  228.98   11.16
  -4  -6 -12  282.78   16.71
   4   6  12  260.87   25.98
   4   6 -12  261.03   12.02
  -4   6 -12  270.89   13.72
  -4   6  13  161.16   16.17
  -4   6 -13  192.23   12.81
  -4  -6 -13  229.31   17.08
   4   6  13  203.36   21.52
   4   6 -13  201.49   12.52
  -4   6 -13  207.93   13.51
  -4   6 -14   14.94    6.04
  -4  -6 -14   11.78    6.54
   4   6  14   17.44    5.50
   4   6 -14   13.51    5.95
  -4   6 -14   15.93    7.79
  -4   6 -15   54.94    6.46
  -4  -6 -15   51.13    8.80
   4   6  15   58.60    7.58
   4   6 -15   40.79    8.22
  -4   6 -15   42.95    9.83
  -4   6 -16   38.86    6.52
  -4  -6 -16   11.49    6.38
   4   6  16   21.33    6.70
   4   6 -16   38.87    7.37
  -4   6 -16   33.47    8.90
  -4   6 -17  102.74   11.23
  -4  -6 -17   79.95   12.17
   4   6  17   75.44   11.94
   4   6 -17   95.24   10.58
  -4   6 -17   95.15   11.36
  -4   6 -18    2.46    3.59
  -4  -6 -18   13.48    6.81
   4   6 -18    2.92    3.89
  -4   6 -18    7.42    5.14
  -4   6 -19   78.53   11.35
  -4  -6 -19   89.72   15.04
   4   6  19   72.39   15.25
   4   6 -19  100.05   14.86
  -4   6 -19  122.01   17.68
  -4   6 -20   19.05    5.81
  -4  -6 -20   29.62    6.30
   4   6  20   22.12    6.65
   4   6 -20   15.89    6.32
  -4   6 -20   41.10    8.77
  -4   7   0  247.63   10.60
  -4  -7   0  233.98   10.47
  -4   7   0  247.87    7.00
   4   7   0  246.86   11.28
  -4   7   0  232.90    6.96
  -4   7   1  343.72   13.35
  -4   7  -1  336.32   12.47
  -4  -7  -1  367.53   14.91
  -4  -7   1  346.59   12.94
  -4   7  -1  322.12    8.92
   4   7   1  352.07   12.81
   4   7  -1  365.38   13.70
  -4   7   1  335.80    8.56
  -4   7   1  339.26    8.90
  -4   7  -1  337.24    9.89
  -4   7   2  592.23   18.47
  -4  -7  -2  621.16   20.04
  -4  -7   2  586.80   17.81
   4   7   2  599.08   18.87
   4   7  -2  579.91   18.06
  -4   7  -2  574.63   15.50
  -4   7   3  526.26   16.12
  -4   7  -3  495.26   16.71
  -4  -7   3  523.80   16.61
  -4  -7  -3  515.13   17.44
   4   7   3  505.80   16.38
   4   7  -3  499.75   17.01
  -4   7  -3  506.97   14.69
  -4   7   4   31.86    5.00
  -4   7  -4   36.58    6.17
  -4  -7   4   31.67    6.92
  -4  -7  -4   53.05   13.09
   4   7   4   30.51    5.05
   4   7  -4   37.30    6.16
  -4   7  -4   36.84    4.23
  -4   7   5  363.68   15.28
  -4   7  -5  396.05   16.71
  -4  -7   5  384.45   14.93
  -4  -7  -5  358.00   16.04
   4   7   5  360.36   15.40
   4   7  -5  330.47   14.00
  -4   7  -5  376.08   14.17
  -4   7   6  180.23    9.41
  -4   7  -6  143.80   12.21
  -4  -7   6  161.92   10.77
  -4  -7  -6  167.74   16.15
   4   7   6  164.80   18.27
   4   7  -6  167.93   16.18
  -4   7  -6  159.50   11.31
  -4   7   7  708.70   22.11
  -4   7  -7  768.68   24.87
  -4  -7   7  728.19   21.74
   4   7   7  762.10   24.81
   4   7  -7  702.60   22.72
  -4   7  -7  712.86   21.80
  -4   7   8  198.84    9.74
  -4   7  -8  197.40   11.46
  -4  -7   8  197.85    7.79
  -4  -7  -8  192.53   11.50
   4   7   8  221.66   19.21
   4   7  -8  193.34   10.40
  -4   7  -8  177.55    9.31
  -4   7   9  188.79    8.65
  -4   7  -9  178.09    9.21
  -4  -7   9  209.17    7.53
  -4  -7  -9  188.35   13.89
   4   7   9  218.27   21.94
   4   7  -9  186.80   10.47
  -4   7  -9  213.29   11.16
  -4   7  10  198.71   19.38
  -4   7 -10  221.70   10.53
  -4  -7  10  182.14    6.10
  -4  -7 -10  224.56   11.82
   4   7  10  215.51   25.76
   4   7 -10  203.66   10.84
  -4   7 -10  203.09    9.92
  -4   7  11   55.67    9.76
  -4   7 -11   51.39    9.91
  -4  -7 -11   55.45   10.43
   4   7  11   67.14    8.54
   4   7 -11   44.88    9.13
  -4   7 -11   65.43    9.04
  -4   7  12   72.24    6.99
  -4   7 -12   66.61   12.53
  -4  -7 -12   78.57   10.03
   4   7  12   71.72    9.46
   4   7 -12   74.43    7.80
  -4   7 -12   89.38    8.44
  -4   7  13   32.81    7.08
  -4   7 -13   35.28    8.15
  -4  -7 -13   38.30   10.53
   4   7  13   28.35    6.67
   4   7 -13   20.17    5.77
  -4   7 -13   13.68    6.13
  -4   7  14   25.89    6.32
  -4   7 -14   21.87    6.25
  -4  -7 -14   53.58   10.62
   4   7 -14   31.51    7.07
  -4   7 -14   44.44    9.68
  -4   7  15   31.36    7.11
  -4   7 -15   52.39    8.59
  -4  -7 -15   34.29    8.07
   4   7  15   33.14    7.41
   4   7 -15   37.92    7.82
  -4   7 -15   47.44    9.23
  -4   7 -16   30.40    5.62
  -4  -7 -16   33.98   11.05
   4   7 -16   35.46    5.59
  -4   7 -16   19.28    4.75
  -4   7 -17    5.60    3.77
  -4  -7 -17    9.81    6.20
   4   7  17    7.59    3.25
   4   7 -17    9.97    4.46
  -4   7 -17   24.90    9.61
  -4   7 -18   69.92   11.02
  -4  -7 -18   67.29   11.69
   4   7  18   47.91   11.88
   4   7 -18   57.63   10.07
  -4   7 -18   67.47   12.09
  -4  -7 -19   19.55    7.25
   4   7  19   26.90    6.13
   4   7 -19   25.43    7.22
  -4   7 -19   21.35    8.57
  -4   8   0   73.69    7.22
  -4  -8   0   66.44    8.48
  -4   8   0   54.51    3.74
   4   8   0   70.66    7.48
  -4   8   0   60.28    4.43
  -4   8   1  310.37   13.37
  -4   8  -1  330.80   14.18
  -4  -8  -1  356.66   16.70
  -4  -8   1  337.79   14.63
  -4   8  -1  286.04    9.96
   4   8   1  319.27   14.23
  -4   8   1  282.94    9.20
   4   8  -1  317.74   14.22
  -4   8   1  316.59   10.35
  -4   8  -1  326.64   11.98
  -4   8   2  323.23   13.95
  -4   8  -2  331.57   14.10
  -4  -8  -2  312.94   15.27
  -4  -8   2  311.53   13.85
   4   8   2  304.81   13.87
   4   8  -2  288.27   13.07
  -4   8  -2  321.60   11.89
  -4   8   3  291.05   13.69
  -4   8  -3  296.34   13.85
  -4  -8  -3  333.32   16.28
  -4  -8   3  296.29   12.52
   4   8   3  298.46   13.07
   4   8  -3  303.00   14.41
  -4   8  -3  316.28   12.13
  -4   8   4  219.80   10.52
  -4   8  -4  230.62   11.53
  -4  -8   4  239.65   10.79
  -4  -8  -4  225.85   12.65
   4   8   4  273.11   13.28
   4   8  -4  274.54   12.63
  -4   8  -4  231.14    9.40
  -4   8   5  266.14   12.14
  -4   8  -5  262.32   13.20
  -4  -8   5  252.25   11.07
  -4  -8  -5  275.54   15.04
   4   8   5  266.26   12.49
   4   8  -5  262.10   12.10
  -4   8  -5  252.38   10.69
  -4   8   6   24.44    6.52
  -4   8  -6    6.02    4.72
  -4  -8   6   15.09    4.85
  -4  -8  -6   -0.72    6.38
   4   8   6   26.37    8.50
   4   8  -6    5.34    4.86
  -4   8  -6    9.20    4.89
  -4   8   7  142.80    7.84
  -4   8  -7  143.37   10.87
  -4  -8   7  119.21    6.18
  -4  -8  -7  121.93   11.39
   4   8   7  119.37   15.77
   4   8  -7  145.46    9.37
  -4   8  -7  132.87    8.45
  -4   8   8    6.24    2.83
  -4   8  -8    7.30    5.81
  -4  -8   8    0.35    2.48
  -4  -8  -8   14.07    6.29
   4   8   8   11.25    4.49
   4   8  -8    8.44    4.89
  -4   8  -8    2.51    3.83
  -4   8   9   64.37    7.65
  -4   8  -9   62.12   10.52
  -4  -8   9   58.33    6.32
  -4  -8  -9   68.85   10.61
   4   8   9   61.08    8.61
   4   8  -9   54.23    7.36
  -4   8  -9   60.11    8.00
  -4   8  10   40.31    6.59
  -4   8 -10   49.24    8.76
   4   8  10   48.46    8.77
   4   8 -10   40.84    7.29
  -4   8 -10   33.54    6.66
  -4   8  11   12.31    3.35
  -4   8 -11   -4.48    4.02
  -4  -8 -11  -13.61    6.29
   4   8  11    8.95    3.72
   4   8 -11    4.89    4.91
  -4   8 -11   23.17    6.89
  -4   8  12  171.37   18.94
  -4   8 -12  224.45   12.89
  -4  -8 -12  217.00   15.31
   4   8 -12  224.81   11.51
  -4   8 -12  199.34   11.65
  -4   8  13    7.89    3.37
  -4   8 -13   15.31    6.80
  -4  -8 -13   16.22    8.77
   4   8  13   32.23    7.42
   4   8 -13   29.83    9.68
  -4   8 -13    8.83    6.81
  -4   8  14   73.83   10.08
  -4   8 -14   66.53    7.38
  -4  -8 -14   94.61   13.38
   4   8 -14   84.60    9.00
  -4   8 -14  114.83   13.51
  -4   8  15    7.32    2.26
  -4   8 -15    9.12    3.76
  -4  -8 -15   15.58    8.64
   4   8  15   20.74    4.78
   4   8 -15   21.80    6.67
  -4   8 -16   18.81    6.38
  -4  -8 -16   15.53    9.59
   4   8  16   24.36    6.86
   4   8 -16   15.96    6.55
  -4   8 -16   16.36    7.45
  -4   8 -17   16.95    5.32
  -4  -8 -17   17.71    7.79
   4   8  17   27.79    5.42
   4   8 -17   45.38    8.31
  -4   8 -17   28.78    7.54
  -4   8 -18   37.10    8.83
  -4  -8 -18   43.29    9.88
   4   8 -18   72.10   11.25
  -4   8 -18   43.48   11.59
  -4   9   0  328.86   14.36
  -4  -9   0  353.66   14.14
   4   9   0  338.78   14.05
  -4   9   0  320.74    9.82
  -4   9   1   28.40    5.03
  -4  -9  -1   34.28    7.24
  -4  -9   1   24.70    6.17
   4   9   1   29.42    5.99
   4   9  -1   51.90    8.38
  -4   9   1   29.40    2.56
  -4   9  -1   35.08    4.21
  -4   9   2  342.43   14.17
  -4   9  -2  340.87   13.72
  -4  -9  -2  301.54   13.44
  -4  -9   2  330.45   12.98
   4   9   2  361.78   15.32
   4   9  -2  349.37   14.16
  -4   9  -2  347.03   11.52
  -4   9   3    5.64    3.78
  -4   9  -3   14.05    4.51
  -4  -9  -3   15.37    6.27
  -4  -9   3   20.06    6.81
   4   9   3   20.10    5.42
   4   9  -3    6.54    4.68
  -4   9  -3   12.76    3.31
  -4   9   4   89.33    7.24
  -4   9  -4   77.85    6.52
  -4  -9   4   77.24    6.64
  -4  -9  -4   65.80    8.99
   4   9   4   86.22    8.35
   4   9  -4   65.85    7.61
  -4   9  -4   68.57    7.19
  -4   9   5  101.33    6.54
  -4   9  -5  117.15    8.34
  -4  -9   5  100.31    7.72
  -4  -9  -5  116.52    8.89
   4   9   5  109.26    9.92
   4   9  -5  110.30    8.15
  -4   9  -5   87.90    5.91
  -4   9   6  218.01   10.13
  -4   9  -6  210.17   12.49
  -4  -9   6  203.83    8.71
  -4  -9  -6  197.04   10.41
   4   9   6  210.01   10.27
   4   9  -6  163.49    9.49
  -4   9  -6  178.03    7.68
  -4   9   7  113.67    6.76
  -4   9  -7  111.19    8.42
  -4  -9   7  127.38    6.87
  -4  -9  -7  103.42    8.21
   4   9   7  118.61   12.61
   4   9  -7  132.26    9.18
  -4   9  -7  104.27    6.69
  -4   9   8  129.35    6.95
  -4   9  -8  140.66    8.73
  -4  -9   8  129.14    6.11
  -4  -9  -8  119.99   10.61
   4   9   8  157.72   13.63
   4   9  -8  138.36    8.19
  -4   9  -8  151.57    9.37
  -4   9   9   70.85    9.23
  -4   9  -9   59.98   10.60
  -4  -9   9   53.42    7.55
  -4  -9  -9   44.64   10.02
   4   9   9   67.38    9.15
   4   9  -9   44.20    7.79
  -4   9  -9   72.65    8.10
  -4   9  10   83.78    8.73
  -4   9 -10   72.33    7.69
  -4  -9 -10   67.11   14.80
   4   9  10   80.08   11.18
   4   9 -10   85.98    8.79
  -4   9 -10   72.54    8.02
  -4   9  11   28.82    6.01
  -4   9 -11   32.68    7.59
  -4  -9 -11   45.45    8.72
   4   9 -11   20.57    5.30
  -4   9 -11   26.71    7.11
  -4   9  12   22.78    5.79
  -4   9 -12   14.41    4.84
  -4  -9 -12   25.88    9.93
   4   9 -12   24.78    6.21
  -4   9 -12   37.98    8.94
  -4   9  13   76.18   10.70
  -4   9 -13   83.33   10.22
  -4  -9 -13  103.27   12.76
   4   9  13   81.34   12.97
   4   9 -13  104.23   10.34
  -4   9 -13   80.57    9.43
  -4   9  14   25.65    4.96
  -4   9 -14   45.94    7.24
  -4  -9 -14   43.77   10.04
   4   9  14   44.27    6.51
   4   9 -14   53.47    8.17
  -4   9 -14   63.27    9.08
  -4   9  15   15.15    3.96
  -4   9 -15   15.59    5.92
  -4  -9 -15   13.70    8.73
   4   9  15   14.06    4.69
   4   9 -15   28.17    8.74
  -4   9 -15   15.47    6.68
  -4   9 -16   20.65    7.35
  -4  -9 -16   15.53    7.01
   4   9  16   11.74    5.03
   4   9 -16   18.79    7.36
  -4   9 -16    2.82    4.19
  -4   9 -17   40.65    9.66
  -4  -9 -17   19.89    7.27
   4   9  17   32.85    8.50
   4   9 -17   36.09    8.79
  -4   9 -17   44.37    9.21
  -4   9 -18   14.42    5.39
  -4  -9 -18   19.48    7.17
   4   9  18   15.90    4.84
   4   9 -18   10.03    4.39
  -4   9 -18   13.76    7.29
  -4  10   0  113.77    8.30
  -4 -10   0  118.48    7.80
   4  10   0  124.08    7.67
  -4  10   0  117.46    4.21
  -4  10   1   13.68    5.34
  -4  10  -1   12.12    5.26
  -4 -10  -1   17.33    7.93
  -4 -10   1   17.56    6.77
   4  10   1   35.97    7.51
   4  10  -1   16.86    5.63
  -4  10  -1   17.84    3.68
  -4  10   2   34.74    6.20
  -4  10  -2   32.32    6.52
  -4 -10  -2   23.20    5.68
  -4 -10   2   21.28    4.73
   4  10   2   32.64    7.39
   4  10  -2   31.52    6.28
  -4  10  -2   31.44    3.92
  -4  10   3  284.34   11.79
  -4  10  -3  283.12   11.64
  -4 -10  -3  300.26   14.13
  -4 -10   3  292.97   11.09
   4  10   3  322.59   13.42
   4  10  -3  288.35   11.57
  -4  10  -3  294.75   10.43
  -4  10   4  217.46    9.45
  -4  10  -4  220.70   11.69
  -4 -10   4  236.48    9.64
  -4 -10  -4  211.90   10.65
   4  10   4  202.33   11.39
   4  10  -4  222.73   11.66
  -4  10  -4  198.57    7.86
  -4  10   5  154.99    8.53
  -4  10  -5  123.71    8.96
  -4 -10   5  137.63    6.90
  -4 -10  -5  141.84   11.34
   4  10   5  152.03    9.98
   4  10  -5  160.84    9.83
  -4  10  -5  144.52    8.05
  -4  10   6   64.49    8.36
  -4  10  -6   71.51    6.73
  -4 -10   6   86.43    5.47
  -4 -10  -6   95.06    8.32
   4  10   6   78.77    6.80
   4  10  -6   68.47    6.92
  -4  10  -6   93.43    6.98
  -4  10   7  194.81    9.01
  -4  10  -7  147.84    8.42
  -4 -10   7  181.50    8.17
  -4 -10  -7  193.21   10.89
   4  10   7  200.54   10.09
   4  10  -7  190.28    9.62
  -4  10  -7  202.17   10.30
  -4  10   8  134.58   14.60
  -4  10  -8   96.14    8.01
  -4 -10   8  128.49    7.50
   4  10   8  140.11   18.76
   4  10  -8  151.10   12.23
  -4  10  -8  130.95    9.03
  -4  10   9  124.53   10.71
  -4  10  -9  123.27   10.27
   4  10  -9  131.57   11.17
  -4  10  -9  113.92    8.56
  -4  10  10   32.88    7.14
  -4  10 -10   25.39    6.54
  -4 -10 -10   39.09    9.90
   4  10  10   34.46    7.61
   4  10 -10   42.12    8.63
  -4  10 -10   37.65    8.80
  -4  10  11   43.22   10.59
  -4  10 -11   24.95    5.98
  -4 -10 -11   57.67   10.35
   4  10  11   32.12    7.32
   4  10 -11   28.91    7.33
  -4  10 -11   40.67    8.14
  -4  10  12   33.16    7.87
  -4  10 -12   35.62    8.47
  -4 -10 -12   51.62    8.95
   4  10  12   41.47    9.64
   4  10 -12   40.33    7.45
  -4  10 -12   29.94    8.45
  -4  10  13   76.84   11.56
  -4  10 -13   85.41    8.42
  -4 -10 -13  123.20   15.17
   4  10  13   82.18   13.62
   4  10 -13   91.91   10.70
  -4  10 -13   72.83    9.04
  -4  10  14   48.27    8.86
  -4  10 -14   62.58    9.19
  -4 -10 -14   42.46   10.30
   4  10  14   26.90   13.91
   4  10 -14   44.42    7.43
  -4  10 -14   40.44    8.48
  -4  10  15   66.16   13.17
  -4  10 -15  117.72   15.66
  -4 -10 -15  109.65   17.70
   4  10  15   83.11   18.07
   4  10 -15  112.87   15.61
  -4  10 -15  101.54   14.46
  -4  10 -16   91.63   13.91
  -4 -10 -16   35.10    9.96
   4  10  16   53.56    9.30
   4  10 -16   69.20   10.69
  -4  10 -16   79.52   12.24
  -4  10 -17   53.80    9.08
  -4 -10 -17   19.50    7.16
   4  10  17   37.13    7.69
   4  10 -17   40.29    8.27
  -4  10 -17   41.58    8.76
  -4  11   0    7.43    3.66
  -4 -11   0    7.50    5.45
   4  11   0   20.13    7.12
  -4  11   1   27.92    7.01
  -4  11  -1   18.47    6.11
  -4 -11  -1   32.50   10.17
  -4 -11   1   29.47    7.39
   4  11   1   33.26    7.28
   4  11  -1   25.07    7.88
  -4  11   2   36.58    8.72
  -4  11  -2   20.08    5.14
  -4 -11   2   23.92    7.23
  -4 -11  -2   10.57    5.48
   4  11   2    9.58    5.17
   4  11  -2   10.17    5.34
  -4  11  -2    9.02    2.67
  -4  11   3  139.17    9.64
  -4  11  -3  138.16    9.42
  -4 -11   3  141.96    7.70
  -4 -11  -3  121.24    9.77
   4  11   3  152.36   10.99
   4  11  -3  104.34    8.44
  -4  11  -3  118.57    6.11
  -4  11   4  103.40    8.21
  -4  11  -4  105.24    7.80
  -4 -11  -4  101.09   10.13
  -4 -11   4  108.74    7.76
   4  11   4  106.88    9.07
   4  11  -4  114.13   10.03
  -4  11  -4   93.92    5.53
  -4  11   5   26.30    6.82
  -4  11  -5   20.96    6.64
  -4 -11  -5   19.15    6.82
  -4 -11   5   16.67    6.21
   4  11   5   27.19    6.59
   4  11  -5    1.70    4.63
  -4  11  -5   13.15    4.19
  -4  11   6   46.29    7.05
  -4  11  -6   68.22    7.85
  -4 -11   6   45.61    7.19
  -4 -11  -6   53.63    9.42
   4  11   6   63.71    9.06
   4  11  -6   41.02    6.92
  -4  11  -6   53.00    7.41
  -4  11   7  101.37   12.41
  -4  11  -7   89.54    7.94
  -4 -11   7  101.04    6.73
  -4 -11  -7  104.94    9.99
   4  11  -7  117.69   10.07
  -4  11  -7   91.44    7.69
  -4  11   8  175.10   20.25
  -4  11  -8  187.12   12.43
  -4 -11   8  193.80    8.85
  -4 -11  -8  219.43   13.32
   4  11  -8  190.02   12.34
  -4  11  -8  191.77   10.91
  -4  11   9   46.55    7.93
  -4  11  -9   35.95    7.55
  -4 -11  -9   34.99    9.52
   4  11  -9   44.30   10.27
  -4  11  -9   66.11    8.10
  -4  11  10  118.53   14.79
  -4  11 -10  135.16   11.49
  -4 -11 -10  101.60   12.05
   4  11  10  136.96   17.04
   4  11 -10  145.97   12.46
  -4  11 -10  121.24   11.30
  -4  11  11   62.18   10.03
  -4  11 -11   81.31   10.14
  -4 -11 -11   79.57   12.04
   4  11  11   81.47   13.43
  -4  11 -11   89.74   10.24
  -4  11  12  136.48   20.61
  -4  11 -12  190.06   14.69
   4  11  12  168.06   25.17
   4  11 -12  183.87   14.77
  -4  11 -12  177.53   14.97
  -4  11  13   96.26   16.30
  -4  11 -13  123.50   15.52
  -4 -11 -13  116.83   17.50
   4  11  13  133.79   19.31
   4  11 -13  143.70   17.89
  -4  11 -13  110.73   14.80
  -4  11 -14   29.48    6.91
  -4 -11 -14   21.51    8.05
   4  11  14   26.52    5.35
   4  11 -14   19.37    7.15
  -4  11 -14   26.71    7.04
  -4  11  15   22.11    6.17
  -4  11 -15   41.39    9.90
  -4 -11 -15   37.18   11.58
   4  11  15   29.58    9.87
   4  11 -15   41.54   10.22
  -4  11 -15   36.25    9.99
  -4  11 -16   28.27    6.26
  -4 -11 -16   23.63    9.04
   4  11  16   26.56    6.68
   4  11 -16   32.15    8.90
  -4  11 -16   32.68    7.98
  -4 -12   0  195.43   12.44
   4  12   0  188.39   11.26
  -4  12   1   18.69    5.64
  -4  12  -1   18.95    4.52
  -4 -12   1   18.80    5.43
  -4 -12  -1   18.54    9.35
   4  12   1   16.64    7.21
   4  12  -1    9.71    5.96
  -4  12   2  369.79   17.93
  -4  12  -2  411.80   19.66
  -4 -12   2  390.38   18.64
  -4 -12  -2  401.67   19.31
   4  12   2  380.95   18.91
   4  12  -2  408.01   20.14
  -4  12   3  185.96   11.02
  -4  12  -3  197.04   11.92
  -4 -12  -3  182.20   12.47
  -4 -12   3  189.35   11.46
   4  12   3  161.47   10.09
   4  12  -3  189.32   12.69
  -4  12   4  230.59   11.20
  -4  12  -4  195.79   10.54
  -4 -12  -4  192.16   11.73
  -4 -12   4  208.93   10.47
   4  12   4  211.89   11.98
   4  12  -4  210.45   12.84
  -4  12  -4  196.70    8.96
  -4  12   5  105.09    7.76
  -4  12  -5   86.60    8.49
  -4 -12   5   94.84    6.42
  -4 -12  -5   97.58   10.71
   4  12  -5  103.44    7.85
  -4  12  -5   79.97    5.47
  -4  12   6   15.61    4.47
  -4  12  -6    5.70    4.05
  -4 -12   6    6.50    3.17
  -4 -12  -6   23.43    9.17
   4  12   6   17.67    6.35
   4  12  -6   13.13    6.71
  -4  12  -6   13.77    4.76
  -4  12   7  117.77   15.20
  -4  12  -7  138.22   11.99
  -4 -12  -7  167.97   15.24
  -4 -12   7  122.54    9.91
   4  12  -7  128.46   12.30
  -4  12  -7  134.28   10.74
  -4  12   8    9.92    4.34
  -4  12  -8   13.31    5.67
  -4 -12   8    6.52    3.57
  -4 -12  -8   25.69   10.12
   4  12   8   23.32    7.61
   4  12  -8   25.38    8.51
  -4  12  -8   20.89    5.69
  -4  12   9  147.19   19.16
  -4  12  -9  202.68   17.67
   4  12   9  170.67   20.92
   4  12  -9  154.51   14.22
  -4  12  -9  180.55   15.47
  -4  12  10   20.83    5.85
  -4  12 -10   21.87    5.83
  -4 -12 -10   33.21   10.97
   4  12  10   19.50    4.36
   4  12 -10   26.77    7.15
  -4  12 -10   22.24    5.52
  -4  12  11  152.98   19.89
  -4  12 -11  157.87   13.30
  -4 -12 -11  166.45   14.78
   4  12  11  169.64   18.39
   4  12 -11  193.45   15.47
  -4  12 -11  178.61   14.62
  -4  12  12    3.11    2.44
  -4  12 -12   11.04    5.38
  -4 -12 -12   28.51   10.70
   4  12  12   17.65    6.66
   4  12 -12    7.62    4.96
  -4  12 -12   22.50    7.24
  -4  12  13   34.93    6.44
  -4  12 -13   32.02    6.12
  -4 -12 -13   30.27    7.64
   4  12  13   36.02    8.31
   4  12 -13   34.72    7.31
  -4  12 -13   39.14    7.98
  -4  12  14   40.22   10.60
  -4  12 -14   55.99    9.33
  -4 -12 -14   35.97   10.13
   4  12  14   41.21   12.12
   4  12 -14   45.96    8.60
  -4  12 -14   48.18    9.22
  -4  12  15   10.03    3.52
  -4  12 -15   17.25    4.83
  -4 -12 -15   14.87    9.13
   4  12  15   13.17    4.54
   4  12 -15   22.21    8.02
  -4  12 -15    4.72    4.14
  -4  13   0   16.24    5.98
  -4 -13   0   14.21    5.45
   4  13   0   14.51    5.22
  -4  13   1   19.12    6.48
  -4  13  -1   21.84    5.96
  -4 -13   1   41.74    8.68
  -4 -13  -1   28.28    8.60
   4  13   1   16.09    4.81
   4  13  -1   45.25   10.46
  -4  13   2   10.10    5.82
  -4  13  -2    3.78    3.70
  -4 -13   2   33.75    7.92
  -4 -13  -2    0.92    4.79
   4  13   2   16.43    6.13
   4  13  -2    7.68    4.05
  -4  13   3   85.06    9.30
  -4  13  -3   72.20    9.07
  -4 -13  -3   79.16    9.46
  -4 -13   3   70.64    8.31
   4  13   3   96.87    9.48
   4  13  -3   64.50    8.06
  -4  13   4   12.07    5.58
  -4  13  -4    6.46    5.37
  -4 -13  -4    9.60    5.03
  -4 -13   4    5.88    3.76
   4  13   4   28.74    6.92
   4  13  -4    5.44    4.27
  -4  13   5   61.74   11.09
  -4  13  -5   52.74    7.53
  -4 -13  -5   56.66    7.79
  -4 -13   5   51.72    7.18
   4  13  -5   53.32    8.51
  -4  13   6   62.29    8.46
  -4  13  -6   82.43   10.00
  -4 -13  -6   44.60    7.63
  -4 -13   6   58.28    7.21
   4  13   6   56.80    7.38
   4  13  -6   38.99    5.63
  -4  13  -6   67.25    7.34
  -4  13   7   18.26    5.06
  -4  13  -7   15.26    6.32
  -4 -13   7   14.32    4.71
  -4 -13  -7   11.33    5.65
   4  13   7   18.85    6.73
   4  13  -7   13.62    5.10
  -4  13  -7    1.51    2.63
  -4  13   8   51.07   11.53
  -4  13  -8   72.79    8.51
  -4 -13  -8   64.09    8.75
   4  13   8   73.97    8.94
   4  13  -8  110.53   11.36
  -4  13  -8   85.27    8.72
  -4  13   9   59.28   11.18
  -4  13  -9   79.47    9.77
   4  13   9   43.46    6.95
   4  13  -9   58.03    7.42
  -4  13  -9   55.25    6.50
  -4  13  10    6.98    3.23
  -4  13 -10   19.20    6.32
  -4 -13 -10   34.12    9.11
   4  13  10   25.10    8.10
   4  13 -10   21.20    6.92
  -4  13 -10   16.48    6.00
  -4  13  11   86.10   14.26
  -4  13 -11   98.15   13.97
  -4 -13 -11  138.58   21.09
   4  13  11  108.93   17.14
   4  13 -11  114.09   15.32
  -4  13 -11  121.93   16.17
  -4  13  12    7.22    3.86
  -4  13 -12   11.62    5.30
  -4 -13 -12   18.40    9.36
   4  13  12    6.68    3.44
   4  13 -12   28.36    7.99
  -4  13 -12    9.07    4.37
  -4  13  13   92.93   19.39
  -4  13 -13  154.61   20.48
  -4 -13 -13  145.49   22.33
   4  13  13   89.45   20.32
   4  13 -13  149.35   20.98
  -4  13 -13  127.83   17.86
  -4  13  14    4.44    2.22
  -4  13 -14    4.98    3.66
  -4 -13 -14   14.19    6.25
   4  13  14    0.59    2.59
   4  13 -14   11.40    4.77
  -4  13 -14   22.22    7.16
  -4  14   0   31.03    6.88
  -4 -14   0   28.47    8.11
   4  14   0   49.02    7.80
  -4  14   1   15.89    6.26
  -4  14  -1    6.93    3.18
  -4 -14   1   14.77    6.61
  -4 -14  -1    9.49    5.35
   4  14   1   11.91    5.85
   4  14  -1   24.29    7.91
  -4  14   2   48.17    6.70
  -4  14  -2   74.16    8.44
  -4 -14  -2   81.88   11.12
  -4 -14   2   75.50    9.18
   4  14   2   44.83    7.09
   4  14  -2   52.30    7.80
  -4  14   3  200.64   16.53
  -4  14  -3  233.38   21.89
  -4 -14   3  216.31   18.06
  -4 -14  -3  227.66   21.91
   4  14  -3  238.38   21.66
  -4  14   4   77.41   12.11
  -4  14  -4   77.94    9.66
  -4 -14   4   97.43   10.20
  -4 -14  -4  101.80   11.36
   4  14   4   91.97    9.82
   4  14  -4   85.94   10.06
  -4  14   5   52.02    8.49
  -4  14  -5   82.39    9.43
  -4 -14   5   63.84    7.51
  -4 -14  -5   69.83    9.09
   4  14   5   72.55    9.12
  -4  14   6  129.60   23.41
  -4  14  -6  118.42   10.89
  -4 -14  -6  140.16   12.78
  -4 -14   6  136.62   10.92
   4  14   6  115.99   10.58
   4  14  -6  172.05   15.66
  -4  14   7   61.58   10.01
  -4  14  -7   71.20   10.40
  -4 -14  -7   61.20   11.76
  -4 -14   7   51.40    7.83
   4  14   7   75.44   11.50
   4  14  -7   68.29    9.91
  -4  14   8   77.32   16.39
  -4 -14  -8   73.25   11.12
   4  14   8   79.57   10.86
   4  14  -8   72.85   10.30
  -4  14   9   14.06    4.12
  -4  14  -9   14.84    5.80
  -4 -14  -9    5.86    5.42
   4  14   9   16.27    5.23
   4  14  -9   15.57    5.75
  -4  14  -9   13.55    5.93
  -4  14  10   32.73    9.15
  -4 -14 -10   35.71    9.87
   4  14  10   23.54    5.90
   4  14 -10   34.34    9.26
  -4  14 -10   29.03    7.43
  -4  14  11   44.20    9.83
  -4  14 -11   93.24   14.31
  -4 -14 -11  102.61   19.04
   4  14  11   61.21   13.41
   4  14 -11  105.16   15.86
  -4  14 -11   61.77    9.94
  -4  14  12    9.98    2.60
  -4  14 -12    8.36    4.79
  -4 -14 -12   32.14    9.74
   4  14  12   18.27    5.10
   4  14 -12    5.85    4.57
  -4  14 -12   12.51    5.44
  -4  15   0   12.74    4.79
  -4 -15   0   30.64    7.42
  -4  15  -1   13.94    6.04
  -4 -15  -1   16.42    7.80
  -4 -15   1   13.52    5.58
   4  15  -1   12.06    4.89
  -4  15   2   44.53    8.14
  -4  15  -2   46.17    7.88
  -4 -15   2   44.10    8.32
  -4 -15  -2   34.80    7.41
   4  15   2   58.63    9.37
   4  15  -2   37.49    7.67
  -4  15   3   10.58    3.81
  -4  15  -3   24.97    7.06
  -4 -15  -3    5.74    5.04
  -4 -15   3    4.19    4.00
   4  15   3    6.35    4.11
   4  15  -3    6.26    4.22
  -4  15   4   64.18   12.41
  -4  15  -4   87.95   12.29
  -4 -15   4   94.59   13.16
  -4 -15  -4  119.00   16.27
   4  15   4   90.65   13.00
   4  15  -4   64.93    9.61
  -4  15   5    2.79    2.38
  -4  15  -5    5.88    5.71
  -4 -15   5   10.46    5.19
  -4 -15  -5    3.45    5.40
   4  15   5    8.32    4.49
   4  15  -5   13.74    5.38
  -4  15   6   41.63   10.24
  -4  15  -6   55.21    9.17
  -4 -15   6   25.10    7.40
  -4 -15  -6   27.31    8.87
   4  15   6   33.39    7.15
   4  15  -6   33.75    7.31
  -4  15   7   16.04    5.75
  -4  15  -7   19.21    6.36
  -4 -15  -7    5.20    5.32
   4  15   7   13.27    4.77
   4  15  -7    4.55    4.43
  -4  15   8   46.63    8.69
  -4  15  -8   53.73    8.63
  -4 -15  -8   83.98   15.21
   4  15   8   58.54    9.75
   4  15  -8   53.91    9.77
  -4  15   9   21.71    7.53
  -4  15  -9   38.80    8.92
  -4 -15  -9   39.18    9.88
   4  15   9   39.89    9.79
   4  15  -9   68.55   10.92
  -4  15  10   49.71   11.38
  -4  15 -10   43.25    8.19
   4  15  10   39.11    9.29
   4  15 -10   43.36    7.70
  -4  16   0   33.89    7.57
  -4 -16   0   30.09    7.36
   4  16   0   10.42    4.78
  -4  16   1   12.18    4.43
  -4  16  -1    6.61    5.20
  -4 -16  -1   21.74    8.07
  -4 -16   1    6.09    4.58
   4  16   1   18.56    5.81
  -4  16   2   48.96    8.08
  -4  16  -2   57.26   10.44
  -4 -16   2   35.37    8.01
  -4 -16  -2   26.44    7.25
   4  16   2   43.29    8.17
   4  16  -2   32.32    6.92
  -4  16   3   33.10    9.55
  -4  16  -3   16.16    6.03
  -4 -16   3   23.69    7.38
  -4 -16  -3   12.32    5.75
   4  16   3   32.37    8.62
   4  16  -3   22.79    5.97
  -4  16   4   12.53    4.31
  -4  16  -4   23.90    6.77
  -4 -16   4    9.78    4.25
  -4 -16  -4   10.64    7.51
   4  16   4   13.31    4.74
   4  16  -4   16.33    7.16
  -4  16   5   57.85   12.00
  -4  16  -5   53.39    8.07
  -4 -16   5   75.37   10.84
  -4 -16  -5   68.89   14.15
   4  16   5   40.25    9.43
   4  16  -5   93.84   14.16
  -4  16   6   12.61    4.26
  -4  16  -6   32.85    6.67
  -4 -16   6    9.52    3.66
  -4 -16  -6   22.58    6.27
   4  16   6   37.23    7.35
   4  16  -6   28.40    6.85
  -4  16   7   96.43   18.00
  -4  16  -7  105.49   14.17
  -4 -16  -7  103.95   14.63
   4  16   7  109.50   14.97
   4  16  -7  126.66   17.97
  -4  17   0  137.77   23.29
  -4 -17   0  113.14   16.08
   4  17   0  141.99   18.75
  -4  17   1   29.06    7.41
  -4  17  -1   18.76    4.85
  -4 -17   1   14.98    6.90
  -4 -17  -1   37.69    7.26
   4  17   1   22.54    6.23
   4  17  -1   32.18    6.37
  -4  17   2  114.45   24.43
  -4  17  -2  121.53   27.57
  -4 -17   2  143.11   18.82
  -4 -17  -2  136.67   19.05
   4  17   2  158.12   20.58
   4  17  -2  127.97   17.35
  -4  17   3   99.38   18.20
  -4  17  -3   85.40   11.62
  -4 -17   3  104.78   14.88
  -4 -17  -3  115.62   15.81
   4  17   3   89.71   13.05
  -5   0   0    5.31    5.83
   5   0   0    9.79    3.04
  -5   0   1    6.68    5.61
  -5   0  -1    9.57    6.19
   5   0   1   20.04    3.16
   5   0  -1   15.87    3.05
  -5   0   2  175.65    9.22
  -5   0  -2  145.73   13.02
   5   0   2  182.20   14.20
   5   0  -2  143.20   10.49
  -5   0   3  385.93   13.84
  -5   0  -3  390.57   16.23
   5   0   3  404.14   18.00
   5   0  -3  394.59   11.90
  -5   0   4  599.74   21.78
  -5   0  -4  615.61   24.03
   5   0   4  610.00   26.32
   5   0  -4  578.18   20.02
  -5   0   5  445.70   17.51
  -5   0  -5  442.07   18.12
   5   0   5  440.98   16.79
  -5   0   6 1118.19   89.26
   5   0   6 1088.52   87.10
   5   0  -6 1000.65   33.02
  -5   0   7  205.63    8.36
  -5   0  -7  201.86   12.53
   5   0   7  229.99   21.66
   5   0  -7  202.64    7.92
  -5   0   8   44.81    5.45
  -5   0  -8   41.56   10.14
   5   0   8   39.30    6.28
   5   0  -8   41.24    5.00
  -5   0   9    8.59    2.81
  -5   0  -9   18.00    6.43
   5   0   9   16.13    4.86
   5   0  -9    5.46    2.96
  -5   0  10  385.72   11.95
  -5   0 -10  396.17   16.17
   5   0  10  423.30   25.95
   5   0 -10  390.52   12.52
  -5   0  11   40.06    5.10
  -5   0 -11   48.63    9.03
   5   0  11   55.37    9.05
   5   0 -11   45.15    6.55
  -5   0 -12  110.69   12.67
   5   0  12   88.20   10.18
   5   0 -12   79.14    5.70
  -5   0 -13   12.41    6.21
   5   0  13   13.46    5.00
   5   0 -13   11.76    3.16
  -5   0 -14   30.62    8.09
   5   0  14   25.47    7.32
  -5   0 -15    8.10    6.36
  -5   0 -16  168.59   14.62
  -5   0 -16  160.39   13.73
  -5   0 -17    9.26    5.71
  -5   0 -17    1.94    4.59
  -5   0 -18   33.09   10.12
  -5   0 -18   18.17    6.36
  -5   0 -19    1.34    4.39
  -5   0 -19   17.67    7.29
  -5   1   0  433.80   14.78
  -5  -1   0  400.66   15.07
   5  -1   0  429.74   18.19
   5   1   0  483.18   30.65
  -5   1   1   39.17    5.48
  -5   1  -1   40.60    6.52
  -5  -1   1   35.88    5.77
  -5  -1  -1   41.44    7.89
   5  -1   1   52.53    5.74
   5  -1  -1   40.96    4.40
   5   1   1   49.42    7.65
   5   1  -1   46.70    5.63
  -5   1   2   83.91    9.53
  -5   1  -2   95.07   10.98
  -5  -1   2   96.08    9.44
  -5  -1  -2   80.01    8.49
   5  -1   2   77.31    8.69
   5   1   2  111.60   13.36
   5  -1  -2   81.62    7.22
   5   1  -2   76.46    6.28
  -5   1   3   12.28    4.41
  -5  -1   3   32.35    8.05
  -5   1  -3   13.22    5.99
  -5  -1  -3   23.96    9.82
   5  -1   3   25.97    3.39
   5   1   3   23.52    4.67
   5  -1  -3   17.57    3.24
   5   1  -3   11.52    3.57
  -5   1   4  399.16   15.93
  -5  -1   4  398.50   15.86
  -5   1  -4  424.24   17.41
  -5  -1  -4  418.45   17.71
   5  -1   4  412.78   20.56
   5   1   4  439.31   27.65
   5  -1  -4  390.94   13.82
   5   1  -4  395.58   14.79
  -5   1   5  281.45   11.89
  -5  -1   5  310.03   13.32
  -5   1  -5  330.06   16.06
  -5  -1  -5  316.91   16.20
   5  -1   5  294.36   18.08
   5   1   5  340.42   19.77
   5  -1  -5  300.57   11.38
   5   1  -5  300.67   11.70
  -5   1   6   25.99    4.26
  -5  -1   6   24.56    4.88
  -5   1  -6   15.03    5.50
  -5  -1  -6   30.61    5.26
   5  -1   6   37.73    5.29
   5   1   6   31.00    5.56
   5  -1  -6   26.72    3.42
   5   1  -6   37.54    5.30
  -5   1   7  122.52    7.26
  -5  -1   7   88.31    5.49
  -5   1  -7   99.82    8.10
  -5  -1  -7   92.89    7.97
   5  -1   7  123.81   12.30
   5   1   7  137.67   13.98
   5  -1  -7  109.85    5.19
   5   1  -7  118.14    5.93
  -5   1   8  191.57    8.14
  -5  -1   8  193.76    7.80
  -5   1  -8  160.97   10.13
  -5  -1  -8  185.35   15.13
   5  -1   8  198.96   14.01
   5   1   8  194.61   13.94
   5  -1  -8  158.57    5.91
   5   1  -8  173.89    7.63
  -5   1   9  242.60    8.55
  -5  -1   9  232.41    8.41
  -5   1  -9  221.80   14.57
  -5  -1  -9  244.51   12.56
   5  -1   9  249.24   18.54
   5   1   9  250.13   17.27
   5  -1  -9  227.30    7.64
   5   1  -9  215.48    8.26
  -5   1  10  240.70    8.88
  -5  -1  10  227.07    8.08
  -5   1 -10  234.76   15.29
  -5  -1 -10  264.59   15.03
   5  -1  10  263.29   32.34
   5   1  10  271.33   19.17
   5  -1 -10  226.48    7.86
   5   1 -10  228.85    8.81
  -5   1  11   85.78    5.12
  -5   1 -11  119.93   14.29
  -5  -1 -11  108.11   12.02
   5  -1  11   96.76   16.24
   5   1  11  121.99   11.75
   5  -1 -11   96.77    6.01
   5   1 -11   86.85    6.54
  -5   1 -12  123.39   12.73
  -5  -1 -12  121.55   11.82
   5  -1  12  122.53   13.25
   5   1  12  120.37   17.79
   5   1 -12  155.08    9.57
  -5   1 -13   10.53    5.61
  -5  -1 -13    7.06    6.38
   5  -1  13    7.27    3.44
   5   1  13   16.05    4.33
   5   1 -13    6.16    2.49
  -5   1 -14   34.60    9.47
  -5  -1 -14   36.72    8.83
   5   1  14   45.32   11.17
   5   1 -14   60.40    6.24
  -5   1 -15   20.17    7.15
  -5  -1 -15    4.63    8.14
   5   1  15    7.87    5.80
  -5   1 -15   14.00    5.71
  -5   1 -16   18.16    7.53
  -5  -1 -16   43.30    8.49
   5   1  16   27.33    6.35
  -5   1 -16   19.49    5.61
  -5   1 -17   16.45    9.58
  -5  -1 -17   11.93    7.88
  -5   1 -17   15.99    5.87
  -5   1 -18   32.95    9.44
  -5  -1 -18   29.11    9.34
  -5   1 -18   25.63    8.81
  -5  -1 -18   31.26    8.46
  -5   1 -19   16.44    5.52
  -5  -1 -19   29.51    8.27
  -5   1 -19   24.55    7.19
  -5  -1 -19   15.91    5.66
  -5   2   0   58.43    7.34
  -5  -2   0   52.36    8.59
   5  -2   0   61.35    6.11
   5   2   0   62.73    6.39
  -5   2   1   96.46    8.91
  -5   2  -1  113.97   11.11
  -5  -2   1  109.57   11.29
  -5  -2  -1   89.23    9.07
   5  -2   1  100.31    9.39
   5  -2  -1   87.21    9.45
   5   2   1  101.94   11.88
   5   2  -1   98.52    8.35
  -5   2   2   18.06    7.23
  -5   2  -2   -1.68    5.76
  -5  -2   2   13.27    6.75
  -5  -2  -2    1.91    5.61
   5  -2   2   12.98    3.61
   5  -2  -2    4.09    1.69
   5   2   2   15.48    4.18
   5   2  -2   13.94    5.05
  -5   2   2   16.80    3.66
  -5   2   3   18.00    4.66
  -5   2  -3   12.24    5.71
  -5  -2   3   26.11    5.74
  -5  -2  -3   33.71    9.72
   5  -2   3   23.66    3.43
   5  -2  -3   26.49    4.11
   5   2   3   17.75    4.08
   5   2  -3   18.23    3.39
  -5   2   3   20.43    2.79
  -5   2   4   34.41    5.61
  -5   2  -4   49.19    7.57
  -5  -2   4   39.61    5.42
  -5  -2  -4   51.82    8.96
   5  -2   4   53.12    5.92
   5   2   4   47.42    6.43
   5  -2  -4   40.52    5.24
   5   2  -4   55.76    5.48
  -5   2   4   33.45    3.28
  -5   2   5  150.63   11.11
  -5  -2   5  150.43   10.67
  -5  -2  -5  155.72   14.93
   5  -2   5  148.26   15.42
   5   2   5  166.84   19.12
   5   2  -5  123.36    8.28
  -5   2   6   73.99    7.91
  -5  -2   6   85.92    5.98
  -5   2  -6   81.54    9.33
  -5  -2  -6   78.94   10.67
   5  -2   6   77.03    8.89
   5   2   6   91.70   11.08
   5  -2  -6   79.60    3.72
   5   2  -6   81.80    6.13
  -5   2   7  161.85    7.50
  -5  -2   7  181.33    7.84
  -5   2  -7  148.32    9.70
  -5  -2  -7  140.57   10.31
   5  -2   7  175.26   17.34
   5   2   7  176.25   14.98
   5  -2  -7  172.10    6.23
   5   2  -7  163.60    8.08
  -5   2   8   84.82    8.41
  -5  -2   8  111.42    5.73
  -5   2  -8   75.17   10.43
  -5  -2  -8  110.14    9.11
   5  -2   8  107.01   13.46
   5   2   8  114.42   13.64
   5  -2  -8   99.32   12.74
   5   2  -8  102.95    5.62
  -5   2   9   70.90    7.93
  -5  -2   9   80.24    8.01
  -5   2  -9   83.35   11.36
  -5  -2  -9   61.36   10.34
   5  -2   9   59.40   10.12
   5   2   9   73.10   11.68
   5  -2  -9   55.09    5.29
   5   2  -9   74.29    7.99
  -5   2  10  151.32    6.79
  -5  -2  10  153.25    5.88
  -5   2 -10  151.22   10.50
  -5  -2 -10  173.32   11.54
   5  -2  10  161.81   20.63
   5   2  10  195.34   13.47
   5   2 -10  159.96    8.11
  -5   2  11  483.24   19.88
  -5   2 -11  490.03   23.08
  -5  -2 -11  524.77   87.08
   5  -2  11  515.70   85.06
   5   2  11  532.25   90.73
   5   2 -11  521.48   85.90
  -5   2 -12  266.24   14.05
  -5  -2 -12  278.68   17.50
   5   2  12  247.68   19.67
   5   2 -12  243.01   10.68
  -5   2 -13  174.87   16.32
  -5  -2 -13  168.04   17.55
   5   2  13  126.16   20.04
   5   2 -13  169.97   13.39
  -5   2 -13  179.53   14.89
  -5   2 -14   36.50    8.98
  -5  -2 -14   70.75    9.86
   5   2  14   73.69   10.08
   5   2 -14   58.24    6.79
  -5   2 -14   37.21    6.59
  -5   2 -15  178.84   16.20
  -5  -2 -15  198.98   18.32
   5   2  15  193.78   21.96
   5   2 -15  179.36   14.52
  -5   2 -15  200.56   17.98
  -5   2 -16   24.51    7.57
  -5  -2 -16   46.49   10.65
   5   2  16   45.10   11.91
   5   2 -16   43.94    6.66
  -5   2 -16   50.20   10.13
  -5   2 -17   50.17    9.88
  -5  -2 -17   22.20    7.83
   5   2  17   44.76    8.59
  -5   2 -17   27.92    6.72
  -5   2 -18   11.78    5.45
  -5  -2 -18   23.30    9.04
   5   2  18   17.81    6.00
  -5   2 -18   33.66   10.27
  -5   2 -19    8.67    4.73
  -5  -2 -19   34.64   10.28
  -5   2 -19    4.50    4.59
  -5  -2 -19   16.34    7.32
  -5   3   0  116.64   10.34
  -5  -3   0  125.89   11.41
   5  -3   0  122.27   12.91
   5   3   0  136.48   10.23
  -5   3   1  332.97   14.64
  -5   3  -1  324.29   15.01
  -5  -3   1  369.26   15.57
  -5  -3  -1  357.61   16.26
   5  -3   1  340.19   20.52
   5  -3  -1  320.79   14.20
   5   3   1  332.29   13.23
   5   3  -1  341.20   13.47
  -5   3   2   87.97    8.49
  -5   3  -2   78.90    9.99
  -5  -3   2   85.72    8.83
  -5  -3  -2   81.74    8.10
   5  -3   2   88.31    9.16
   5  -3  -2   85.50    9.17
   5   3   2   97.52   10.77
   5   3  -2   88.75    7.59
  -5   3   2   78.54    5.33
  -5   3   3  395.05   16.02
  -5   3  -3  401.61   17.31
  -5  -3   3  389.81   15.60
  -5  -3  -3  389.91   17.15
   5  -3   3  397.07   14.93
   5   3   3  459.20   33.33
   5   3  -3  393.03   14.87
  -5   3   4  201.03   10.00
  -5   3  -4  218.81   11.58
  -5  -3   4  200.68    9.41
  -5  -3  -4  201.91   12.79
   5  -3   4  223.32   18.86
   5  -3  -4  182.28    9.79
   5   3   4  229.96   16.81
   5   3  -4  199.38    9.49
  -5   3   5  421.49   14.61
  -5  -3   5  440.57   14.99
  -5  -3  -5  477.78   17.89
   5  -3   5  461.61   19.83
   5  -3  -5  420.24   12.12
   5   3   5  484.12   31.70
   5   3  -5  420.64   14.04
  -5   3   6    5.94    3.14
  -5   3  -6   24.61    7.89
  -5  -3   6    8.62    3.24
  -5  -3  -6   11.03    6.34
   5  -3   6    7.02    2.28
   5   3   6   20.45   14.85
   5  -3  -6    4.93    1.23
   5   3  -6   16.36    5.42
  -5   3   7   31.49    4.19
  -5  -3   7   45.25    5.63
  -5   3  -7   47.78    9.58
   5  -3   7   38.34    5.43
   5   3   7   37.23    7.68
   5  -3  -7   29.30    4.74
   5   3  -7   58.28    7.64
  -5   3   8  160.66    7.20
  -5  -3   8  162.66    6.37
  -5   3  -8  154.59   10.23
  -5  -3  -8  184.90   11.55
   5  -3   8  188.05   14.39
   5   3   8  190.61   18.76
   5   3  -8  174.05    8.24
  -5   3   9  427.52   13.81
  -5  -3   9  475.86   14.25
  -5   3  -9  478.99   18.82
  -5  -3  -9  418.51   17.24
   5   3   9  457.24   26.23
   5   3  -9  435.48   14.91
  -5   3  10   52.96    7.46
  -5   3 -10   58.13   10.98
  -5  -3 -10   63.28   12.58
   5   3  10   66.87    9.57
   5   3 -10   58.03    8.75
  -5   3 -10   55.19    8.92
  -5   3  11   43.02    5.61
  -5   3 -11   51.77    9.65
  -5  -3 -11   62.20   11.30
   5   3  11   74.20   10.14
   5   3 -11   61.80    8.56
  -5   3 -11   42.83    6.67
  -5   3  12   13.34    3.49
  -5   3 -12   14.97    6.40
  -5  -3 -12   35.28   10.84
   5   3  12   17.66    5.81
   5   3 -12   29.25    6.64
  -5   3 -12   30.52    8.00
  -5   3 -13   61.34    8.39
  -5  -3 -13   70.82    9.34
   5   3  13  100.47   11.51
   5   3 -13   77.06    7.49
  -5   3 -13   60.49    7.55
  -5   3 -14   41.95    9.82
  -5  -3 -14   35.90   10.69
   5   3  14   30.84    7.21
   5   3 -14   36.87    6.30
  -5   3 -14   34.14    8.27
  -5   3 -15   43.33    7.88
  -5  -3 -15   69.46   11.43
   5   3  15   47.68    7.55
   5   3 -15   44.68    5.61
  -5   3 -15   56.36    7.26
  -5   3 -16   25.05    9.17
  -5  -3 -16   15.52    6.87
   5   3  16   27.94    8.70
   5   3 -16   23.55    5.89
  -5   3 -16   14.29    5.58
  -5   3 -17    9.74    5.31
  -5  -3 -17   19.61    7.36
   5   3  17    8.03    4.70
   5   3 -17   10.09    4.49
  -5   3 -17    3.25    4.60
  -5   3 -18   61.76   11.67
  -5  -3 -18   59.99   10.39
   5   3  18   47.31    7.67
  -5   3 -18   33.63    9.81
  -5   4   0  162.62   11.49
  -5  -4   0  157.86   12.06
   5  -4   0  160.12   12.12
   5   4   0  160.98   11.46
  -5   4   1  174.19    9.46
  -5   4  -1  164.96   15.99
  -5  -4   1  169.65   15.55
  -5  -4  -1  194.21   12.37
   5  -4  -1  161.10   12.20
   5  -4   1  171.98   10.87
   5   4   1  158.87   11.33
   5   4  -1  183.94    9.28
  -5   4   2  151.97   12.25
  -5   4  -2  136.78   10.56
  -5  -4   2  169.04   16.11
  -5  -4  -2  142.06   11.46
   5  -4   2  139.02   11.54
   5  -4  -2  136.29    9.42
   5   4   2  163.42   15.28
   5   4  -2  147.05   10.78
  -5   4   3   37.61    5.47
  -5   4  -3   52.05    8.14
  -5  -4   3   40.21    5.09
  -5  -4  -3   40.84    6.80
   5  -4   3   42.59    6.65
   5  -4  -3   30.15    4.20
   5   4   3   39.05    5.46
   5   4  -3   50.36    5.56
  -5   4   4  118.46    7.74
  -5   4  -4  109.32    7.91
  -5  -4   4  105.47    6.72
  -5  -4  -4  119.77   11.18
   5  -4   4  100.18   12.88
   5  -4  -4   86.66    3.49
   5   4   4  111.86   13.56
   5   4  -4  123.07    7.86
  -5   4   5  115.90    7.67
  -5   4  -5  107.88    8.89
  -5  -4   5  121.17    7.98
  -5  -4  -5  126.54    9.26
   5   4   5  127.50   10.02
   5   4  -5  118.92    7.33
  -5   4   6  527.08   17.43
  -5   4  -6  495.82   18.09
  -5  -4   6  485.16   15.68
  -5  -4  -6  561.44   21.75
   5   4   6  525.06   25.93
   5   4  -6  515.23   17.10
  -5   4  -6  504.42   16.35
  -5   4   7   37.04    5.33
  -5   4  -7   28.66    6.17
  -5  -4   7   33.43    5.14
  -5  -4  -7   19.24    8.73
   5   4   7   39.87    6.04
   5   4  -7   28.09    5.51
  -5   4  -7   20.05    4.41
  -5   4   8   16.23    4.83
  -5   4  -8   -0.21    4.88
  -5  -4   8    3.62    3.12
  -5  -4  -8    3.99    6.31
   5   4   8    8.31    3.43
   5   4  -8    7.80    4.46
  -5   4  -8    5.48    5.28
  -5   4   9   32.66    5.54
  -5   4  -9   55.06   10.25
  -5  -4   9   33.93    5.40
  -5  -4  -9   46.58   11.30
   5   4   9   45.52    8.60
   5   4  -9   37.75    6.14
  -5   4  -9   35.12    7.35
  -5   4  10   77.74    5.88
  -5   4 -10   82.79    8.51
  -5  -4 -10   88.61   10.00
   5   4  10   71.83   11.92
   5   4 -10   77.85    6.34
  -5   4 -10   70.89    6.71
  -5   4  11   77.03    5.39
  -5   4 -11   95.30    9.24
  -5  -4 -11   83.15    8.78
   5   4  11   71.21   13.96
   5   4 -11   90.21    7.28
  -5   4 -11   86.79    7.70
  -5   4  12   10.49    3.42
  -5   4 -12    8.48    5.25
  -5  -4 -12   -2.27    6.03
   5   4 -12   14.01    5.08
  -5   4 -12    2.83    4.38
  -5   4 -13   80.61   10.15
  -5  -4 -13   74.71   10.39
   5   4  13   85.16   13.19
   5   4 -13   91.39    8.34
  -5   4 -13   73.79    9.50
  -5   4 -14   10.37    5.77
  -5  -4 -14   38.48    9.70
   5   4  14   16.91    5.74
   5   4 -14    0.87    3.23
  -5   4 -14    3.13    4.09
  -5   4 -15   89.13   10.66
  -5  -4 -15   52.54    8.90
   5   4  15   52.86    8.71
   5   4 -15   54.26    6.34
  -5   4 -15   67.22    8.14
  -5   4 -16   44.68    8.41
   5   4  16   36.17    9.24
   5   4 -16   63.93    9.55
  -5   4 -16   48.10   10.06
  -5   4 -17  121.20   16.77
  -5  -4 -17  134.32   19.89
   5   4  17  100.17   18.94
   5   4 -17  131.52   17.59
  -5   4 -17  151.87   20.36
  -5   4 -18    6.64    4.42
  -5  -4 -18   10.51    6.06
   5   4  18   16.50    7.12
   5   4 -18   25.13    5.61
  -5   4 -18   20.53    8.01
  -5   5   0  741.39   24.66
  -5  -5   0  711.73   23.46
   5   5   0  736.01   23.45
  -5   5   0  699.58   19.99
  -5   5   1  492.17   17.75
  -5   5  -1  417.57   16.33
  -5  -5   1  458.74   17.00
  -5  -5  -1  458.63   18.45
   5   5   1  490.00   18.11
   5   5  -1  454.29   16.40
  -5   5   1  429.06   12.69
  -5   5  -1  443.67   13.42
  -5   5   2  497.35   16.99
  -5   5  -2  473.76   17.60
  -5  -5   2  474.32   16.59
  -5  -5  -2  496.33   17.84
   5   5   2  471.85   16.25
   5   5  -2  474.74   16.42
  -5   5   2  436.94   12.44
  -5   5  -2  492.86   15.45
  -5   5   3  498.41   17.25
  -5   5  -3  493.99   18.55
  -5  -5   3  505.88   17.19
  -5  -5  -3  499.10   18.49
   5   5   3  559.19   19.85
   5   5  -3  539.38   18.47
  -5   5  -3  515.01   15.87
  -5   5   4  548.17   18.21
  -5  -5   4  541.27   18.63
  -5  -5  -4  535.95   21.09
   5   5   4  560.25   39.71
   5   5  -4  546.21   18.37
  -5   5  -4  519.62   16.37
  -5   5   5   74.46    8.34
  -5   5  -5   67.41    8.20
  -5  -5   5   74.64    8.36
  -5  -5  -5   75.30    9.63
   5   5   5   90.58    8.28
   5   5  -5   92.28    6.70
  -5   5  -5  117.02    7.74
  -5   5   6  197.10    8.93
  -5   5  -6  202.25   11.85
  -5  -5   6  216.13    9.47
  -5  -5  -6  181.62   10.10
   5   5   6  191.06   19.41
   5   5  -6  180.37    8.82
  -5   5  -6  197.78    9.23
  -5   5   7   27.98    4.89
  -5   5  -7   39.17    8.43
  -5  -5   7   48.05    5.91
  -5  -5  -7   49.82    8.53
   5   5   7   40.04    7.08
   5   5  -7   36.17    5.27
  -5   5  -7   25.90    4.77
  -5   5   8  172.36    7.99
  -5   5  -8  159.10   11.67
  -5  -5   8  164.30    6.93
   5   5   8  182.02   14.56
   5   5  -8  152.91    7.35
  -5   5  -8  173.32    9.46
  -5   5   9   69.11    6.01
  -5   5  -9   64.37   11.93
  -5  -5   9   53.19    6.67
  -5  -5  -9   67.59   10.85
   5   5   9   67.64   11.15
   5   5  -9   50.30    6.87
  -5   5  -9   61.60    8.28
  -5   5  10   69.81    5.94
  -5   5 -10   62.88   10.53
  -5  -5 -10   60.86   10.65
   5   5  10   71.36   11.28
   5   5 -10   75.67    6.42
  -5   5 -10   63.52    9.81
  -5   5  11   14.91    4.15
  -5   5 -11   29.11    8.86
  -5  -5 -11   27.93    9.81
   5   5  11   35.33    8.30
   5   5 -11    9.14    5.00
  -5   5 -11   22.36    7.13
  -5   5  12    4.82    2.87
  -5   5 -12   13.24    5.37
  -5  -5 -12   15.45    9.29
   5   5  12   12.85    4.86
   5   5 -12    3.71    3.47
  -5   5 -12   12.53    6.06
  -5   5 -13   64.96    9.70
  -5  -5 -13   47.57    8.48
   5   5  13   34.98    8.21
   5   5 -13   69.42    8.79
  -5   5 -13   37.65    6.39
  -5   5 -14   19.88    6.98
  -5  -5 -14   20.13    6.90
   5   5  14   29.52    7.18
   5   5 -14   30.90    8.14
  -5   5 -14   25.09    6.60
  -5   5 -15   10.98    5.37
  -5  -5 -15   30.81    9.40
   5   5  15    9.44    3.31
   5   5 -15   22.75    6.81
  -5   5 -15   31.54    8.28
  -5   5 -16   30.62    7.88
  -5  -5 -16   53.60   10.94
   5   5  16   25.81    7.83
   5   5 -16   39.39    6.68
  -5   5 -16   19.64    6.01
  -5   5 -17   22.82    7.41
  -5  -5 -17   10.84    6.70
   5   5  17    2.46    3.68
   5   5 -17   13.17    5.37
  -5   5 -17   13.56    5.64
  -5   5 -18    9.94    6.10
   5   5  18    6.45    2.96
   5   5 -18    7.72    3.37
  -5   5 -18    6.80    5.03
  -5   6   0    8.55    4.61
  -5  -6   0   -4.29    5.26
   5   6   0    5.80    4.57
  -5   6   0    2.84    1.90
  -5   6   1   70.44    8.56
  -5   6  -1   80.86    6.54
  -5  -6  -1   81.03    8.96
  -5  -6   1  100.79    8.11
   5   6   1   90.90    6.77
   5   6  -1   87.98    7.91
  -5   6   1   88.19    3.53
  -5   6  -1   85.35    4.25
  -5   6   2   47.78    7.05
  -5   6  -2   46.89    7.04
  -5  -6   2   35.80    7.25
  -5  -6  -2   41.70    7.91
   5   6   2   52.29    6.55
   5   6  -2   46.29    6.83
  -5   6  -2   43.58    5.01
  -5   6   3   16.57    5.73
  -5   6  -3   14.94    4.69
  -5  -6   3   29.28    6.04
  -5  -6  -3   28.30    8.64
   5   6   3    7.30    4.59
   5   6  -3   18.42    4.26
  -5   6  -3   19.00    3.33
  -5   6   4  307.27   12.28
  -5  -6   4  277.35   10.32
  -5  -6  -4  282.70   12.62
   5   6   4  320.23   11.87
   5   6  -4  296.23   11.93
  -5   6  -4  289.30    9.89
  -5   6   5   95.63   13.54
  -5   6  -5   94.52   13.80
  -5  -6   5   96.68   13.37
  -5  -6  -5  112.69   11.79
   5   6   5  115.76   16.51
   5   6  -5  107.81    7.72
  -5   6  -5  100.58   13.92
  -5   6   6  128.52    6.77
  -5   6  -6  110.50   10.00
  -5  -6   6  146.29    7.40
  -5  -6  -6  129.73   11.71
   5   6   6  155.29   15.83
   5   6  -6  155.69    9.24
  -5   6  -6  145.33    7.53
  -5   6   7   54.22    8.35
  -5   6  -7   44.68    9.52
  -5  -6   7   46.88    7.11
  -5  -6  -7   43.48    8.87
   5   6   7   70.88    9.38
   5   6  -7   57.05    8.52
  -5   6  -7   35.15    6.49
  -5   6   8    9.41    3.89
  -5   6  -8   25.34    8.02
  -5  -6   8    7.67    3.62
   5   6   8   15.82    5.90
   5   6  -8   13.78    5.63
  -5   6  -8   14.24    5.68
  -5   6   9    7.20    2.74
  -5   6  -9    2.37    4.68
  -5  -6  -9    8.42    6.39
   5   6   9   17.19    4.75
   5   6  -9   12.09    5.30
  -5   6  -9    2.25    3.30
  -5   6  10   40.64    7.66
  -5   6 -10   31.29    7.81
  -5  -6 -10   46.51    8.43
   5   6  10   43.33    9.89
   5   6 -10   25.58    5.92
  -5   6 -10   60.16    7.07
  -5   6  11   18.80    4.22
  -5   6 -11   24.37    7.91
  -5  -6 -11   35.31    8.55
   5   6  11   30.22    7.50
   5   6 -11   28.32    6.35
  -5   6 -11   26.32    6.26
  -5   6  12  110.59   14.44
  -5   6 -12  169.78   14.95
  -5  -6 -12  150.63   13.80
   5   6  12  145.06   23.86
   5   6 -12  178.84   14.14
  -5   6 -12  173.15   14.42
  -5   6  13    1.67    1.56
  -5   6 -13   21.59    7.43
  -5  -6 -13    6.11    6.44
   5   6  13    9.61    4.99
   5   6 -13   19.93    7.14
  -5   6 -13   11.09    4.45
  -5   6 -14   98.02    9.92
  -5  -6 -14   85.53   11.29
   5   6  14   88.99    9.67
   5   6 -14   92.07    8.95
  -5   6 -14  102.54    9.85
  -5   6 -15   75.06   12.07
  -5  -6 -15   31.03    7.92
   5   6  15   41.82    9.08
   5   6 -15   48.61    7.86
  -5   6 -15   48.90    9.04
  -5   6 -16  100.27   13.67
  -5  -6 -16  106.83   17.33
   5   6  16   82.84   17.09
   5   6 -16   97.82   13.53
  -5   6 -16  106.25   16.07
  -5   6 -17   49.18    9.93
  -5  -6 -17   41.06   10.72
   5   6  17   33.29    9.37
   5   6 -17   47.53    8.65
  -5   6 -17   30.32    8.11
  -5   7   0  223.08   10.58
  -5  -7   0  208.16   10.05
   5   7   0  211.91   10.56
  -5   7   1  360.22   13.81
  -5   7  -1  348.89   12.82
  -5  -7  -1  380.30   14.98
  -5  -7   1  332.11   12.37
   5   7   1  378.26   14.57
   5   7  -1  345.47   12.61
  -5   7  -1  330.98    9.42
  -5   7   2  549.92   17.08
  -5   7  -2  512.01   16.56
  -5  -7   2  567.42   17.97
  -5  -7  -2  557.97   17.90
   5   7   2  539.30   17.47
   5   7  -2  587.46   18.71
  -5   7  -2  518.91   14.12
  -5   7   3  233.10   10.19
  -5   7  -3  215.96   10.86
  -5  -7   3  231.73   10.04
  -5  -7  -3  223.75   12.07
   5   7   3  216.69   10.40
   5   7  -3  235.31   11.34
  -5   7  -3  215.24    7.97
  -5   7   4  169.37    9.60
  -5   7  -4  191.47   10.65
  -5  -7   4  179.70    9.18
  -5  -7  -4  199.57   10.93
   5   7   4  179.30   10.74
   5   7  -4  199.36   10.46
  -5   7  -4  170.80    6.50
  -5   7   5  182.13    9.24
  -5   7  -5  175.21   10.24
  -5  -7   5  192.57    8.65
  -5  -7  -5  176.20   13.06
   5   7   5  198.70   15.80
   5   7  -5  209.30   11.49
  -5   7  -5  196.16    7.88
  -5   7   6  235.01   10.72
  -5   7  -6  225.92   11.51
  -5  -7   6  238.19    9.51
  -5  -7  -6  226.15   12.11
   5   7   6  255.56   25.01
   5   7  -6  220.02   11.06
  -5   7  -6  241.67    9.30
  -5   7   7    6.00    3.14
  -5   7  -7    5.16    4.68
  -5  -7   7   12.72    4.21
  -5  -7  -7    6.52    5.62
   5   7   7    1.95    3.24
   5   7  -7   12.42    5.73
  -5   7  -7   24.90    5.59
  -5   7   8  172.74    9.85
  -5   7  -8  151.06   11.81
  -5  -7   8  139.67    7.49
  -5  -7  -8  155.75   11.08
   5   7   8  170.67   17.68
   5   7  -8  145.47    9.52
  -5   7  -8  152.32    9.31
  -5   7   9   16.81    5.01
  -5   7  -9   10.89    4.97
  -5  -7  -9   23.10    9.40
   5   7   9   10.20    3.61
   5   7  -9   11.10    5.78
  -5   7  -9   10.85    3.84
  -5   7  10  106.88    9.01
  -5   7 -10   77.53   10.14
  -5  -7 -10   97.36   11.61
   5   7  10  101.83   12.33
   5   7 -10   90.49    8.55
  -5   7 -10   93.75    9.57
  -5   7  11  124.11   12.37
  -5   7 -11  155.62   14.27
  -5  -7 -11  144.39   15.18
   5   7  11  112.93   16.89
   5   7 -11  142.81   12.05
  -5   7 -11  138.13   11.77
  -5   7  12   39.12    7.18
  -5   7 -12   51.74    9.58
  -5  -7 -12   33.73   11.07
   5   7  12   64.11    9.83
   5   7 -12   43.28    6.27
  -5   7 -12   53.72    7.76
  -5   7  13   52.57    7.84
  -5   7 -13   61.67    8.28
  -5  -7 -13   80.82   13.04
   5   7  13   69.79   11.39
   5   7 -13   68.38    8.33
  -5   7 -13   83.80    9.77
  -5   7 -14   39.60    8.19
  -5  -7 -14   27.96   10.53
   5   7  14   20.66    7.24
   5   7 -14   30.82    6.72
  -5   7 -15   24.91    7.02
  -5  -7 -15   39.01    9.92
   5   7  15   19.77    6.52
   5   7 -15   27.09    5.34
  -5   7 -15   24.42    8.24
  -5   7 -16    8.13    4.41
  -5  -7 -16   -3.97    6.14
   5   7  16    6.06    4.94
   5   7 -16    1.66    3.61
  -5   7 -16    8.34    4.73
  -5   7 -17   15.89    4.92
  -5  -7 -17   40.11    8.61
   5   7  17   29.34    7.74
   5   7 -17   23.21    5.95
  -5   7 -17   47.53    9.96
  -5   8   0   48.89    9.20
  -5  -8   0   29.00    7.26
   5   8   0   52.41    8.51
  -5   8   1   93.44    7.00
  -5   8  -1   79.88    7.18
  -5  -8  -1  102.61    9.49
  -5  -8   1   91.34    7.29
   5   8   1  106.77    9.50
   5   8  -1   84.67    6.61
  -5   8   2   53.39    8.33
  -5   8  -2   67.28    6.56
  -5  -8   2   53.77    8.85
  -5  -8  -2   39.41    6.63
   5   8   2   50.91    8.61
   5   8  -2   76.35    8.22
  -5   8  -2   57.80    7.95
  -5   8   3   39.65    7.95
  -5  -8   3   30.62    6.44
  -5  -8  -3   53.63   10.00
   5   8   3   50.19    8.25
   5   8  -3   55.02    8.83
  -5   8  -3   42.93    6.46
  -5   8   4   82.14    6.24
  -5   8  -4   73.59    6.94
  -5  -8   4   99.27    7.51
  -5  -8  -4   90.82    9.32
   5   8   4  112.76   10.02
   5   8  -4   79.06    6.33
  -5   8  -4   96.41    5.59
  -5   8   5  130.16    9.52
  -5   8  -5  151.97   11.94
  -5  -8   5  136.59    8.56
  -5  -8  -5  126.72    9.92
   5   8   5  125.17   10.42
   5   8  -5  151.15   10.55
  -5   8  -5  132.99    7.87
  -5   8   6    8.49    3.34
  -5   8  -6   -0.17    4.65
  -5  -8   6    6.55    4.41
  -5  -8  -6    3.10    6.63
   5   8   6    8.79    3.93
   5   8  -6   17.11    6.27
  -5   8  -6    1.64    3.98
  -5   8   7  103.02    7.87
  -5   8  -7  104.09    9.52
  -5  -8   7   94.41    6.23
  -5  -8  -7   93.20   10.59
   5   8   7  101.41   10.36
   5   8  -7   97.02    8.07
  -5   8  -7  106.67    7.85
  -5   8   8   35.51    7.71
  -5   8  -8   57.45    6.85
  -5  -8   8   51.45    5.36
  -5  -8  -8   37.86    9.83
   5   8   8   19.19    5.16
   5   8  -8   34.03    7.03
  -5   8  -8   51.97    5.47
  -5   8   9   50.44    5.77
  -5   8  -9   69.76    9.10
   5   8   9   50.28    7.64
   5   8  -9   62.52    8.31
  -5   8  -9   47.44    5.83
  -5   8  10   36.90    7.33
  -5   8 -10   41.52    9.24
  -5  -8 -10   46.28    8.99
   5   8  10   63.43    8.71
   5   8 -10   51.89    8.00
  -5   8 -10   48.30    6.54
  -5   8  11   10.18    2.83
  -5   8 -11    2.93    4.40
  -5  -8 -11   29.68   10.29
   5   8  11    2.33    3.01
   5   8 -11   13.73    6.24
  -5   8 -11    9.15    3.86
  -5   8  12    6.50    2.13
  -5   8 -12   27.01    8.70
  -5  -8 -12    4.30    6.41
   5   8  12   11.30    2.80
   5   8 -12   12.11    5.32
  -5   8 -12    4.12    3.56
  -5   8  13   53.34   10.09
  -5   8 -13  102.10   14.62
  -5  -8 -13   98.70   14.38
   5   8  13  109.15   20.29
   5   8 -13   82.23   11.14
  -5   8 -13   93.39   12.06
  -5   8 -14   42.21    9.35
  -5  -8 -14   27.47    8.44
   5   8  14   13.55    6.24
   5   8 -14    9.60    4.41
  -5   8 -14   19.60    7.08
  -5   8 -15   17.22    5.68
  -5  -8 -15   31.51    9.62
   5   8  15   34.06    8.88
   5   8 -15   41.75   10.05
  -5   8 -15   24.54    6.46
  -5   8 -16   36.99    7.76
  -5  -8 -16   54.60   11.14
   5   8  16   26.37    6.66
   5   8 -16   26.37    6.75
  -5   8 -16   12.96    6.22
  -5   9   0   20.15    6.34
  -5  -9   0   11.45    5.32
   5   9   0   28.65    7.87
  -5   9   1  232.38   12.49
  -5   9  -1  264.41   14.39
  -5  -9  -1  228.61   12.86
  -5  -9   1  266.54   14.42
   5   9   1  266.57   15.45
   5   9  -1  232.59   13.10
  -5   9   2   54.09    8.49
  -5   9  -2   38.58    6.45
  -5  -9   2   53.88    7.99
  -5  -9  -2   51.25    9.81
   5   9   2   50.25    8.36
   5   9  -2   57.07    9.45
  -5   9   3  135.15    8.89
  -5  -9   3  130.33    9.12
  -5  -9  -3  134.17   10.05
   5   9   3  127.44   10.57
   5   9  -3  138.50   10.07
  -5   9   4   20.43    5.62
  -5   9  -4   30.84    7.13
  -5  -9   4   15.29    4.21
  -5  -9  -4   15.68    5.87
   5   9   4   29.46    5.96
   5   9  -4   30.57    7.27
  -5   9   5  332.47   14.14
  -5   9  -5  314.03   14.28
  -5  -9   5  332.34   13.62
  -5  -9  -5  337.67   15.60
   5   9   5  325.01   14.53
   5   9  -5  349.91   14.97
  -5   9  -5  299.57   11.82
  -5   9   6  102.92    7.66
  -5   9  -6   90.63    8.84
  -5  -9   6   79.50    5.92
  -5  -9  -6  100.28   11.42
   5   9   6   91.98   10.47
   5   9  -6   81.49    6.81
  -5   9   7  212.66   15.64
  -5   9  -7  218.78   17.43
  -5  -9   7  200.91   14.55
  -5  -9  -7  263.40   20.41
   5   9   7  227.33   28.89
   5   9  -7  238.62   18.06
  -5   9  -7  201.40   14.53
  -5   9   8   14.17    4.76
  -5   9  -8   13.26    6.55
  -5  -9  -8   23.81    9.60
   5   9   8    8.77    4.48
   5   9  -8   27.43    8.31
  -5   9  -8    9.95    4.70
  -5   9   9  109.75   10.40
  -5   9  -9   99.89   10.53
  -5  -9  -9  101.02   14.09
   5   9   9  104.82   14.88
   5   9  -9  115.54   11.38
  -5   9  -9  115.41   10.89
  -5   9  10   27.60    6.05
  -5   9 -10   20.71    5.97
  -5  -9 -10   40.16    9.00
   5   9  10   46.71    6.96
   5   9 -10   22.35    6.52
  -5   9 -10   17.74    4.42
  -5   9  11   36.17    5.37
  -5   9 -11   42.38    6.67
  -5  -9 -11   38.23    8.28
   5   9  11   20.86    4.74
   5   9 -11   40.16    5.68
  -5   9 -11   31.02    8.28
  -5   9  12   46.22    7.97
  -5   9 -12   68.83   10.27
  -5  -9 -12   54.26   12.01
   5   9  12   46.94   11.28
   5   9 -12   61.26    8.70
  -5   9 -12   42.45    7.17
  -5   9  13   45.30    8.87
  -5   9 -13   85.31   11.99
  -5  -9 -13  120.00   18.69
   5   9  13   88.15   14.92
   5   9 -13   91.53   12.55
  -5   9 -13  103.32   14.44
  -5   9 -14    9.08    4.47
  -5  -9 -14    8.36    6.24
   5   9  14    9.68    4.81
   5   9 -14   24.52    7.25
  -5   9 -14   15.48    6.29
  -5   9 -15    7.22    4.21
  -5  -9 -15   16.06    6.78
   5   9  15   14.77    4.93
   5   9 -15   15.73    6.37
  -5   9 -15    9.10    4.38
  -5  10   0   18.84    6.65
  -5 -10   0   20.46    8.02
   5  10   0   16.98    5.54
  -5  10   1   16.11    5.08
  -5  10  -1    2.70    3.87
  -5 -10   1   12.44    8.32
  -5 -10  -1    4.86    5.19
   5  10   1   10.69    6.35
   5  10  -1    2.24    4.20
  -5  10   2   35.12    7.77
  -5  10  -2   37.85    8.85
  -5 -10   2   28.42    7.53
  -5 -10  -2   37.02   10.45
   5  10   2   27.89    7.67
   5  10  -2   25.13    6.23
  -5  10   3   19.88    5.06
  -5  10  -3   12.01    4.72
  -5 -10   3   14.49    5.24
  -5 -10  -3   24.68    8.54
   5  10   3   25.69    7.14
   5  10  -3   29.45    8.19
  -5  10   4   61.12    7.08
  -5  10  -4   79.13    8.08
  -5 -10   4   78.82    7.48
  -5 -10  -4   60.87    9.04
   5  10   4   71.97    7.28
   5  10  -4   57.66    5.91
  -5  10   5   19.32    7.21
  -5  10  -5   14.41    5.89
  -5 -10   5    7.10    3.43
  -5 -10  -5    5.02    4.95
   5  10   5    8.16    4.14
   5  10  -5   11.56    4.82
  -5  10   6   20.61    5.26
  -5  10  -6   30.20    7.47
  -5 -10   6   30.02    6.74
  -5 -10  -6   26.30    9.48
   5  10   6   19.22    5.54
   5  10  -6   20.91    5.43
  -5  10  -6   20.50    5.20
  -5  10   7   23.45    6.40
  -5  10  -7   15.27    6.34
  -5 -10   7   15.19    4.29
  -5 -10  -7    6.84    6.04
   5  10   7   41.72    7.80
   5  10  -7   30.93    7.07
  -5  10  -7   15.33    4.27
  -5  10   8   68.76    7.79
  -5  10  -8   86.93   10.72
  -5 -10  -8   84.74   10.41
   5  10   8   79.48   12.57
   5  10  -8   61.09    7.05
  -5  10  -8   80.12    8.45
  -5  10   9  138.06   11.64
  -5  10  -9  172.79   15.93
  -5 -10  -9  119.27   12.15
   5  10  -9  123.65   10.96
  -5  10  -9  152.06   12.56
  -5  10  10   81.87   10.73
  -5  10 -10   83.14    9.99
   5  10  10   88.17   11.43
   5  10 -10   58.50    7.17
  -5  10 -10   62.32    7.99
  -5  10  11   67.43    9.74
  -5 -10 -11   69.04   12.65
   5  10  11   47.10    7.92
   5  10 -11   67.28   10.42
  -5  10 -11   73.31   10.74
  -5  10  12   58.65   10.80
  -5  10 -12   88.70   12.92
  -5 -10 -12   73.92   12.45
   5  10  12   66.10   14.20
   5  10 -12   91.95   13.12
  -5  10  13   20.45    6.19
  -5  10 -13   32.72    8.17
  -5 -10 -13   32.56    9.28
   5  10  13   30.39    9.35
   5  10 -13   29.64    7.63
  -5  10 -13   39.75   10.10
  -5 -10 -14   30.56    6.52
   5  10  14   54.90   10.60
   5  10 -14   58.91    8.95
  -5  10 -14   55.53    9.94
  -5  11   0  172.00   14.92
  -5 -11   0  127.34   11.80
   5  11   0  161.08   13.78
  -5  11   1    9.56    5.41
  -5  11  -1   19.87    6.95
  -5 -11  -1   23.31    8.21
  -5 -11   1   14.40    6.89
   5  11   1   12.44    6.00
   5  11  -1    8.36    4.31
  -5  11   2   59.83    7.91
  -5 -11  -2   49.31    7.47
  -5 -11   2   68.92    8.49
   5  11   2   72.14    9.34
   5  11  -2   61.07    6.88
  -5  11   3    5.07    3.90
  -5  11  -3   15.42    4.93
  -5 -11  -3   26.52    8.58
  -5 -11   3   13.94    5.79
   5  11   3    4.41    3.90
   5  11  -3   18.49    6.49
  -5  11   4   37.28    5.99
  -5  11  -4   30.45    7.36
  -5 -11   4   29.66    6.72
  -5 -11  -4   38.97    7.56
   5  11   4   35.07    8.33
   5  11  -4   31.72    7.85
  -5  11   5   83.55   10.02
  -5  11  -5   73.17    8.39
  -5 -11   5   70.32    7.36
  -5 -11  -5   69.95   11.79
   5  11   5   84.39    9.37
  -5  11   6  102.33   10.13
  -5  11  -6   84.76    9.68
  -5 -11   6   76.24    8.02
  -5 -11  -6  108.75   11.83
   5  11   6   80.36   10.04
   5  11  -6   96.33   10.47
  -5  11   7  107.36   10.61
  -5  11  -7  131.95   12.69
  -5 -11  -7  127.12   14.13
   5  11  -7  121.07   11.45
  -5  11   8   33.30    8.84
  -5  11  -8   28.86    6.31
  -5 -11  -8   31.01   10.48
   5  11   8   29.52    7.01
   5  11  -8   23.10    5.34
  -5  11  -9   46.40    8.61
  -5 -11  -9   68.91   12.52
   5  11   9   46.25    9.39
   5  11  -9   28.56    8.00
  -5  11  -9   49.52    7.62
  -5  11  10    7.69    3.41
  -5  11 -10   17.74    6.65
  -5 -11 -10   35.55    9.57
   5  11  10   42.34    7.39
   5  11 -10   17.51    7.04
  -5  11 -10   25.86    7.29
  -5  11  11   90.85   14.17
  -5  11 -11  136.34   18.12
  -5 -11 -11  115.05   18.17
   5  11  11  106.87   16.95
   5  11 -11   88.13   12.08
  -5  11 -11  128.91   16.76
  -5  11  12   32.69   10.24
  -5  11 -12   74.92   12.16
  -5 -11 -12   33.19    9.40
   5  11  12   64.52   12.69
   5  11 -12   39.37    9.03
  -5  11 -12   32.30    7.80
  -5  11  13   17.09    5.38
  -5  11 -13   27.15    5.65
  -5 -11 -13   31.95    9.50
   5  11  13   22.05    7.85
   5  11 -13   25.67    6.75
  -5  12   0    5.22    4.29
  -5 -12   0    4.96    4.52
   5  12   0   10.36    4.61
  -5  12   1   16.15    4.80
  -5  12  -1   10.31    4.77
  -5 -12  -1    6.57    5.50
  -5 -12   1   11.80    6.76
   5  12   1   19.70    6.92
   5  12  -1   19.60    5.73
  -5  12   2  105.19   10.68
  -5  12  -2   92.86   10.37
  -5 -12  -2  104.44   12.06
  -5 -12   2   90.02    9.77
   5  12   2   99.29   10.13
   5  12  -2   90.13    9.64
  -5  12   3   65.36    8.12
  -5  12  -3   96.11   10.00
  -5 -12   3   99.65   10.76
  -5 -12  -3   95.23   11.24
   5  12   3   79.28    8.71
   5  12  -3   84.33   10.28
  -5  12   4  216.25   17.24
  -5  12  -4  221.17   17.64
  -5 -12   4  205.39   16.32
  -5 -12  -4  187.10   15.48
   5  12   4  211.46   17.02
   5  12  -4  197.26   15.30
  -5  12   5  112.31   11.16
  -5 -12   5  102.89    9.56
  -5 -12  -5  135.06   14.53
   5  12  -5  139.95   13.05
  -5  12   6  134.88   16.51
  -5  12  -6  128.82   15.98
  -5 -12   6  141.14   16.35
  -5 -12  -6  154.29   18.99
   5  12   6  146.85   18.60
   5  12  -6  156.13   18.69
  -5  12   7   13.84    5.62
  -5  12  -7   15.80    6.68
  -5 -12  -7   20.69    7.46
   5  12   7    3.85    3.31
  -5  12   8  156.03   23.51
  -5  12  -8  164.23   20.31
  -5 -12  -8  196.83   26.53
   5  12   8  161.68   27.76
   5  12  -8  170.73   21.63
  -5  12   9   10.56    4.36
  -5  12  -9   22.29    7.46
  -5 -12  -9   11.89    8.34
   5  12   9   23.57    8.18
   5  12  -9   24.73    8.23
  -5  12  10   61.45   10.13
  -5  12 -10   90.37   12.89
  -5 -12 -10   55.76   10.37
   5  12  10   60.82   14.96
   5  12 -10   67.57   11.62
  -5  12  11    4.08    3.07
  -5  12 -11   12.92    4.60
  -5 -12 -11    3.59    6.38
   5  12  11    7.40    3.87
   5  12 -11   29.82    6.66
  -5  12  12   26.75    5.68
  -5  12 -12   18.94    5.46
  -5 -12 -12   20.84    9.67
   5  12 -12   45.80    9.26
  -5  12 -12   50.03    8.52
  -5  13   0   55.57    8.31
  -5 -13   0   56.33    9.46
   5  13   0   54.95    8.96
  -5  13  -1    9.14    4.55
  -5  13   1   21.65    6.34
  -5 -13  -1   20.37    8.26
  -5 -13   1    9.34    4.87
   5  13   1    6.54    4.35
   5  13  -1    3.42    4.18
  -5  13  -2   37.87    6.98
  -5 -13  -2   29.00    9.61
  -5 -13   2   35.83    7.44
   5  13   2   35.16    6.88
   5  13  -2   35.90    7.04
  -5  13   3   28.46    8.09
  -5  13  -3   10.20    4.93
  -5 -13  -3   34.01    8.77
  -5 -13   3   24.20    7.45
   5  13   3   14.87    6.55
   5  13  -3   21.50    7.52
  -5  13   4    8.50    3.87
  -5  13  -4    8.26    6.18
  -5 -13   4   31.71    7.34
  -5 -13  -4   13.67    7.86
   5  13   4   32.25    6.70
   5  13  -4   11.45    6.31
  -5  13   5   41.97    8.28
  -5  13  -5   43.98    8.23
  -5 -13   5   38.27    7.24
  -5 -13  -5   47.71    9.23
   5  13   5   41.77    8.78
   5  13  -5   40.84    7.36
  -5  13   6   71.38   10.84
  -5  13  -6   65.01   10.56
  -5 -13  -6   52.10    9.95
   5  13   6   68.95   12.86
   5  13  -6   72.52   10.42
  -5  13   7   14.68    4.27
  -5  13  -7   15.43    6.43
  -5 -13  -7    4.54    5.61
   5  13   7    2.37    4.19
   5  13  -7   15.10    6.59
  -5  13   8   65.63   11.74
  -5  13  -8   58.04   10.80
  -5 -13  -8   67.42   11.93
   5  13   8   56.81   10.66
   5  13  -8   40.86   10.05
  -5  13   9   10.75    5.38
  -5  13  -9   13.97    4.63
   5  13   9   31.93    8.51
  -5  13  10   27.14    7.25
  -5  13 -10   34.60    6.60
  -5 -13 -10   55.00   12.26
   5  13 -10   66.05   11.18
  -5  14   0   42.30    8.74
  -5 -14   0   29.94    6.91
   5  14   0   40.86    7.32
  -5  14   1   19.90    7.12
  -5 -14  -1   42.48    8.57
  -5 -14   1   10.93    5.00
   5  14   1   16.50    7.08
   5  14  -1   21.39    7.71
  -5  14   2   18.21    6.10
  -5  14  -2   29.98    7.18
  -5 -14  -2   21.18    8.44
  -5 -14   2   15.60    6.77
   5  14   2   10.74    4.97
   5  14  -2    9.55    4.66
  -5  14   3   47.82    8.65
  -5  14  -3   17.12    7.52
  -5 -14   3    9.27    4.32
  -5 -14  -3   22.39    6.61
   5  14   3   27.53    6.46
   5  14  -3   37.54    7.30
  -5  14   4   12.75    6.03
  -5  14  -4    4.58    5.25
  -5 -14   4    2.19    3.69
  -5 -14  -4   14.49    5.90
   5  14   4   18.46    7.26
   5  14  -4    5.38    5.74
  -5  14   5   27.20    7.73
  -5  14  -5   10.96    4.36
  -5 -14   5   24.05    6.44
  -5 -14  -5   25.98    7.86
   5  14   5   29.27    8.06
   5  14  -5   30.09    8.30
  -5  14   6   30.54    9.15
  -5  14  -6   54.29    9.20
  -5 -14  -6   41.84   11.38
   5  14   6   57.19   10.52
   5  14  -6   30.15    8.13
  -5  14   7   21.29    7.29
  -5  14  -7   34.61    7.15
  -5 -14  -7   30.43    7.62
   5  14   7   28.81    6.63
   5  14  -7   46.32    8.88
  -5  14   8   36.12    7.67
  -5  14  -8   36.24    7.01
  -5 -14  -8   12.10    5.95
   5  14  -8   42.72    7.90
  -5  15   0    7.51    4.17
  -5 -15   0    7.47    4.86
   5  15   0   15.32    6.51
  -5 -15  -1   27.39    6.02
  -5 -15   1   44.05    8.76
   5  15  -1   41.22    7.95
  -5  15   2   23.92    6.14
  -5  15  -2   29.82    7.35
  -5 -15  -2   19.09    7.72
  -5 -15   2   30.69    6.91
   5  15   2   28.86    7.23
   5  15  -2   11.88    4.54
  -5  15   3   27.56    5.93
  -5  15  -3   25.76    6.46
  -5 -15  -3   21.20    8.19
  -5 -15   3   20.99    6.95
   5  15   3   15.62    5.30
   5  15  -3   34.62    6.44
  -5  15   4    3.39    3.39
  -5  15  -4    8.28    5.02
  -5 -15   4    1.60    3.34
  -5 -15  -4   17.76    9.22
   5  15   4    3.02    4.33
   5  15  -4   11.30    5.62
  -6   0   0   74.55    7.81
   6   0   0   75.69    6.74
  -6   0   1   19.67    5.59
  -6   0  -1   30.63    7.89
   6   0   1   20.93    4.55
   6   0  -1   28.65    5.69
  -6   0   2  102.03    7.93
  -6   0  -2  101.86    8.06
   6   0   2  118.25   13.30
   6   0  -2  107.18    8.47
  -6   0   3    3.79    4.23
  -6   0  -3   28.89    8.18
   6   0   3    3.78    2.06
   6   0  -3    4.80    3.04
  -6   0   4    3.81    3.72
  -6   0  -4    5.99    5.93
   6   0   4   12.43    3.95
   6   0  -4   10.92    4.04
  -6   0   5  238.39   12.30
  -6   0  -5  246.03   15.97
   6   0   5  237.40   23.75
   6   0  -5  241.74   11.31
  -6   0   6   13.46    4.77
  -6   0  -6    8.25    6.22
   6   0   6   12.93    4.00
   6   0  -6    7.78    2.61
  -6   0   7   24.18    5.74
  -6   0  -7   40.06   11.95
   6   0   7   29.13    6.79
   6   0  -7   17.43    3.76
  -6   0   8   79.50    5.25
  -6   0  -8   75.09    9.60
   6   0   8   89.88    9.07
  -6   0   9   93.25    7.46
  -6   0  -9   85.81    9.93
   6   0   9  100.20   11.37
  -6   0 -10   25.15    9.27
   6   0  10   25.94    6.52
   6   0  11  381.12   40.86
  -6   0 -12   21.81   10.17
   6   0  12   18.78    5.69
  -6   0 -13  297.70   66.84
   6   0  13  278.02   41.05
  -6   0 -14    4.91    5.95
   6   0  14    4.07    4.32
  -6   0 -15  233.41   43.84
   6   0  15  230.81   30.02
  -6   0 -16   32.47    8.04
  -6   0 -16   12.67    7.50
  -6   1   0    7.57    4.72
  -6  -1   0   11.54    5.11
   6  -1   0    8.80    4.14
   6   1   0   13.50    4.12
  -6   1   1  188.46    9.40
  -6   1  -1  200.14   11.49
  -6  -1   1  192.88   10.22
  -6  -1  -1  187.07   10.93
   6  -1   1  181.87   13.48
   6  -1  -1  184.47   14.45
   6   1   1  190.76   16.33
   6   1  -1  193.39   13.66
  -6   1   2   21.64    5.72
  -6   1  -2   28.16    6.25
  -6  -1   2   31.76    6.18
  -6  -1  -2   56.91   10.34
   6  -1   2   55.63   10.42
   6  -1  -2   41.54    8.05
   6   1   2   45.43    7.74
   6   1  -2   37.51    6.41
  -6   1   3   41.46    8.25
  -6  -1   3   55.06    9.09
  -6   1  -3   39.56    8.44
  -6  -1  -3   21.60    8.07
   6  -1   3   45.38    7.97
   6   1   3   52.85    9.01
   6  -1  -3   38.66    6.60
   6   1  -3   40.88    6.40
  -6   1   4   22.26    4.39
  -6  -1   4    8.16    4.17
  -6   1  -4   20.31    6.34
  -6  -1  -4   24.34    6.51
   6  -1   4   32.99    5.83
   6   1   4   21.46    5.17
   6  -1  -4   24.95    4.06
   6   1  -4   29.08    5.41
  -6   1   5    8.37    3.45
  -6  -1   5   12.21    5.48
  -6   1  -5   11.78    6.04
  -6  -1  -5    2.82    6.26
   6  -1   5    9.27    3.73
   6   1   5   11.11    4.47
   6  -1  -5    5.57    1.98
   6   1  -5    9.24    3.73
  -6   1   6   36.04    6.23
  -6  -1   6   24.14    4.23
  -6   1  -6   29.87    6.76
  -6  -1  -6   21.89    6.76
   6  -1   6   27.44    5.98
   6   1   6   25.93    5.01
   6   1  -6   30.85    4.92
  -6   1   7   30.24    6.34
  -6  -1   7   23.64    5.53
  -6   1  -7   43.89   11.29
  -6  -1  -7   37.15    9.26
   6   1   7   25.09    5.75
   6   1  -7   23.85    5.16
  -6   1   8   25.25    5.55
  -6  -1   8   26.19    5.50
  -6   1  -8   58.53    9.87
   6  -1   8   27.23    6.96
   6   1   8   40.05    8.96
   6   1  -8   26.33    5.22
  -6   1   9   52.35    5.28
  -6   1  -9   64.96    8.30
  -6  -1  -9   20.21    6.76
   6  -1   9   56.59    8.83
   6   1   9   60.99    7.90
  -6   1 -10  202.09   18.97
  -6  -1 -10  198.30   19.06
   6  -1  10  174.71   20.87
   6   1  10  217.35   28.65
  -6   1 -11  108.75   13.85
  -6  -1 -11  130.45   13.42
   6  -1  11  102.03   16.57
   6   1  11  121.32   17.21
  -6   1 -12   79.76    9.36
  -6  -1 -12   72.35   11.32
   6  -1  12   78.02   11.18
   6   1  12   76.04   11.93
  -6   1 -13   45.90    9.06
  -6  -1 -13   47.72   10.23
   6  -1  13   51.31   10.66
   6   1  13   48.69   10.30
  -6   1 -14   78.82   13.79
  -6  -1 -14   55.44   10.99
   6   1  14   47.65    9.17
  -6   1 -15   97.79   16.04
  -6  -1 -15   64.24   12.25
   6   1  15   69.72   15.95
  -6   1 -15   76.97   11.99
  -6   1 -16   72.10   11.49
  -6  -1 -16  110.90   16.96
   6   1  16   68.52   15.13
  -6   1 -16   73.84   11.89
  -6   2   0    6.87    4.80
  -6  -2   0   19.30    6.32
   6  -2   0   10.33    2.98
   6   2   0   12.98    3.18
  -6   2   1   38.72    7.79
  -6   2  -1   45.37    8.29
  -6  -2   1   29.50    6.59
  -6  -2  -1   38.85    8.48
   6  -2   1   35.76    6.88
   6  -2  -1   42.44    7.76
   6   2   1   46.93    8.35
   6   2  -1   54.35    9.69
  -6   2   2   49.31    9.04
  -6   2  -2   48.53    9.12
  -6  -2   2   56.71    9.48
  -6  -2  -2   32.98    7.56
   6  -2   2   51.09    7.95
   6  -2  -2   43.50    7.79
   6   2   2   54.65    9.56
   6   2  -2   57.55    8.56
  -6   2   3  117.39    8.80
  -6   2  -3  116.02   10.53
  -6  -2   3   77.76    6.79
  -6  -2  -3  111.41   11.12
   6  -2   3   98.51   10.63
   6  -2  -3   79.10    8.90
   6   2   3  110.04   11.10
   6   2  -3  102.01    6.98
  -6   2   4   71.54    6.16
  -6  -2   4   46.04    6.76
  -6   2  -4   55.43    9.56
  -6  -2  -4   60.56    9.12
   6  -2   4   61.77    9.26
   6   2   4   71.89    9.43
   6   2  -4   85.75    6.82
  -6   2   5   22.74    5.32
  -6   2  -5   11.25    5.89
  -6  -2   5    7.55    3.87
  -6  -2  -5   32.38    8.42
   6  -2   5   23.41    4.75
   6   2   5   28.39    5.23
   6   2  -5   17.88    4.44
  -6   2   6   23.24    5.76
  -6  -2   6    8.91    3.24
  -6   2  -6   27.50    9.04
  -6  -2  -6   17.81    6.90
   6  -2   6   24.35    5.66
   6   2   6   22.77    5.80
   6   2  -6   22.23    5.55
  -6   2   7   15.31    5.81
  -6  -2   7   10.01    4.04
  -6  -2  -7    5.77    5.78
   6  -2   7    8.18    3.49
   6   2   7   14.15    5.17
   6   2  -7    8.10    3.10
  -6   2   8    2.11    2.35
  -6  -2   8    4.19    2.23
  -6   2  -8    3.86    4.92
  -6  -2  -8    2.63    5.81
   6  -2   8    4.08    2.02
   6   2   8   10.08    4.49
   6   2  -8    2.12    3.73
  -6   2   9    4.72    4.02
  -6   2  -9    4.25    5.14
  -6  -2  -9    7.31    5.75
   6  -2   9    6.80    2.79
   6   2   9    6.19    4.00
   6   2  -9   11.68    3.81
  -6   2  10   17.97    4.02
  -6   2 -10   17.30    8.57
  -6  -2 -10   17.47    8.80
   6  -2  10   12.98    5.51
   6   2  10   15.80    4.59
   6   2 -10    6.04    3.48
  -6   2 -11    4.49    5.40
  -6  -2 -11    8.75    8.62
   6  -2  11   17.75    5.62
   6   2  11    7.93    3.62
  -6   2 -12   92.47   12.25
  -6  -2 -12   54.93   10.26
   6   2  12   69.58   12.03
  -6   2 -12   86.74   10.71
  -6   2 -13   43.62    9.23
  -6  -2 -13   60.66   11.49
   6   2  13   28.65    9.41
  -6   2 -13   44.13    8.57
  -6   2 -14  103.24   15.06
  -6  -2 -14  120.29   18.54
   6   2  14   89.93   19.08
  -6   2 -14  113.30   16.10
  -6   2 -15   68.98   12.60
  -6  -2 -15   49.52   11.36
   6   2  15   53.07   11.77
  -6   2 -15  102.66   15.87
  -6   3   0  303.12   16.32
  -6  -3   0  271.55   14.95
   6  -3   0  263.83   11.96
   6   3   0  304.24   21.80
  -6   3   1   60.83    8.85
  -6   3  -1   62.87    9.99
  -6  -3   1   69.38    6.64
  -6  -3  -1   67.46    8.96
   6  -3   1   58.45   10.11
   6  -3  -1   44.56    7.49
   6   3   1   55.91    8.40
   6   3  -1   61.23    8.13
  -6   3   2  362.15   17.91
  -6   3  -2  359.51   18.17
  -6  -3   2  387.00   18.12
  -6  -3  -2  357.10   18.19
   6  -3   2  361.27   15.69
   6   3   2  317.43   32.33
   6   3  -2  325.86   14.85
  -6   3   3   -0.13    4.15
  -6   3  -3    6.32    5.27
  -6  -3   3    5.96    5.70
  -6  -3  -3   11.52    6.01
   6  -3   3    3.40    1.92
   6   3   3    9.55    3.66
   6   3  -3    1.99    2.76
  -6   3   4   75.22    7.70
  -6   3  -4   80.21    7.58
  -6  -3   4   53.75    7.68
  -6  -3  -4   71.41    7.81
   6  -3   4   84.70   10.26
   6   3   4   70.31    8.57
   6   3  -4   96.92    7.66
  -6   3   5   25.19    6.18
  -6   3  -5   31.04    9.33
  -6  -3   5   14.24    5.67
  -6  -3  -5   11.14    5.78
   6  -3   5   25.14    5.65
   6   3   5   31.07    7.33
   6   3  -5   30.28    6.60
  -6   3   6   83.68    6.83
  -6   3  -6  102.95    9.99
  -6  -3   6   99.30    7.50
  -6  -3  -6   81.33   10.92
   6  -3   6   66.79   10.21
   6   3   6   86.94    8.44
   6   3  -6   97.50    6.68
  -6   3   7   50.41    5.42
  -6   3  -7   39.45    8.88
  -6  -3   7   46.32    4.49
  -6  -3  -7   48.04    7.77
   6  -3   7   54.47    6.30
   6   3   7   49.40    8.91
   6   3  -7   50.22    4.83
  -6   3   8   76.16    8.44
  -6  -3   8   64.73    6.05
  -6   3  -8   66.71   10.60
  -6  -3  -8   62.31    9.62
   6  -3   8   55.49    9.92
   6   3   8   78.08   12.69
   6   3  -8   55.01    6.36
  -6   3   9   38.00    5.40
  -6   3  -9   43.48    7.27
  -6  -3  -9   46.20    9.23
   6   3   9   54.83    8.82
   6   3  -9   44.85    4.93
  -6   3  10  151.65   12.35
  -6   3 -10  175.81   17.06
  -6  -3 -10  207.27   19.68
   6   3  10  158.13   22.83
   6   3 -10  144.06   12.28
  -6   3 -10  151.16   13.89
  -6   3 -11   73.94    9.20
  -6  -3 -11   45.25    8.56
   6   3  11   49.50    7.39
   6   3 -11   61.29    6.28
  -6   3 -11   42.74    5.90
  -6   3 -12   30.53    7.95
  -6  -3 -12   25.99   10.06
   6   3  12   45.12    7.22
  -6   3 -12   37.58    8.10
  -6   3 -13   29.80    6.69
  -6  -3 -13   42.26    9.73
   6   3  13   42.33    9.44
  -6   3 -13   34.82    8.18
  -6   3 -14    3.25    5.06
  -6  -3 -14   17.21    6.99
   6   3  14    8.37    4.56
  -6   3 -14    1.84    4.26
  -6   3 -15   51.12    9.36
  -6  -3 -15   37.45    9.72
   6   3  15   31.94    7.45
  -6   3 -15   30.32    8.41
  -6   4   0   78.13    6.89
  -6  -4   0   72.50    7.11
   6   4   0  101.55    7.73
  -6   4   1    7.29    6.31
  -6   4  -1    7.03    4.52
  -6  -4   1   21.70    5.57
  -6  -4  -1   10.36    5.29
   6  -4   1    6.79    1.50
   6   4   1   19.55    5.21
   6   4  -1    8.75    4.56
  -6   4   2  150.54   10.23
  -6   4  -2  158.83   10.57
  -6  -4   2  150.38   11.46
  -6  -4  -2  145.38   12.00
   6  -4   2  115.33   14.79
   6   4   2  152.04   15.15
   6   4  -2  155.12    9.54
  -6   4   3  116.77    8.32
  -6   4  -3   99.84    9.81
  -6  -4   3  112.90    8.69
  -6  -4  -3  103.26    8.78
   6  -4   3   76.44   11.66
   6   4   3  122.70   16.03
   6   4  -3  119.20    7.82
  -6   4   4    8.94    4.39
  -6   4  -4    6.64    5.51
  -6  -4   4   14.83    6.81
  -6  -4  -4    8.38    6.78
   6   4   4   20.74    6.47
   6   4  -4    8.97    4.24
  -6   4   5   58.60    6.79
  -6   4  -5   59.31    7.55
  -6  -4   5   63.11    6.31
  -6  -4  -5   59.48    7.65
   6   4   5   57.86   11.15
   6   4  -5   56.28    4.54
  -6   4   6   22.99    5.89
  -6   4  -6   16.76    6.59
  -6  -4   6   14.97    5.37
  -6  -4  -6    7.21    6.21
   6   4   6   33.51    7.73
   6   4  -6   26.14    6.11
  -6   4  -6   17.66    6.10
  -6   4   7   20.58    5.97
  -6   4  -7   14.25    7.12
  -6  -4   7   11.61    4.01
  -6  -4  -7   12.71    6.43
   6   4   7    2.12    3.67
   6   4  -7    9.52    3.04
  -6   4  -7   13.01    4.60
  -6   4   8   19.31    4.72
  -6   4  -8    4.64    4.77
  -6  -4  -8   39.04   11.47
   6   4   8   29.41    7.02
   6   4  -8   28.81    6.29
  -6   4  -8   28.28    6.73
  -6   4   9   19.11    5.02
  -6   4  -9   32.69    8.58
   6   4  -9   13.92    3.91
  -6   4  -9   24.64    6.59
  -6   4  10   15.96    3.15
  -6   4 -10   29.89    8.24
   6   4  10   15.18    3.55
   6   4 -10   20.11    3.62
  -6   4 -10   19.18    5.47
  -6   4 -11   23.22    7.33
  -6  -4 -11    9.88    6.20
   6   4  11   25.22    5.06
   6   4 -11   19.64    4.79
  -6   4 -11   13.81    5.10
  -6   4 -12   78.21   12.48
  -6  -4 -12   51.42   10.40
   6   4  12   31.42    5.68
   6   4 -12   43.80    6.67
  -6   4 -12   58.32    9.70
  -6   4 -13   13.48    5.98
  -6  -4 -13    8.30    6.16
   6   4  13   14.39    5.58
   6   4 -13    3.11    3.39
  -6   4 -13    8.77    5.80
  -6   4 -14   45.56    8.47
  -6  -4 -14   41.73   11.01
   6   4  14   36.39    8.54
  -6   4 -14   44.59    9.08
  -6   4 -15   16.25    5.65
  -6  -4 -15   28.33   10.51
   6   4  15   15.86    5.04
  -6   4 -15    6.98    5.69
  -6   5   0  148.40   10.50
  -6  -5   0  123.36    9.58
   6   5   0  145.67    9.41
  -6   5   1   14.07    5.26
  -6   5  -1   24.09    6.71
  -6  -5   1   29.63    8.61
  -6  -5  -1   19.73    7.80
   6   5   1   35.10    8.19
   6   5  -1   33.56    7.52
  -6   5   2  116.18    8.93
  -6   5  -2  115.30    9.64
  -6  -5   2  101.94    8.27
  -6  -5  -2  123.97   13.45
   6   5   2  131.28   10.06
   6   5  -2  114.46    7.63
  -6   5   3  190.22    9.80
  -6   5  -3  180.96   10.08
  -6  -5   3  200.62   10.35
  -6  -5  -3  199.44   11.91
   6   5   3  216.61   19.73
   6   5  -3  185.84    9.64
  -6   5  -3  177.56    7.66
  -6   5   4   84.52    6.78
  -6   5  -4   59.85    6.16
  -6  -5   4   75.45    6.87
  -6  -5  -4   70.93    7.09
   6   5   4   74.90   11.02
   6   5  -4   96.46    7.24
  -6   5  -4   68.20    5.27
  -6   5   5   80.90    7.01
  -6   5  -5   68.08   10.03
  -6  -5   5   43.50    8.02
  -6  -5  -5   60.00    7.03
   6   5   5   61.06    6.90
   6   5  -5   56.45    5.56
  -6   5  -5   65.95    5.82
  -6   5   6   11.32    4.94
  -6   5  -6   15.17    7.22
  -6  -5   6    3.04    2.80
  -6  -5  -6   18.04    8.67
   6   5   6   15.17    7.21
   6   5  -6   12.24    5.17
  -6   5  -6    2.28    2.90
  -6   5   7  153.07   12.46
  -6   5  -7  107.42   11.66
  -6  -5   7  144.05   10.81
  -6  -5  -7  156.68   15.20
   6   5   7  140.29   19.78
   6   5  -7  133.86   10.97
  -6   5  -7  157.53   12.02
  -6   5   8   58.44    6.88
  -6   5  -8   42.74    8.09
   6   5   8   46.80    6.73
   6   5  -8   72.56    7.78
  -6   5  -8   45.66    5.87
  -6   5   9   95.90    8.92
  -6   5  -9  103.85   11.82
  -6  -5  -9   92.86   12.90
   6   5   9  106.38   16.59
   6   5  -9   84.26    8.06
  -6   5  -9   99.23   10.07
  -6   5  10   25.00    3.84
  -6   5 -10   51.14    8.68
  -6  -5 -10   46.65    9.66
   6   5  10   34.33    8.90
   6   5 -10   44.07    5.48
  -6   5 -10   41.93    6.26
  -6   5 -11   94.97   15.03
  -6  -5 -11   75.58   13.52
   6   5  11   84.35   17.03
   6   5 -11  112.26   13.67
  -6   5 -11   84.74   11.30
  -6   5 -12   99.42   14.63
  -6  -5 -12   92.23   14.30
   6   5  12   81.54   14.67
   6   5 -12  103.71   13.55
  -6   5 -12  110.16   14.72
  -6   5 -13   14.85    5.80
  -6  -5 -13   43.18   12.10
   6   5  13   36.44    9.21
   6   5 -13   28.99    6.85
  -6   5 -13   25.96    7.55
  -6   5 -14   30.05    7.33
  -6  -5 -14   27.51    9.03
   6   5  14   18.27    5.67
   6   5 -14   18.61    5.13
  -6   5 -14    3.99    3.90
  -6   6   0   18.22    6.59
  -6  -6   0   11.57    5.50
   6   6   0    4.88    3.61
  -6   6   1   49.27    6.02
  -6   6  -1   29.48    7.36
  -6  -6   1   31.40    7.67
  -6  -6  -1   25.06    6.92
   6   6   1   41.85    8.64
   6   6  -1   37.09    8.19
  -6   6   2   34.75    8.42
  -6   6  -2   22.33    6.48
  -6  -6   2   24.37    6.27
  -6  -6  -2   19.13    8.49
   6   6   2   21.17    5.36
   6   6  -2   32.07    7.48
  -6   6   3  119.67    8.74
  -6   6  -3  109.44    8.47
  -6  -6   3  113.17    8.33
  -6  -6  -3  133.18   10.38
   6   6   3  155.20   17.40
   6   6  -3  138.22    9.00
  -6   6   4    9.70    4.23
  -6   6  -4    4.58    5.29
  -6  -6   4    8.40    3.90
  -6  -6  -4    6.11    5.18
   6   6   4   10.30    4.60
   6   6  -4   11.64    5.94
  -6   6  -4    6.04    3.12
  -6   6   5   11.26    4.98
  -6   6  -5   13.36    7.24
  -6  -6  -5   17.04    7.55
   6   6   5   12.99    4.24
   6   6  -5    9.85    5.21
  -6   6  -5    3.85    2.48
  -6   6   6   12.82    4.80
  -6   6  -6   27.05    7.86
  -6  -6   6    8.46    3.10
  -6  -6  -6    7.61    5.38
   6   6   6    4.25    2.74
   6   6  -6   12.64    5.47
  -6   6  -6   14.90    5.12
  -6   6   7   13.37    4.08
  -6   6  -7    7.06    4.84
  -6  -6   7    9.03    3.63
  -6  -6  -7   16.35    6.14
   6   6   7   15.36    4.20
   6   6  -7   20.74    5.99
  -6   6  -7   12.52    3.75
  -6   6   8    4.66    2.97
  -6   6  -8   23.83    9.56
  -6  -6  -8   15.31    8.56
   6   6   8   13.67    5.38
   6   6  -8   18.18    5.72
  -6   6  -8   21.69    5.89
  -6   6   9   24.94    4.23
  -6  -6  -9   45.72    9.22
   6   6   9   37.91    7.57
   6   6  -9   27.87    4.49
  -6   6  -9   18.95    3.47
  -6   6  10   11.38    4.80
  -6   6 -10    0.43    4.83
   6   6  10   12.80    4.14
   6   6 -10   18.99    6.10
  -6   6 -10   22.76    6.70
  -6   6  11    5.27    2.49
  -6   6 -11   26.01   10.24
  -6  -6 -11   19.50    9.62
   6   6  11   10.42    4.53
   6   6 -11    9.92    3.84
  -6   6 -12    7.21    5.18
  -6  -6 -12   19.77    9.67
   6   6  12   10.20    3.85
   6   6 -12    1.70    3.06
  -6   6 -12    9.67    4.20
  -6   6 -13   28.11    8.07
  -6  -6 -13   56.90   12.19
   6   6  13   25.31    7.39
   6   6 -13   43.59    9.14
  -6   6 -13   28.33    6.59
  -6   6 -14   57.94    9.59
  -6  -6 -14   50.20    8.35
   6   6  14   66.15   11.56
   6   6 -14   67.63   10.25
  -6   7   0   50.47    7.04
  -6  -7   0   51.77    7.91
   6   7   0   48.41    5.92
  -6   7   1  222.81   17.64
  -6   7  -1  213.65   17.44
  -6  -7   1  178.85   14.49
  -6  -7  -1  228.21   18.70
   6   7   1  207.12   15.62
   6   7  -1  185.64   14.00
  -6   7   2   29.11    6.66
  -6   7  -2   22.41    5.86
  -6  -7   2   35.82    8.43
  -6  -7  -2   28.86    6.71
   6   7   2   20.12    5.38
   6   7  -2   30.08    6.33
  -6   7   3  303.41   21.71
  -6   7  -3  338.42   24.36
  -6  -7   3  322.56   22.81
  -6  -7  -3  359.27   62.70
   6   7   3  366.02   63.38
   6   7  -3  362.01   62.44
  -6   7   4   20.76    6.04
  -6   7  -4   19.04    8.13
  -6  -7   4   12.78    4.11
  -6  -7  -4   16.24    5.25
   6   7   4   23.16    7.94
   6   7  -4   21.08    5.96
  -6   7   5  133.10   12.22
  -6  -7   5  111.74   10.30
  -6  -7  -5  144.50   15.98
   6   7   5  133.80   16.28
   6   7  -5  159.21   14.04
  -6   7   6    3.59    3.21
  -6   7  -6    5.90    4.39
  -6  -7   6    8.02    3.94
  -6  -7  -6   19.03    8.45
   6   7   6    9.57    3.62
   6   7  -6   -1.68    3.65
  -6   7  -6    5.68    3.39
  -6   7   7  246.74   17.97
  -6   7  -7  270.39   20.88
  -6  -7  -7  244.24   19.80
   6   7   7  233.49   26.39
   6   7  -7  225.81   17.17
  -6   7  -7  224.81   16.01
  -6   7   8   20.17    4.21
  -6   7  -8   21.48    5.54
  -6  -7  -8   16.81    6.18
   6   7   8   22.13    6.19
   6   7  -8   15.14    5.16
  -6   7  -8   16.44    4.49
  -6   7   9   35.89    5.50
  -6   7  -9   32.16    7.08
  -6  -7  -9   18.67    9.16
   6   7   9   32.27    6.62
   6   7  -9   47.71    7.41
  -6   7  -9   25.61    7.14
  -6   7  10   26.58    7.04
  -6   7 -10   23.36    7.37
  -6  -7 -10   26.62    9.43
   6   7  10   27.34    8.52
   6   7 -10   35.02    6.78
  -6   7 -10   19.63    5.56
  -6   7  11   66.42    8.90
  -6   7 -11   65.70   10.63
  -6  -7 -11   61.25   11.54
   6   7  11   87.53   15.18
   6   7 -11   67.03   10.02
  -6   7 -11   78.34   11.51
  -6   7 -12   10.28    5.00
  -6  -7 -12    6.98    6.92
   6   7  12    5.06    2.85
   6   7 -12   15.20    5.79
  -6   7 -12    5.75    3.46
  -6   7 -13   28.83    7.17
  -6  -7 -13   15.09    9.28
   6   7  13   17.89    6.32
   6   7 -13   15.35    5.22
  -6   7 -13    9.17    4.97
  -6   8   0   27.97    6.81
  -6  -8   0   34.07    9.10
   6   8   0   20.66    6.72
  -6   8   1   18.85    4.69
  -6   8  -1   31.58    8.41
  -6  -8  -1   25.99    9.00
  -6  -8   1   21.26    7.30
   6   8   1   28.87    6.68
   6   8  -1   24.75    6.09
  -6   8   2   19.25    6.12
  -6   8  -2   15.88    6.57
  -6  -8   2    8.35    4.34
  -6  -8  -2   17.64    6.27
   6   8   2   22.82    5.97
   6   8  -2   18.91    5.23
  -6   8   3   12.02    4.30
  -6   8  -3   32.30    8.07
  -6  -8   3   24.20    6.35
  -6  -8  -3   34.76    9.29
   6   8   3   42.71    7.26
   6   8  -3   20.19    5.98
  -6   8   4   28.44    6.91
  -6   8  -4   29.30    8.14
  -6  -8   4   12.39    4.07
  -6  -8  -4   32.97    8.74
   6   8   4   31.22    8.67
   6   8  -4   54.27    7.91
  -6   8   5   61.81    7.22
  -6   8  -5   64.71    8.95
  -6  -8   5   61.89    7.62
  -6  -8  -5   53.44    9.37
   6   8   5   85.70   10.96
   6   8  -5   73.37    7.73
  -6   8   6   12.52    4.45
  -6   8  -6    6.40    4.55
  -6  -8   6    5.82    2.71
  -6  -8  -6   21.88    9.72
   6   8   6    3.68    3.79
   6   8  -6    2.94    3.42
  -6   8   7   20.57    5.20
  -6   8  -7   16.10    7.90
  -6  -8  -7   22.73    8.02
   6   8   7   22.91    4.70
   6   8  -7   41.15    6.51
  -6   8   8   41.19    6.90
  -6   8  -8   35.42    8.07
  -6  -8  -8   23.00    7.80
   6   8   8   42.04    8.79
   6   8  -8   39.68    7.35
  -6   8   9   13.94    5.15
  -6   8  -9   16.92    7.31
  -6  -8  -9   16.59    6.93
   6   8   9   13.35    5.35
   6   8  -9   15.97    5.34
  -6   8  -9   17.47    5.49
  -6   8  10   22.74    6.87
  -6   8 -10   36.91    7.51
  -6  -8 -10   16.20    7.14
   6   8  10   41.30    9.60
   6   8 -10   29.37    5.91
  -6   8 -10   23.57    6.87
  -6   8  11   24.23    5.96
  -6   8 -11   14.30    5.59
   6   8  11   25.54    6.84
   6   8 -11   17.11    5.91
  -6   8 -11   21.77    6.16
  -6   8 -12    0.32    3.82
  -6  -8 -12   10.44    6.70
   6   8  12    7.81    4.86
   6   8 -12    9.93    5.65
  -6   8 -12    7.37    3.30
  -6   9   0  299.45   21.91
  -6  -9   0  317.14   65.69
   6   9   0  296.38   21.75
  -6   9   1  147.46   12.45
  -6   9  -1  132.80   12.92
  -6  -9  -1  128.51   11.54
  -6  -9   1  148.33   12.95
   6   9   1  134.73   12.35
   6   9  -1  157.37   13.36
  -6   9   2  215.56   16.79
  -6   9  -2  192.04   15.11
  -6  -9   2  213.90   16.47
  -6  -9  -2  214.66   16.91
   6   9   2  233.91   18.43
   6   9  -2  198.36   15.79
  -6   9   3   10.22    5.01
  -6   9  -3   13.29    4.69
  -6  -9   3    6.49    3.73
  -6  -9  -3   21.67    9.34
   6   9   3   10.78    4.26
   6   9  -3    9.01    4.04
  -6   9   4  179.84   14.48
  -6   9  -4  168.67   14.03
  -6  -9   4  157.63   12.53
  -6  -9  -4  196.16   17.18
   6   9   4  165.60   13.36
   6   9  -4  153.26   12.41
  -6   9   5   16.76    5.05
  -6   9  -5    4.14    4.07
  -6  -9   5    5.68    3.12
  -6  -9  -5    8.83    5.25
   6   9   5   11.04    3.48
   6   9  -5    5.71    3.73
  -6   9   6   87.73   11.54
  -6   9  -6   84.80   12.38
  -6  -9  -6   85.32   13.71
   6   9   6   69.25   13.52
   6   9  -6   84.28   11.45
  -6   9   7    8.88    4.53
  -6   9  -7    5.79    6.56
  -6  -9  -7   25.23   10.14
   6   9   7   16.98    5.11
   6   9  -7    8.81    4.95
  -6   9   8   43.57    7.40
  -6   9  -8   25.54    7.44
  -6  -9  -8   28.44   10.88
   6   9   8   52.15   11.15
   6   9  -8   35.52    6.08
  -6   9   9    9.96    3.58
  -6   9  -9    6.43    4.50
  -6  -9  -9   13.36    6.31
   6   9   9   17.31    6.81
   6   9  -9   28.28    8.03
  -6   9  10   16.37    5.28
  -6   9 -10   17.63    5.44
  -6  -9 -10   16.22    6.73
   6   9  10   22.91    7.70
   6   9 -10   15.34    5.11
  -6   9  11    6.96    2.66
  -6   9 -11    8.52    6.03
   6   9  11    9.24    3.48
   6   9 -11    7.89    3.67
  -6  10   0    8.72    5.98
  -6 -10   0    2.47    4.79
   6  10   0   12.43    4.83
  -6  10   1   19.27    6.60
  -6  10  -1    9.38    4.88
  -6 -10  -1   21.43    7.98
  -6 -10   1    0.40    4.15
   6  10   1   10.53    4.37
   6  10  -1   21.55    6.60
  -6  10   2    8.69    4.26
  -6  10  -2   17.90    7.60
  -6 -10   2   10.23    5.85
  -6 -10  -2   22.07    9.78
   6  10   2   21.46    8.02
   6  10  -2   12.69    6.35
  -6  10   3    5.88    4.09
  -6  10  -3   11.77    5.17
  -6 -10   3   14.17    5.84
  -6 -10  -3    9.99    5.76
   6  10  -3   18.62    6.36
  -6  10   4   17.19    6.24
  -6 -10   4   10.37    4.14
  -6 -10  -4   12.62    6.16
   6  10   4   11.93    5.69
   6  10  -4   20.90    6.89
  -6  10   5    5.21    3.32
  -6  10  -5   19.44    6.18
  -6 -10   5   14.40    5.43
  -6 -10  -5   19.77    7.33
   6  10   5    9.86    3.62
   6  10  -5   25.43    7.64
  -6  10   6    3.70    3.30
  -6  10  -6   36.47    8.81
  -6 -10  -6    4.00    5.36
   6  10   6   12.34    4.54
   6  10  -6    6.42    3.73
  -6  10   7    6.55    3.39
  -6  10  -7   11.10    7.09
  -6 -10  -7    0.60    5.75
   6  10   7   17.71    6.51
   6  10  -7    5.60    3.61
  -6  10   8   32.91    7.91
  -6  10  -8   37.21   10.14
  -6 -10  -8   67.99   12.46
   6  10   8   37.99    9.40
   6  10  -8   50.45    8.15
  -6  10   9    4.57    2.91
  -6  10  -9   21.03    8.18
  -6 -10  -9   11.23    5.91
   6  10   9    7.38    4.21
   6  10  -9   12.42    4.44
  -6  10  10   28.27    5.40
  -6  10 -10   36.22    8.81
  -6 -10 -10   47.65   10.25
   6  10  10   39.27    7.51
   6  10 -10   62.49    9.79
  -6  11   0   29.55    6.02
  -6 -11   0   43.42    8.67
   6  11   0   24.64    6.93
  -6  11   1    5.71    3.88
  -6  11  -1    9.81    5.16
  -6 -11   1    5.57    4.33
  -6 -11  -1    0.80    4.65
   6  11   1   17.31    6.73
   6  11  -1    9.71    5.93
  -6  11   2   19.63    6.87
  -6  11  -2   16.59    5.71
  -6 -11   2   10.65    4.54
  -6 -11  -2    6.59    5.41
   6  11   2   18.69    7.66
   6  11  -2   11.30    5.74
  -6  11   3    9.75    4.22
  -6  11  -3    6.06    4.35
  -6 -11   3    3.88    6.06
  -6 -11  -3   29.35    8.88
   6  11   3    9.65    4.36
   6  11  -3    6.62    3.87
  -6  11   4   32.47    6.39
  -6 -11   4   42.48    7.75
  -6 -11  -4   27.63    6.18
   6  11   4   23.60    7.85
   6  11  -4   38.87    7.21
  -6  11   5    4.89    4.62
  -6  11  -5   16.05    8.54
  -6 -11  -5   25.58    8.62
   6  11   5   10.76    4.57
   6  11  -5   19.74    7.47
  -6  11   6   38.77    9.33
  -6  11  -6   36.67    9.44
  -6 -11  -6   41.03   10.97
   6  11   6   42.84   10.93
   6  11  -6   50.91    9.37
  -6  11   7   64.61    9.12
  -6  11  -7   66.49   10.09
  -6 -11  -7   74.12   12.37
   6  11   7   56.09   11.00
   6  11  -7   71.78   10.61
  -6  11   8  108.75   14.37
  -6  11  -8  109.22   14.83
  -6 -11  -8   97.32   13.99
   6  11   8  124.73   18.32
   6  11  -8   81.86   12.41
  -6  12   0    9.78    6.21
  -6 -12   0   12.90    6.82
   6  12   0   12.95    5.84
  -6  12   1   38.93    9.98
  -6  12  -1   40.60    9.80
  -6 -12  -1   40.56   11.54
  -6 -12   1    8.61    6.19
   6  12   1   36.73    8.38
   6  12  -1   43.89    8.22
  -6  12   2   15.38    5.68
  -6  12  -2   11.27    4.83
  -6 -12   2    3.55    4.05
  -6 -12  -2   12.61    5.45
   6  12   2   20.43    7.71
   6  12  -2   16.24    6.51
  -6  12   3   28.32    7.30
  -6  12  -3   33.47    9.12
  -6 -12   3   24.37    6.92
  -6 -12  -3   22.05    6.78
   6  12   3   27.33    7.17
   6  12  -3   59.54   10.16
  -6  12   4   25.45    6.20
  -6  12  -4   12.06    5.28
  -6 -12   4    8.21    3.51
  -6 -12  -4    9.00    5.78
   6  12   4   19.97    5.91
   6  12  -4   26.53    6.50
  -6  12   5   12.71    3.88
  -6  12  -5   46.82    8.54
  -6 -12  -5   23.82    7.18
   6  12   5   31.10    6.84
   6  12  -5   26.33    4.99
  -6  12   6   19.14    4.92
  -6  12  -6   15.87    5.25
  -6 -12  -6   20.69    8.66
   6  12   6   30.53    7.08
   6  12  -6   14.14    4.42
  -6  13   0   11.59    6.73
  -6 -13   0    9.00    6.15
   6  13   0   11.89    5.81
  -6  13   1  131.50   17.22
  -6  13  -1  124.36   16.17
   6  13   1  148.63   19.48
   6  13  -1  150.02   19.69
  -7   0   0   11.04    4.68
   7   0   0    0.68    1.38
  -7   0   1   55.97    6.34
  -7   0  -1   77.58    9.69
   7   0   1   61.93    8.85
  -7   0   2   22.10    7.15
  -7   0  -2   16.89    6.07
   7   0   2    9.78    2.14
  -7   0   3   26.60    5.58
  -7   0  -3   -0.82    4.78
   7   0   3   12.36    3.57
  -7   0   4   70.25    7.53
  -7   0  -4   73.33    9.49
   7   0   4   60.21    7.46
  -7   0   5    9.98    3.70
  -7   0  -5   27.84    9.63
  -7   0   6   47.26    7.12
  -7   0  -6   54.01    8.82
   7   0   6   45.47    8.05
  -7   0   7    5.28    3.46
  -7   0  -7    1.78    5.85
   7   0   7    3.98    2.02
  -7   0  -8   78.43   12.38
   7   0   8   51.60   10.00
  -7   0  -9   12.36    6.20
   7   0   9    7.70    4.06
  -7   0 -10   52.02   11.40
   7   0  10   49.17    9.10
  -7   0 -11   18.92   10.85
   7   0  11   10.56    3.57
  -7   1   0    6.89    4.70
  -7  -1   0    0.69    4.48
   7   1   0   11.90    2.72
  -7   1   1   72.25    9.17
  -7   1  -1   46.17    7.59
  -7  -1   1   52.37    7.85
  -7  -1  -1   87.43   10.29
   7   1   1   44.46    5.56
   7   1  -1   43.24    6.01
  -7   1   2   28.47    6.32
  -7  -1   2   18.02    4.49
  -7   1  -2   30.16    7.42
  -7  -1  -2   17.03    5.25
   7  -1   2   18.54    3.23
   7   1   2   22.09    4.49
   7   1  -2   18.13    3.17
  -7   1   3   43.31    6.16
  -7   1  -3   28.48    6.16
  -7  -1   3   20.02    4.43
  -7  -1  -3   36.39    8.09
   7  -1   3   44.29    6.83
   7   1   3   52.64    6.91
  -7  -1   4   31.24    8.15
  -7   1  -4   47.42    8.25
  -7  -1  -4   45.92    7.38
   7  -1   4   44.97    7.12
  -7   1   5   15.58    5.29
  -7  -1   5   23.67    7.16
  -7   1  -5   13.15    6.04
  -7  -1  -5   21.68    9.02
   7  -1   5   19.45    5.55
   7   1   5   21.12    5.86
  -7   1   6   34.35    5.66
  -7  -1   6   37.53    6.28
  -7   1  -6   23.22    6.81
  -7  -1  -6   40.51    9.11
   7  -1   6   29.87    6.79
   7   1   6   25.73    8.48
  -7   1   7   11.06    3.49
  -7   1  -7   19.01    8.81
  -7  -1  -7   22.90    7.67
   7  -1   7   20.87    5.37
   7   1   7    6.70    2.37
  -7   1  -8   93.46   14.79
  -7  -1  -8   55.16   10.76
   7  -1   8   53.27   10.11
   7   1   8   58.90   10.30
  -7  -1  -9   20.51    8.86
   7  -1   9   22.38    6.79
   7   1   9   13.53    4.57
  -7   1 -10   83.11   14.07
   7  -1  10   78.64   12.38
   7   1  10   81.95   16.39
  -7   1 -11   13.20    6.16
  -7  -1 -11   21.64    8.05
   7  -1  11   14.77    4.44
   7   1  11   14.44    4.80
  -7   2   0   44.48    6.64
  -7  -2   0   31.01    9.15
   7   2   0   29.86    6.41
  -7   2   1   18.64    6.32
  -7   2  -1   25.22    6.72
  -7  -2   1    8.63    4.64
  -7  -2  -1   23.76    7.67
   7   2   1   14.27    4.16
   7   2  -1   15.74    3.53
  -7   2   2    2.47    3.74
  -7   2  -2    9.99    6.31
  -7  -2   2   26.81    6.48
  -7  -2  -2    1.49    5.31
   7   2   2   10.10    2.42
   7   2  -2    7.53    2.55
  -7   2   3   23.41    6.63
  -7   2  -3   22.20    5.77
  -7  -2   3    7.62    3.54
  -7  -2  -3   20.31    5.71
   7   2   3   28.81    4.27
  -7   2   4   10.55    4.77
  -7  -2   4    6.85    4.58
  -7   2  -4   17.57    7.20
  -7  -2  -4   10.33    7.85
   7  -2   4    6.62    1.75
   7   2   4    8.99    3.37
   7   2  -4    2.41    1.66
  -7   2   5    9.71    4.85
  -7  -2   5    5.59    3.27
  -7   2  -5   -0.92    4.85
  -7  -2  -5    8.97    7.73
   7  -2   5    8.20    3.17
   7   2   5    3.15    2.23
  -7   2   6   19.31    6.27
  -7  -2   6   18.62    6.07
  -7   2  -6    2.60    5.19
  -7  -2  -6   25.26    9.08
   7  -2   6    8.78    3.04
   7   2   6   16.33    5.01
  -7   2   7   16.24    5.00
  -7   2  -7   31.45    8.53
  -7  -2  -7   25.39   10.42
   7  -2   7   14.04    4.83
   7   2   7   19.78    5.40
  -7   2  -8   20.19    8.74
  -7  -2  -8   15.48    6.71
   7  -2   8   12.77    5.12
   7   2   8   12.18    5.02
  -7   2  -9   24.30    9.23
  -7  -2  -9   15.11    8.16
   7  -2   9    6.72    3.35
   7   2   9    6.46    2.65
  -7   2 -10   16.06    8.88
  -7  -2 -10   31.75   11.36
   7  -2  10    4.71    3.60
   7   2  10   14.49    5.27
  -7   2 -11   39.17    9.94
  -7  -2 -11   37.39    9.64
   7   2  11   18.33    6.34
  -7   2 -11   16.23    4.74
  -7  -3   0   31.70    9.40
  -7   3   1   27.31    6.78
  -7   3  -1   22.32    6.76
  -7  -3   1   26.56    6.47
  -7  -3  -1   29.62    7.61
   7   3   1   23.29    4.03
   7   3  -1   32.74    8.73
  -7   3   2   21.10    6.00
  -7   3  -2    5.89    4.47
  -7  -3   2    9.89    4.10
  -7  -3  -2   23.76    8.12
   7   3   2   10.02    2.57
   7   3  -2   15.27    3.39
  -7   3   3   27.68    5.89
  -7   3  -3   29.81    7.43
  -7  -3   3   55.49    7.87
  -7  -3  -3   57.36    9.13
   7   3   3   47.09    8.38
   7   3  -3   59.41    6.29
  -7   3   4    7.30    5.87
  -7   3  -4    3.37    4.67
  -7  -3   4    2.28    3.34
  -7  -3  -4   17.07    6.47
   7   3   4    9.65    4.35
   7   3  -4   12.34    3.89
  -7   3   5   43.65    7.19
  -7   3  -5   79.95   11.52
  -7  -3   5   48.71    7.22
  -7  -3  -5   62.74   10.09
   7   3   5   49.07    8.25
   7   3  -5   56.49    7.43
  -7  -3   6   10.64    4.37
  -7   3  -6   13.12    5.93
  -7  -3  -6    1.42    5.42
   7  -3   6    5.09    2.07
   7   3   6   10.92    3.69
  -7   3   7   46.17    7.18
  -7   3  -7   51.07   10.16
  -7  -3  -7   27.58    6.14
   7   3   7   41.43    7.67
  -7   3   8   22.27    5.50
  -7   3  -8   39.13   10.50
  -7  -3  -8   33.45   10.38
   7   3   8   28.01    7.15
  -7   3  -8   32.15    7.91
  -7   3  -9  135.86   19.03
   7   3   9   91.33   15.55
  -7   3  -9  115.45   15.46
  -7   3 -10   25.27    8.39
  -7  -3 -10   21.23    9.11
   7   3  10   13.53    5.04
  -7   3 -10   12.58    5.25
  -7   4   0    4.79    4.59
  -7  -4   0   -2.16    4.95
   7   4   0    2.75    2.30
  -7   4   1   12.00    6.41
  -7   4  -1   16.48    7.42
  -7  -4   1   16.17    7.02
  -7  -4  -1   20.97    7.91
   7   4   1    9.31    4.43
   7   4  -1   11.45    3.41
  -7   4   2   29.40    8.56
  -7   4  -2   24.26    7.47
  -7  -4   2   47.39    8.04
  -7  -4  -2   35.90    8.04
   7   4   2   32.78    6.17
   7   4  -2   29.74    4.76
  -7   4   3   28.11    8.18
  -7   4  -3   24.67    7.55
  -7  -4   3   18.69    5.55
  -7  -4  -3   25.84    9.72
   7   4   3   23.01    6.03
   7   4  -3   29.92    5.34
  -7   4   4   10.27    5.24
  -7   4  -4   10.90    5.19
  -7  -4   4   13.01    5.43
  -7  -4  -4   14.08    5.89
   7   4   4    7.98    3.72
   7   4  -4    1.42    2.40
  -7   4   5   17.14    4.92
  -7   4  -5   18.58    7.98
  -7  -4   5   22.08    6.86
  -7  -4  -5    9.93    7.35
   7   4   5   12.79    5.47
   7   4  -5   12.75    4.39
  -7   4   6    0.73    2.71
  -7   4  -6   15.04    6.07
  -7  -4  -6    4.30    5.56
   7   4   6    8.45    4.98
   7   4  -6    8.27    3.42
  -7   4   7   23.38    6.65
  -7  -4  -7    7.89    5.75
   7   4   7   39.82    7.94
   7   4  -7   23.60    6.59
  -7   4   8   16.02    6.13
  -7  -4  -8   12.13    5.84
   7   4   8   10.97    5.02
  -7   4  -9    0.53    5.31
   7   4   9    7.90    4.70
  -7   4  -9    9.61    4.66
  -7   4 -10    8.54    7.80
  -7  -4 -10   24.02    8.17
   7   4  10    7.52    2.96
  -7   4 -10   12.33    4.90
  -7   5   0  174.13   21.23
   7   5   0  189.51   25.39
  -7   5   1  163.83   20.32
  -7   5  -1  133.06   17.16
  -7  -5  -1  214.18   24.94
  -7  -5   1  143.27   17.48
   7   5   1  156.90   25.15
   7   5  -1  155.68   18.20
  -7   5   2  145.01   17.16
  -7   5  -2  140.84   16.84
  -7  -5   2  147.19   17.74
  -7  -5  -2  110.33   14.24
   7   5   2  131.25   16.89
   7   5  -2  149.57   17.43
  -7   5   3   83.85   11.00
  -7   5  -3   88.94   12.97
  -7  -5  -3   80.09   12.92
   7   5   3   69.88   16.72
   7   5  -3   88.62   11.12
  -7   5   4   67.76    9.59
  -7   5  -4   61.16   10.98
  -7  -5   4   58.39    9.28
  -7  -5  -4   36.36    8.27
   7   5   4   77.39   13.48
   7   5  -4   66.84    9.60
  -7   5   5   85.42   11.60
  -7   5  -5   73.04   11.17
  -7  -5   5   64.09    8.90
  -7  -5  -5   89.87   12.81
   7   5   5   75.01   17.53
   7   5  -5   80.75   10.87
  -7   5   6    8.37    4.63
  -7   5  -6    6.33    4.79
  -7  -5  -6    9.96    5.78
   7   5  -6    6.06    2.81
  -7   5   7  110.21   14.98
  -7   5  -7   96.18   13.87
  -7  -5  -7  115.77   16.79
   7   5   7   99.12   20.03
   7   5  -7   99.70   13.78
  -7   5   8   21.01    5.57
  -7   5  -8   53.16    9.39
  -7  -5  -8   51.72   10.86
   7   5   8   45.02    8.27
   7   5  -8   43.86    7.27
  -7   5  -9   21.48    8.18
  -7  -5  -9   18.68    8.09
   7   5   9   16.56    5.69
  -7   6   0   23.95    7.86
  -7  -6   0   14.46    4.85
   7   6   0   29.38    5.70
  -7   6   1   39.39    7.79
  -7   6  -1   28.45    7.18
  -7  -6  -1   27.79    7.89
  -7  -6   1   34.01    7.84
   7   6   1   24.41    7.01
   7   6  -1   29.19    5.10
  -7   6  -2    4.54    5.33
  -7  -6   2    4.83    3.81
  -7  -6  -2   17.54    5.98
   7   6   2   16.82    5.37
   7   6  -2    3.77    3.02
  -7   6   3   10.46    4.25
  -7   6  -3   15.43    5.80
  -7  -6   3   23.97    7.57
  -7  -6  -3   15.18    7.21
   7   6   3   11.06    4.57
   7   6  -3   40.68    7.81
  -7   6   4    2.65    3.30
  -7   6  -4    5.09    4.60
  -7  -6   4    7.64    4.80
  -7  -6  -4    1.90    4.63
   7   6   4    4.64    3.59
   7   6  -4   16.61    5.61
  -7   6   5    5.36    3.27
  -7   6  -5   16.29    7.20
  -7  -6  -5   11.97    5.87
   7   6   5   10.69    6.50
   7   6  -5    9.98    4.16
  -7   6   6    8.06    4.70
  -7   6  -6   20.14    8.43
  -7  -6  -6   20.89    8.77
   7   6   6   15.17    5.79
   7   6  -6   10.83    4.12
  -7   6   7   21.57    6.03
  -7   6  -7   49.91   10.33
  -7  -6  -7   31.29    9.90
   7   6   7   40.34    9.80
   7   6  -7   39.01    8.84
  -7   6   8   19.00    5.20
  -7   6  -8   36.83    8.46
  -7  -6  -8   17.40    6.36
   7   6   8   32.14    7.01
   7   6  -8   31.14    5.40
  -7   7   0  238.36   51.80
  -7  -7   0  246.68   53.89
   7   7   0  222.19   26.80
  -7   7   1   46.65    7.81
  -7   7  -1   30.67    6.57
  -7  -7   1   45.40    9.29
  -7  -7  -1   46.22    8.80
   7   7   1   58.14   10.42
   7   7  -1   39.39    6.90
  -7   7   2  132.54   18.10
  -7   7  -2  124.83   17.75
  -7  -7   2  113.36   15.73
  -7  -7  -2  116.04   16.47
   7   7   2  120.87   20.32
   7   7  -2  140.50   18.86
  -7   7   3   38.58    8.68
  -7   7  -3   34.78    9.02
  -7  -7   3   28.50    7.92
  -7  -7  -3   31.61    9.40
   7   7   3   35.50    8.18
   7   7  -3   35.13    7.99
  -7   7   4   21.26    6.25
  -7   7  -4   12.63    5.22
  -7  -7   4   13.70    4.79
  -7  -7  -4   25.61   10.10
   7   7   4   31.93    8.04
  -7   7   5    9.99    3.91
  -7  -7  -5    4.38    5.20
   7   7   5   32.43    8.69
   7   7  -5   16.79    5.37
  -7   7   6   31.93    5.52
  -7   7  -6   38.43    7.83
  -7  -7  -6   27.42    6.86
   7   7   6   47.28   10.17
   7   7  -6   46.95    7.47
  -7   7   7    5.34    2.92
  -7  -7  -7   11.09    5.68
   7   7   7    9.84    3.38
   7   7  -7    7.68    4.13
  -7   8   0    7.84    4.34
  -7  -8   0   15.50    6.86
   7   8   0    8.12    4.76
  -7   8   1   14.13    5.06
  -7   8  -1   21.03    7.46
  -7  -8   1   21.12    6.93
  -7  -8  -1   -1.06    4.31
   7   8   1   22.29    6.00
   7   8  -1   24.27    6.66
  -7   8   2   41.31   10.08
  -7   8  -2   54.92   10.06
  -7  -8   2   51.00    9.03
  -7  -8  -2   34.07    8.77
   7   8   2   30.27    9.66
  -7   8   3   10.03    5.43
  -7   8  -3   26.55    6.32
  -7  -8   3   26.07    5.62
  -7  -8  -3   38.51    7.89
   7   8   3   21.74    5.12
   7   8  -3   24.05    4.80
  -7   8   4    5.48    3.45
  -7   8  -4   10.78    4.46
  -7  -8  -4   13.13    5.98
   7   8   4   24.97    5.48
   7   8  -4   19.67    6.49
  -7   8   5   11.06    4.79
  -7   8  -5   18.06    6.71
  -7  -8  -5   14.02    5.88
   7   8   5   11.96    5.96
   7   8  -5    2.00    3.26
  -7   8  -6    5.07    4.43
  -7  -8  -6   -2.04    5.13
  -7   9   0    7.47    4.56
  -7  -9   0    2.00    4.14
   7   9   0   20.47    6.49
  -7   9   1  117.69   16.60
  -7   9  -1   81.37   11.27
  -7  -9   1  108.83   15.01
  -7  -9  -1   75.74   12.40
   7   9   1  100.24   13.63
   7   9  -1  118.43   15.74
  -7   9   2   58.69    8.81
  -7   9  -2   63.25   10.59
  -7  -9   2   73.48   10.85
  -7  -9  -2   64.05   10.66
   7   9   2   76.01   10.92
   7   9  -2   72.47   10.63
  -7   9   3   13.48    4.27
  -7   9  -3   28.55    6.90
  -7  -9   3    6.04    4.47
  -7  -9  -3   21.43    7.72
   7   9   3   15.73    4.30

_computing_structure_solution     'SHELXT 2014/4 (Sheldrick, 2014)'
;
_shelx_hkl_checksum              30935
_shelx_shelxl_version_number     2014/7
_olex2_submission_special_instructions 'No special instructions were received'
loop_
_space_group_symop_operation_xyz
'x, y, z'
'-x+1/2, -y, z+1/2'
'-x, y+1/2, -z+1/2'
'x+1/2, -y+1/2, -z'
loop_
_atom_site_label
_atom_site_type_symbol
_atom_site_fract_x
_atom_site_fract_y
_atom_site_fract_z
_atom_site_U_iso_or_equiv
_atom_site_adp_type
_atom_site_occupancy
_atom_site_site_symmetry_order
_atom_site_calc_flag
_atom_site_refinement_flags_posn
S1 S 0.53357(10) 0.57878(4) 0.26083(4) 0.02380(15) Uani 1 1 d .
O1 O 0.4701(4) 0.83948(13) 0.20632(11) 0.0330(5) Uani 1 1 d .
O2 O 0.4657(4) 0.50179(11) 0.22373(10) 0.0303(5) Uani 1 1 d .
O3 O 0.7618(3) 0.59278(14) 0.27389(11) 0.0339(5) Uani 1 1 d .
N1 N 0.4499(4) 0.66138(14) 0.21676(12) 0.0221(5) Uani 1 1 d .
C1 C 0.1245(5) 0.75891(17) 0.21597(14) 0.0240(6) Uani 1 1 d .
H1B H -0.0256 0.7612 0.1978 0.029 Uiso 1 1 calc R
C2 C 0.2189(4) 0.66944(17) 0.19374(14) 0.0221(6) Uani 1 1 d .
H2 H 0.1343 0.6244 0.2180 0.027 Uiso 1 1 calc R
C3 C 0.2463(5) 0.83601(18) 0.18344(15) 0.0286(6) Uani 1 1 d .
H3A H 0.2422 0.8310 0.1328 0.034 Uiso 1 1 calc R
H3B H 0.1729 0.8896 0.1964 0.034 Uiso 1 1 calc R
C4 C 0.1066(5) 0.76781(18) 0.29573(15) 0.0285(7) Uani 1 1 d .
H4A H 0.0549 0.7133 0.3153 0.034 Uiso 1 1 calc R
H4B H 0.2507 0.7794 0.3150 0.034 Uiso 1 1 calc R
C5 C -0.0461(5) 0.83927(19) 0.31652(15) 0.0332(7) Uani 1 1 d .
H5 H -0.1948 0.8302 0.3086 0.040 Uiso 1 1 calc R
C6 C 0.0102(6) 0.9129(2) 0.34463(16) 0.0427(8) Uani 1 1 d .
H6A H 0.1571 0.9248 0.3534 0.051 Uiso 1 1 calc R
H6B H -0.0964 0.9538 0.3559 0.051 Uiso 1 1 calc R
C7 C 0.1948(5) 0.65379(16) 0.11539(14) 0.0239(6) Uani 1 1 d .
C8 C -0.0041(5) 0.62440(17) 0.09005(15) 0.0307(7) Uani 1 1 d .
H8 H -0.1181 0.6130 0.1211 0.037 Uiso 1 1 calc R
C9 C -0.0352(6) 0.61173(19) 0.01897(17) 0.0394(8) Uani 1 1 d .
H9 H -0.1690 0.5910 0.0026 0.047 Uiso 1 1 calc R
C10 C 0.1313(6) 0.6297(2) -0.02775(17) 0.0425(8) Uani 1 1 d .
H10 H 0.1102 0.6214 -0.0755 0.051 Uiso 1 1 calc R
C11 C 0.3294(6) 0.6598(2) -0.00297(16) 0.0402(8) Uani 1 1 d .
H11 H 0.4415 0.6725 -0.0343 0.048 Uiso 1 1 calc R
C12 C 0.3631(5) 0.67149(19) 0.06836(15) 0.0300(6) Uani 1 1 d .
H12 H 0.4980 0.6911 0.0846 0.036 Uiso 1 1 calc R
C13 C 0.3954(4) 0.57805(18) 0.34213(14) 0.0253(6) Uani 1 1 d .
C14 C 0.1941(5) 0.53625(18) 0.34726(16) 0.0288(6) Uani 1 1 d .
H14 H 0.1394 0.5042 0.3098 0.035 Uiso 1 1 calc R
C15 C 0.0763(5) 0.5430(2) 0.40885(16) 0.0327(7) Uani 1 1 d .
H15 H -0.0587 0.5152 0.4123 0.039 Uiso 1 1 calc R
C16 C 0.1536(5) 0.5899(2) 0.46544(16) 0.0390(7) Uani 1 1 d .
C17 C 0.3578(6) 0.6310(2) 0.45926(17) 0.0407(8) Uani 1 1 d .
H17 H 0.4134 0.6623 0.4970 0.049 Uiso 1 1 calc R
C18 C 0.4775(5) 0.62593(19) 0.39807(15) 0.0343(7) Uani 1 1 d .
H18 H 0.6117 0.6542 0.3943 0.041 Uiso 1 1 calc R
C19 C 0.0225(7) 0.5956(3) 0.53251(17) 0.0589(10) Uani 1 1 d .
H19A H -0.1310 0.5975 0.5215 0.088 Uiso 1 1 calc GR
H19B H 0.0628 0.6474 0.5575 0.088 Uiso 1 1 calc GR
H19C H 0.0523 0.5456 0.5611 0.088 Uiso 1 1 calc GR
H1 H 0.478(7) 0.883(2) 0.2286(19) 0.054(12) Uiso 1 1 d .
H1A H 0.512(5) 0.7063(19) 0.2288(15) 0.028(8) Uiso 1 1 d .
loop_
_atom_site_aniso_label
_atom_site_aniso_U_11
_atom_site_aniso_U_22
_atom_site_aniso_U_33
_atom_site_aniso_U_23
_atom_site_aniso_U_13
_atom_site_aniso_U_12
S1 0.0205(3) 0.0230(3) 0.0279(3) 0.0030(3) -0.0020(3) 0.0022(3)
O1 0.0361(12) 0.0221(10) 0.0410(12) -0.0033(9) -0.0025(11) -0.0038(10)
O2 0.0363(11) 0.0201(9) 0.0344(11) 0.0003(8) -0.0030(10) 0.0040(9)
O3 0.0194(9) 0.0426(12) 0.0396(12) 0.0055(10) -0.0022(9) 0.0030(9)
N1 0.0218(11) 0.0179(10) 0.0267(12) 0.0010(9) -0.0025(10) -0.0022(10)
C1 0.0218(13) 0.0245(13) 0.0256(14) -0.0002(11) 0.0002(11) 0.0048(11)
C2 0.0202(13) 0.0213(12) 0.0248(14) 0.0026(11) -0.0011(11) -0.0012(11)
C3 0.0339(16) 0.0232(14) 0.0286(15) 0.0018(12) -0.0020(13) 0.0034(12)
C4 0.0320(16) 0.0247(14) 0.0288(15) 0.0001(12) 0.0002(12) 0.0033(12)
C5 0.0289(15) 0.0383(16) 0.0323(15) -0.0051(13) 0.0003(14) 0.0038(14)
C6 0.046(2) 0.0389(16) 0.0437(18) -0.0074(15) 0.0014(16) 0.0073(17)
C7 0.0287(15) 0.0166(12) 0.0265(15) -0.0004(11) -0.0035(12) 0.0043(11)
C8 0.0288(17) 0.0281(14) 0.0351(16) 0.0005(12) -0.0037(14) -0.0018(13)
C9 0.0402(18) 0.0353(16) 0.0425(18) -0.0087(13) -0.0143(17) 0.0066(15)
C10 0.056(2) 0.0440(18) 0.0274(17) -0.0088(14) -0.0096(17) 0.0200(17)
C11 0.048(2) 0.0438(19) 0.0285(17) 0.0004(14) 0.0064(15) 0.0142(16)
C12 0.0304(15) 0.0306(14) 0.0289(15) -0.0016(12) 0.0016(13) 0.0029(13)
C13 0.0238(13) 0.0254(13) 0.0267(14) 0.0066(12) -0.0021(11) 0.0029(12)
C14 0.0269(15) 0.0267(14) 0.0328(17) 0.0073(12) -0.0059(13) 0.0006(12)
C15 0.0249(16) 0.0379(16) 0.0353(17) 0.0133(13) 0.0003(13) 0.0007(13)
C16 0.0383(17) 0.0478(19) 0.0310(16) 0.0085(15) 0.0023(14) 0.0086(16)
C17 0.0415(18) 0.053(2) 0.0274(17) -0.0019(15) -0.0046(16) -0.0004(17)
C18 0.0300(16) 0.0395(16) 0.0335(16) 0.0014(13) -0.0045(14) -0.0043(15)
C19 0.051(2) 0.089(3) 0.0364(19) 0.0057(19) 0.0089(18) 0.005(2)
loop_
_atom_type_symbol
_atom_type_description
_atom_type_scat_dispersion_real
_atom_type_scat_dispersion_imag
_atom_type_scat_source
C C 0.0033 0.0016 'International Tables Vol C Tables 4.2.6.8 and 6.1.1.4'
H H 0.0000 0.0000 'International Tables Vol C Tables 4.2.6.8 and 6.1.1.4'
N N 0.0061 0.0033 'International Tables Vol C Tables 4.2.6.8 and 6.1.1.4'
O O 0.0106 0.0060 'International Tables Vol C Tables 4.2.6.8 and 6.1.1.4'
S S 0.1246 0.1234 'International Tables Vol C Tables 4.2.6.8 and 6.1.1.4'
loop_
_geom_angle_atom_site_label_1
_geom_angle_atom_site_label_2
_geom_angle_atom_site_label_3
_geom_angle
O2 S1 N1 107.51(12)
O2 S1 C13 106.82(13)
O3 S1 O2 119.30(13)
O3 S1 N1 106.35(13)
O3 S1 C13 108.21(13)
N1 S1 C13 108.26(13)
C3 O1 H1 105(3)
S1 N1 H1A 112(2)
C2 N1 S1 121.58(19)
C2 N1 H1A 117(2)
C2 C1 H1B 106.4
C3 C1 H1B 106.4
C3 C1 C2 113.3(2)
C3 C1 C4 111.6(2)
C4 C1 H1B 106.4
C4 C1 C2 112.2(2)
N1 C2 C1 110.3(2)
N1 C2 H2 107.6
N1 C2 C7 111.7(2)
C1 C2 H2 107.6
C7 C2 C1 111.9(2)
C7 C2 H2 107.6
O1 C3 C1 111.6(2)
O1 C3 H3A 109.3
O1 C3 H3B 109.3
C1 C3 H3A 109.3
C1 C3 H3B 109.3
H3A C3 H3B 108.0
C1 C4 H4A 109.2
C1 C4 H4B 109.2
H4A C4 H4B 107.9
C5 C4 C1 112.0(2)
C5 C4 H4A 109.2
C5 C4 H4B 109.2
C4 C5 H5 117.1
C6 C5 C4 125.8(3)
C6 C5 H5 117.1
C5 C6 H6A 120.0
C5 C6 H6B 120.0
H6A C6 H6B 120.0
C8 C7 C2 118.7(3)
C8 C7 C12 119.1(3)
C12 C7 C2 122.1(3)
C7 C8 H8 119.7
C7 C8 C9 120.6(3)
C9 C8 H8 119.7
C8 C9 H9 119.9
C10 C9 C8 120.3(3)
C10 C9 H9 119.9
C9 C10 H10 120.3
C11 C10 C9 119.4(3)
C11 C10 H10 120.3
C10 C11 H11 119.7
C10 C11 C12 120.7(3)
C12 C11 H11 119.7
C7 C12 H12 120.1
C11 C12 C7 119.9(3)
C11 C12 H12 120.1
C14 C13 S1 119.1(2)
C14 C13 C18 120.6(3)
C18 C13 S1 120.0(2)
C13 C14 H14 120.5
C15 C14 C13 119.0(3)
C15 C14 H14 120.5
C14 C15 H15 119.1
C16 C15 C14 121.8(3)
C16 C15 H15 119.1
C15 C16 C17 118.2(3)
C15 C16 C19 120.8(3)
C17 C16 C19 121.0(3)
C16 C17 H17 119.5
C18 C17 C16 121.0(3)
C18 C17 H17 119.5
C13 C18 H18 120.3
C17 C18 C13 119.3(3)
C17 C18 H18 120.3
C16 C19 H19A 109.5
C16 C19 H19B 109.5
C16 C19 H19C 109.5
H19A C19 H19B 109.5
H19A C19 H19C 109.5
H19B C19 H19C 109.5
loop_
_geom_bond_atom_site_label_1
_geom_bond_atom_site_label_2
_geom_bond_distance
S1 O2 1.440(2)
S1 O3 1.431(2)
S1 N1 1.606(2)
S1 C13 1.766(3)
O1 C3 1.435(4)
O1 H1 0.79(4)
N1 C2 1.482(3)
N1 H1A 0.82(3)
C1 H1B 0.9800
C1 C2 1.550(4)
C1 C3 1.530(4)
C1 C4 1.532(4)
C2 H2 0.9800
C2 C7 1.522(4)
C3 H3A 0.9700
C3 H3B 0.9700
C4 H4A 0.9700
C4 H4B 0.9700
C4 C5 1.494(4)
C5 H5 0.9300
C5 C6 1.299(4)
C6 H6A 0.9300
C6 H6B 0.9300
C7 C8 1.382(4)
C7 C12 1.391(4)
C8 H8 0.9300
C8 C9 1.384(4)
C9 H9 0.9300
C9 C10 1.380(5)
C10 H10 0.9300
C10 C11 1.378(5)
C11 H11 0.9300
C11 C12 1.389(4)
C12 H12 0.9300
C13 C14 1.390(4)
C13 C18 1.390(4)
C14 H14 0.9300
C14 C15 1.382(4)
C15 H15 0.9300
C15 C16 1.382(4)
C16 C17 1.402(5)
C16 C19 1.512(4)
C17 H17 0.9300
C17 C18 1.380(4)
C18 H18 0.9300
C19 H19A 0.9600
C19 H19B 0.9600
C19 H19C 0.9600
loop_
_geom_hbond_atom_site_label_D
_geom_hbond_atom_site_label_H
_geom_hbond_atom_site_label_A
_geom_hbond_distance_DH
_geom_hbond_distance_HA
_geom_hbond_distance_DA
_geom_hbond_angle_DHA
_geom_hbond_site_symmetry_A
O1 H1 S1 0.79(4) 3.02(4) 3.731(2) 151(3) 3_655
O1 H1 O2 0.79(4) 2.08(4) 2.857(3) 171(4) 3_655
N1 H1A O1 0.82(3) 2.11(3) 2.748(3) 135(3) .
loop_
_geom_torsion_atom_site_label_1
_geom_torsion_atom_site_label_2
_geom_torsion_atom_site_label_3
_geom_torsion_atom_site_label_4
_geom_torsion
S1 N1 C2 C1 128.2(2)
S1 N1 C2 C7 -106.6(2)
S1 C13 C14 C15 -173.7(2)
S1 C13 C18 C17 174.2(2)
O2 S1 N1 C2 51.3(2)
O2 S1 C13 C14 -27.7(3)
O2 S1 C13 C18 158.6(2)
O3 S1 N1 C2 -179.9(2)
O3 S1 C13 C14 -157.3(2)
O3 S1 C13 C18 28.9(3)
N1 S1 C13 C14 87.9(2)
N1 S1 C13 C18 -85.9(2)
N1 C2 C7 C8 154.2(2)
N1 C2 C7 C12 -28.5(4)
C1 C2 C7 C8 -81.5(3)
C1 C2 C7 C12 95.8(3)
C1 C4 C5 C6 -109.4(4)
C2 C1 C3 O1 -63.4(3)
C2 C1 C4 C5 -161.7(2)
C2 C7 C8 C9 178.1(3)
C2 C7 C12 C11 -177.0(3)
C3 C1 C2 N1 61.3(3)
C3 C1 C2 C7 -63.7(3)
C3 C1 C4 C5 69.9(3)
C4 C1 C2 N1 -66.2(3)
C4 C1 C2 C7 168.8(2)
C4 C1 C3 O1 64.4(3)
C7 C8 C9 C10 -1.0(4)
C8 C7 C12 C11 0.2(4)
C8 C9 C10 C11 0.3(5)
C9 C10 C11 C12 0.6(5)
C10 C11 C12 C7 -0.9(5)
C12 C7 C8 C9 0.7(4)
C13 S1 N1 C2 -63.8(2)
C13 C14 C15 C16 -0.2(4)
C14 C13 C18 C17 0.5(4)
C14 C15 C16 C17 -0.2(5)
C14 C15 C16 C19 -179.5(3)
C15 C16 C17 C18 0.8(5)
C16 C17 C18 C13 -1.0(5)
C18 C13 C14 C15 0.1(4)
C19 C16 C17 C18 -179.9(3)
