#------------------------------------------------------------------------------
#$Date: 2016-03-04 14:00:56 +0200 (Fri, 04 Mar 2016) $
#$Revision: 177522 $
#$URL: svn://www.crystallography.net/cod/cif/1/54/24/1542474.cif $
#------------------------------------------------------------------------------
#
# This file is available in the Crystallography Open Database (COD),
# http://www.crystallography.net/
#
# All data on this site have been placed in the public domain by the
# contributors.
#
data_1542474
loop_
_publ_author_name
'Tiritiris, Ioannis'
'Kantlehner, Willi'
_publ_section_title
;
 Morpholine-4-carboxamidinium sulfate
;
_journal_coeditor_code           ZL4002
_journal_issue                   1
_journal_name_full               IUCrData
_journal_page_first              x160069
_journal_paper_doi               10.1107/S2414314616000699
_journal_volume                  1
_journal_year                    2016
_chemical_formula_iupac          '2C5 H12 N3 O +, O4 S 2-'
_chemical_formula_moiety         '2(C5 H12 N3 O +), O4 S 2-'
_chemical_formula_sum            'C10 H24 N6 O6 S'
_chemical_formula_weight         356.41
_chemical_name_systematic
;
Bis(morpholine-4-carboxamidinium) sulfate
;
_space_group_crystal_system      monoclinic
_space_group_IT_number           14
_space_group_name_Hall           '-P 2ybc'
_space_group_name_H-M_alt        'P 1 21/c 1'
_symmetry_space_group_name_Hall  '-P 2ybc'
_symmetry_space_group_name_H-M   'P 1 21/c 1'
_atom_sites_solution_hydrogens   mixed
_atom_sites_solution_primary     direct
_atom_sites_solution_secondary   difmap
_audit_creation_method           SHELXL-2014/7
_cell_angle_alpha                90
_cell_angle_beta                 105.3860(10)
_cell_angle_gamma                90
_cell_formula_units_Z            4
_cell_length_a                   9.7194(3)
_cell_length_b                   9.4737(3)
_cell_length_c                   17.9416(8)
_cell_measurement_reflns_used    16137
_cell_measurement_temperature    100(2)
_cell_measurement_theta_max      27.88
_cell_measurement_theta_min      0.41
_cell_volume                     1592.83(10)
_computing_cell_refinement
;
DENZO-SMN (Otwinowski & Minor, 1997)
;
_computing_data_collection
;
COLLECT (Hooft, 2004)
;
_computing_data_reduction
;
DENZO-SMN (Otwinowski & Minor, 1997)
;
_computing_molecular_graphics
;
DIAMOND (Brandenburg & Putz, 2005)
;
_computing_publication_material
;
SHELXL2014 (Sheldrick, 2015)
;
_computing_structure_refinement
;
SHELXL2014 (Sheldrick, 2015)
;
_computing_structure_solution
;
SHELXS97 (Sheldrick, 2008)
;
_diffrn_ambient_temperature      100(2)
_diffrn_measured_fraction_theta_full 0.998
_diffrn_measured_fraction_theta_max 0.998
_diffrn_measurement_device_type  'Bruker--Nonius KappaCCD'
_diffrn_measurement_method       '\f scans, and \w scans'
_diffrn_radiation_monochromator  graphite
_diffrn_radiation_type           MoK\a
_diffrn_radiation_wavelength     0.71073
_diffrn_reflns_av_R_equivalents  0.0161
_diffrn_reflns_limit_h_max       12
_diffrn_reflns_limit_h_min       -12
_diffrn_reflns_limit_k_max       12
_diffrn_reflns_limit_k_min       -12
_diffrn_reflns_limit_l_max       23
_diffrn_reflns_limit_l_min       -23
_diffrn_reflns_number            7346
_diffrn_reflns_theta_full        25.242
_diffrn_reflns_theta_max         27.869
_diffrn_reflns_theta_min         2.173
_diffrn_standards_decay_%        0
_diffrn_standards_interval_count 0
_diffrn_standards_number         0
_exptl_absorpt_coefficient_mu    0.245
_exptl_absorpt_correction_type   none
_exptl_crystal_colour            colorless
_exptl_crystal_density_diffrn    1.486
_exptl_crystal_density_method    'not measured'
_exptl_crystal_description       block
_exptl_crystal_F_000             760
_exptl_crystal_size_max          0.30
_exptl_crystal_size_mid          0.22
_exptl_crystal_size_min          0.09
_refine_diff_density_max         0.240
_refine_diff_density_min         -0.446
_refine_ls_extinction_coef       0.0169(19)
_refine_ls_extinction_expression Fc^*^=kFc[1+0.001xFc^2^\l^3^/sin(2\q)]^-1/4^
_refine_ls_extinction_method
;
SHELXL2014 (Sheldrick, 2015)
;
_refine_ls_goodness_of_fit_ref   1.044
_refine_ls_hydrogen_treatment    mixed
_refine_ls_matrix_type           full
_refine_ls_number_parameters     351
_refine_ls_number_reflns         3791
_refine_ls_number_restraints     96
_refine_ls_restrained_S_all      1.034
_refine_ls_R_factor_all          0.0383
_refine_ls_R_factor_gt           0.0310
_refine_ls_shift/su_max          0.000
_refine_ls_shift/su_mean         0.000
_refine_ls_structure_factor_coef Fsqd
_refine_ls_weighting_details
'w=1/[\s^2^(Fo^2^)+(0.0449P)^2^+0.5482P] where P=(Fo^2^+2Fc^2^)/3'
_refine_ls_weighting_scheme      calc
_refine_ls_wR_factor_gt          0.0812
_refine_ls_wR_factor_ref         0.0860
_reflns_number_gt                3284
_reflns_number_total             3791
_reflns_threshold_expression     >2sigma(I)
_cod_data_source_file            zl4002sup1.cif
_cod_data_source_block           I
_cod_depositor_comments          'Adding full bibliography for 1542474.cif.'
_cod_original_cell_volume        1592.80(10)
_cod_database_code               1542474
_cod_database_fobs_code          1542474
_shelx_space_group_comment
;
The symmetry employed for this shelxl refinement is uniquely defined
by the following loop, which should always be used as a source of
symmetry information in preference to the above space-group names.
They are only intended as comments.
;
_shelx_hkl_file
;
   1   0   0  420.22    5.25   0
   2   0   0   65.27    0.99   0
   3   0   0    1.24    0.12   0
   4   0   0  706.12    9.40   0
   5   0   0  252.93    3.71   0
   6   0   0 2146.66   28.31   0
   7   0   0  569.76    8.16   0
   8   0   0  783.50   12.24   0
   9   0   0  822.20   14.22   0
  10   0   0   11.37    1.48   0
  11   0   0  196.43    6.30   0
  12   0   0   74.54    3.34   0
  -1  -1   0   85.11    1.73   0
   1   1   0   92.26    2.30   0
   2   1   0 1689.89   23.61   0
  -2  -1   0 1716.96   22.25   0
  -3  -1   0   98.90    1.48   0
   3   1   0   99.64    1.48   0
   4   1   0  575.45    7.17   0
  -4  -1   0  566.55    7.17   0
  -5  -1   0  142.78    2.35   0
   5   1   0  141.67    2.10   0
  -6  -1   0  209.91    3.34   0
   6   1   0  210.28    2.84   0
  -7  -1   0   29.92    1.11   0
   7   1   0   33.38    0.74   0
   8   1   0    5.81    1.11   0
  -8  -1   0    4.33    0.99   0
  -9  -1   0    1.85    0.87   0
   9   1   0    1.24    0.99   0
  10   1   0   26.95    2.35   0
 -10  -1   0   30.16    1.85   0
  11   1   0   -2.10    1.61   0
 -11  -1   0    3.96    1.85   0
 -12  -1   0    1.61    1.85   0
  12   1   0    3.96    1.85   0
  -1  -2   0  574.09    8.53   0
   1   2   0  590.04    9.52   0
  -2  -2   0  698.08   11.25   0
   2   2   0  703.27    9.27   0
  -3  -2   0  128.19    2.10   0
   3   2   0  129.06    1.98   0
   4   2   0 1876.18   22.50   0
  -4  -2   0 1885.08   24.97   0
   5   2   0   14.34    0.37   0
  -5  -2   0   11.62    0.62   0
  -6  -2   0  359.86    6.06   0
   6   2   0  358.50    4.94   0
  -7  -2   0   87.89    2.10   0
   7   2   0   91.73    1.73   0
   8   2   0   16.57    0.74   0
  -8  -2   0   16.32    1.24   0
   9   2   0 1223.59   21.39   0
  -9  -2   0 1182.92   22.99   0
  10   2   0    8.41    1.85   0
 -10  -2   0    8.65    1.36   0
 -11  -2   0   14.22    1.73   0
  11   2   0   11.87    1.85   0
  12   2   0   73.31    3.58   0
 -12  -2   0   73.55    5.19   0
  -1  -3   0 3570.76   55.13   0
   1   3   0 3575.09   49.82   0
   2   3   0  159.47    2.60   0
  -2  -3   0  157.74    2.84   0
   3   3   0    1.73    0.25   0
  -3  -3   0    1.85    0.49   0
  -4  -3   0 2000.91   29.05   0
   4   3   0 1993.62   23.74   0
   5   3   0  379.51    5.07   0
  -5  -3   0  376.92    5.56   0
   6   3   0   62.43    1.11   0
  -6  -3   0   62.55    1.36   0
   7   3   0  606.36    8.16   0
  -7  -3   0  613.90    9.64   0
   8   3   0   57.24    1.48   0
  -8  -3   0   59.96    1.73   0
  -9  -3   0    4.08    0.62   0
   9   3   0    4.20    0.99   0
  10   3   0    3.46    1.73   0
 -10  -3   0    7.54    0.87   0
  11   3   0   89.38    3.71   0
 -11  -3   0   77.88    5.19   0
   0  -4   0  865.22   19.90   0
   0   4   0  865.34   19.90   0
   1   4   0 2172.50   34.12   0
  -1  -4   0 2172.25   30.53   0
   2   4   0  825.66   12.11   0
  -2  -4   0  829.86   12.24   0
  -3  -4   0   43.14    1.48   0
   3   4   0   43.27    0.99   0
   4   4   0  203.11    2.84   0
  -4  -4   0  191.61    3.46   0
  -5  -4   0  268.63    5.19   0
   5   4   0  271.96    3.58   0
   6   4   0  137.34    2.60   0
  -6  -4   0  138.58    4.08   0
  -7  -4   0  161.08    8.04   0
   7   4   0  163.55    2.72   0
   8   4   0   46.73    1.85   0
  -8  -4   0   43.51    5.07   0
   9   4   0  190.25    4.20   0
  -9  -4   0  192.72   11.00   0
  10   4   0   94.94    3.71   0
 -10  -4   0   93.83    7.29   0
  11   4   0   14.34    2.35   0
 -11  -4   0   11.74    5.44   0
   1   5   0  136.11    2.84   0
  -1  -5   0  137.59    2.47   0
  -2  -5   0   44.87    1.11   0
   2   5   0   42.53    1.36   0
  -3  -5   0  469.63    7.42   0
   3   5   0  473.96    8.41   0
   4   5   0 1107.14   14.71   0
  -4  -5   0 1064.99   15.95   0
   5   5   0 1546.49   18.91   0
  -5  -5   0 1481.59   24.11   0
   6   5   0   60.33    1.61   0
  -6  -5   0   61.44    3.71   0
  -7  -5   0  171.96    5.81   0
   7   5   0  183.08    2.97   0
   8   5   0  194.70    3.34   0
  -8  -5   0  177.39    9.02   0
   9   5   0   20.15    1.85   0
  -9  -5   0   13.97    6.18   0
 -10  -5   0    1.61    4.45   0
  10   5   0    0.37    1.98   0
 -11  -5   0  180.61   11.74   0
  11   5   0  185.80    6.30   0
   0   6   0    3.71    1.73   0
   0  -6   0    1.48    0.87   0
   1   6   0   97.91    2.47   0
  -1  -6   0  105.45    2.10   0
  -2  -6   0  476.31    6.92   0
   2   6   0  488.55    8.41   0
   3   6   0    0.62    0.62   0
  -3  -6   0    3.09    0.74   0
   4   6   0  115.58    2.23   0
  -4  -6   0  110.27    2.84   0
  -5  -6   0   51.30    1.85   0
   5   6   0   52.29    1.11   0
   6   6   0  211.76    4.33   0
  -6  -6   0  193.09    6.43   0
  -7  -6   0    5.81    2.47   0
   7   6   0    4.70    1.11   0
   8   6   0   22.75    1.24   0
  -8  -6   0   28.43    6.18   0
   9   6   0    5.19    1.61   0
  -9  -6   0    4.57    4.45   0
  10   6   0   31.52    3.46   0
 -10  -6   0   21.63    5.93   0
  -1  -7   0   16.07    0.74   0
   1   7   0   14.83    1.48   0
   2   7   0    7.66    1.24   0
  -2  -7   0    8.04    1.11   0
   3   7   0    3.09    1.11   0
  -3  -7   0    2.47    1.11   0
  -4  -7   0 1188.85   19.78   0
   4   7   0 1262.04   18.91   0
  -5  -7   0  566.80   11.74   0
   5   7   0  598.20    9.40   0
   6   7   0   11.00    1.24   0
  -6  -7   0    4.94    3.34   0
  -7  -7   0  231.54    7.54   0
   7   7   0  228.70    4.57   0
   8   7   0   47.72    2.35   0
  -8  -7   0   41.29    5.19   0
  -9  -7   0   34.49    6.06   0
   9   7   0   32.51    2.72   0
 -10  -7   0   23.86    8.28   0
  10   7   0   15.45    2.97   0
   0   8   0 1938.24   44.38   0
   0  -8   0 2051.60   32.76   0
  -1  -8   0   13.47    0.99   0
   1   8   0   12.24    1.36   0
  -2  -8   0   45.62    1.73   0
   2   8   0   46.85    2.10   0
  -3  -8   0  203.73    4.57   0
   3   8   0  206.69    4.94   0
   4   8   0  239.20    5.56   0
  -4  -8   0  235.62    5.69   0
  -5  -8   0  118.43    3.58   0
   5   8   0  112.37    2.97   0
  -6  -8   0  126.34    5.32   0
   6   8   0  148.71    3.96   0
  -7  -8   0   69.10    4.57   0
   7   8   0   68.73    2.84   0
   8   8   0   33.38    2.35   0
  -8  -8   0   25.59    5.07   0
  -9  -8   0  141.17   10.26   0
   9   8   0  132.27    6.06   0
   1   9   0  231.17    6.80   0
  -1  -9   0  229.44    3.96   0
  -2  -9   0   36.47    1.61   0
   2   9   0   28.93    2.35   0
  -3  -9   0   12.86    1.73   0
   3   9   0   13.35    2.23   0
   4   9   0   80.48    6.43   0
  -4  -9   0   92.59    3.34   0
  -5  -9   0  197.79    6.92   0
   5   9   0  202.37    5.81   0
  -6  -9   0   -0.74    3.71   0
   6   9   0    4.57    2.10   0
  -7  -9   0   91.48    7.29   0
   7   9   0   98.53    3.83   0
   8   9   0    3.96    2.60   0
  -8  -9   0   10.51    4.94   0
   0 -10   0  689.06   18.30   0
   0  10   0  770.03   27.69   0
   1  10   0  282.97    8.41   0
  -1 -10   0  274.68    5.07   0
   2  10   0   24.97    3.83   0
  -2 -10   0   31.65    2.10   0
   3  10   0  332.78   14.34   0
  -3 -10   0  319.06    7.54   0
   4  10   0  200.26    7.42   0
  -4 -10   0  211.64    5.44   0
   5  10   0  131.04    5.32   0
  -5 -10   0  125.23    5.93   0
  -6 -10   0  181.60    7.91   0
   6  10   0  189.88    5.81   0
   7  10   0   71.95    3.46   0
  -7 -10   0   74.67    7.05   0
   1  11   0   33.13    4.33   0
  -1 -11   0   33.38    2.84   0
   2  11   0   -0.62    2.47   0
  -2 -11   0    2.60    2.72   0
   3  11   0   71.08    5.56   0
  -3 -11   0   82.58    4.70   0
   4  11   0   25.59    3.46   0
  -4 -11   0   23.98    5.07   0
   5  11   0    5.81    2.23   0
  -5 -11   0    2.10    4.45   0
   0  12   0   97.17    9.40   0
   0 -12   0  114.60    8.04   0
   1  12   0   42.90    5.93   0
  -1 -12   0   36.96    3.71   0
  -2 -12   0   15.33    3.21   0
   2  12   0   11.99    5.19   0
   3  12   0  201.50    7.42   0
  -3 -12   0  197.54   11.99   0
  12   1  -1  389.28   10.88   0
 -12  -1   1  406.22   11.25   0
  11   1  -1  130.79    4.20   0
 -11  -1   1  134.75    4.20   0
  10   1  -1  219.67    5.69   0
 -10  -1   1  214.48    5.69   0
   9   1  -1  481.25    7.79   0
  -9  -1   1  469.26    8.65   0
   8   1  -1  505.73    8.16   0
  -8  -1   1  509.56    8.04   0
  -7  -1   1   34.61    1.11   0
   7   1  -1   34.00    1.11   0
  -6  -1   1  209.54    3.46   0
   6   1  -1  210.15    3.09   0
   5   1  -1  321.91    4.33   0
  -5  -1   1  315.48    4.20   0
  -4  -1   1   21.51    0.74   0
   4   1  -1   23.86    0.49   0
   3   1  -1 2503.18   27.57   0
  -3  -1   1 2541.26   35.23   0
   2   1  -1 4599.28  103.47   0
   1   1  -1   40.75    0.62   0
  -1  -1   1   45.41    0.74   0
   0   1   1  573.59    6.73   0
   1   1   1    1.73    0.25   0
  -1  -1  -1    2.60    0.37   0
  -2  -1  -1  650.74    8.65   0
   2   1   1  645.67    7.42   0
  -3  -1  -1  135.92    1.48   0
   3   1   1  135.79    1.36   0
   4   1   1 1263.52   16.57   0
  -4  -1  -1 1278.35   15.70   0
  -5  -1  -1  153.91    2.35   0
   5   1   1  153.78    2.23   0
   6   1   1   53.90    1.11   0
  -6  -1  -1   56.74    1.36   0
   7   1   1  499.92    6.06   0
  -7  -1  -1  487.56    7.05   0
   8   1   1  256.39    4.57   0
  -8  -1  -1  249.96    4.57   0
  -9  -1  -1  258.49    5.32   0
   9   1   1  261.09    4.94   0
  10   1   1  147.97    4.33   0
 -10  -1  -1  148.22    4.08   0
 -11  -1  -1   77.14    3.34   0
  11   1   1   80.48    3.58   0
  12   1   1   -0.99    1.98   0
 -12  -1  -1    2.23    1.85   0
  12   2  -1   11.00    2.60   0
 -12  -2   1    9.77    2.97   0
  11   2  -1    0.74    1.73   0
 -11  -2   1    2.60    4.20   0
 -10  -2   1  133.39    3.71   0
  10   2  -1  130.79    4.08   0
  -9  -2   1   78.87    2.23   0
   9   2  -1   82.21    1.85   0
   8   2  -1    0.25    0.62   0
  -8  -2   1    0.37    0.62   0
   7   2  -1  151.93    2.47   0
  -7  -2   1  154.40    3.09   0
  -6  -2   1  346.63    5.19   0
   6   2  -1  353.31    4.70   0
   5   2  -1  550.60    6.55   0
  -5  -2   1  542.20    7.54   0
  -4  -2   1  282.22    4.33   0
   4   2  -1  282.84    3.58   0
   3   2  -1   36.22    1.11   0
  -3  -2   1   37.83    1.24   0
   2   2  -1   56.74    0.99   0
  -2  -2   1   57.24    1.48   0
  -1  -2   1 2638.17   82.70   0
   1   2  -1 2569.44   79.36   0
   0  -2  -1 4107.15  125.97   0
   0   2   1 4026.06  126.59   0
   1   2   1 2945.37   64.04   0
  -1  -2  -1 2928.19   45.49   0
   2   2   1  847.79   10.26   0
  -2  -2  -1  844.08   13.60   0
   3   2   1 4452.67   56.25   0
  -3  -2  -1 4522.27   57.48   0
  -4  -2  -1  804.27   11.13   0
   4   2   1  813.79   10.26   0
   5   2   1  202.00    2.72   0
  -5  -2  -1  206.07    3.34   0
  -6  -2  -1  386.07    5.93   0
   6   2   1  398.30    5.81   0
  -7  -2  -1   51.30    1.36   0
   7   2   1   53.16    1.11   0
   8   2   1  176.28    2.72   0
  -8  -2  -1  177.52    3.71   0
   9   2   1    8.04    1.36   0
  -9  -2  -1    9.52    1.11   0
  10   2   1    0.49    1.85   0
 -10  -2  -1    0.87    1.24   0
  11   2   1  223.88    7.05   0
 -11  -2  -1  218.31    6.92   0
  12   2   1   23.61    2.84   0
 -12  -3   1  201.38   11.74   0
  12   3  -1  211.88    7.05   0
  11   3  -1   49.20    2.97   0
 -11  -3   1   58.23    4.08   0
 -10  -3   1    0.62    2.23   0
  10   3  -1    2.35    1.61   0
   9   3  -1  131.04    2.97   0
  -9  -3   1  122.26    4.82   0
  -8  -3   1  196.06    6.68   0
   8   3  -1  204.22    3.96   0
  -7  -3   1  191.73    4.33   0
   7   3  -1  191.61    3.34   0
  -6  -3   1 2137.39   34.86   0
   6   3  -1 2174.72   24.60   0
  -5  -3   1    0.87    0.99   0
   5   3  -1   -0.74    0.62   0
  -4  -3   1   15.70    1.61   0
   4   3  -1   17.31    0.87   0
  -3  -3   1  170.60    3.58   0
   3   3  -1  177.89    2.60   0
   2   3  -1  595.85    8.65   0
  -2  -3   1  589.91   11.25   0
   1   3  -1    7.54    0.62   0
  -1  -3   1    8.28    0.62   0
   0  -3  -1 4277.13   58.84   0
   0   3   1 4335.23   66.75   0
  -1  -3  -1  896.49   11.74   0
   1   3   1  912.69   12.86   0
  -2  -3  -1  819.23   11.87   0
   2   3   1  828.50   11.87   0
  -3  -3  -1    2.97    0.62   0
   3   3   1    2.10    0.37   0
   4   3   1    9.52    0.49   0
  -4  -3  -1    7.54    0.62   0
  -5  -3  -1  113.11    2.72   0
   5   3   1  112.74    1.85   0
   6   3   1    0.87    0.37   0
  -6  -3  -1    1.98    0.49   0
   7   3   1  449.61    6.18   0
  -7  -3  -1  439.10    7.42   0
   8   3   1    1.73    0.74   0
  -8  -3  -1    3.96    0.74   0
  -9  -3  -1    7.54    0.87   0
   9   3   1    5.69    1.73   0
 -10  -3  -1   -1.73    3.71   0
  10   3   1    2.35    2.10   0
  11   3   1   25.84    2.60   0
 -11  -3  -1   27.07    3.09   0
  11   4  -1  157.24    5.56   0
 -11  -4   1  152.30   10.51   0
  10   4  -1  216.83    5.81   0
 -10  -4   1  208.79   11.00   0
  -9  -4   1  154.03    8.41   0
   9   4  -1  159.96    3.58   0
  -8  -4   1  791.91   28.19   0
   8   4  -1  833.94   12.98   0
   7   4  -1   22.87    0.87   0
  -7  -4   1   15.95    2.84   0
   6   4  -1  105.45    1.98   0
  -6  -4   1  101.24    3.34   0
  -5  -4   1  949.40   18.54   0
   5   4  -1  949.52   12.86   0
   4   4  -1 1682.22   20.15   0
  -4  -4   1 1652.55   36.96   0
   3   4  -1   38.94    0.87   0
  -3  -4   1   36.22    1.36   0
  -2  -4   1  191.86    3.58   0
   2   4  -1  190.87    2.97   0
   1   4  -1  293.10    5.19   0
  -1  -4   1  293.84    5.19   0
   0  -4  -1 1870.12   24.35   0
   0   4   1 1887.43   29.79   0
   1   4   1   13.47    0.87   0
  -1  -4  -1   14.96    0.62   0
  -2  -4  -1 1551.31   22.50   0
   2   4   1 1576.40   22.50   0
  -3  -4  -1 3748.16   53.28   0
   3   4   1 3775.85   48.21   0
  -4  -4  -1   33.38    1.11   0
   4   4   1   39.31    0.87   0
   5   4   1   90.37    1.48   0
  -5  -4  -1   88.14    2.10   0
  -6  -4  -1   71.70    1.73   0
   6   4   1   72.07    1.36   0
   7   4   1   47.35    0.87   0
  -7  -4  -1   48.71    1.48   0
   8   4   1   94.07    2.47   0
  -8  -4  -1  105.08    2.47   0
   9   4   1  257.99    5.32   0
  -9  -4  -1  264.67   11.62   0
 -10  -4  -1  124.86   10.01   0
  10   4   1  124.11    4.20   0
  11   4   1   15.21    2.47   0
 -11  -4  -1   19.90    7.66   0
  11   5  -1    1.85    2.10   0
 -11  -5   1    1.48    5.93   0
 -10  -5   1   -3.21    4.45   0
  10   5  -1    0.74    1.98   0
  -9  -5   1   64.53    5.93   0
   9   5  -1   57.24    2.35   0
   8   5  -1    0.87    0.99   0
  -8  -5   1   -3.34    2.23   0
   7   5  -1   60.94    1.61   0
  -7  -5   1   56.62    3.46   0
  -6  -5   1  329.20    8.28   0
   6   5  -1  354.91    5.44   0
  -5  -5   1   52.17    2.60   0
   5   5  -1   51.92    1.61   0
   4   5  -1  191.12    2.97   0
  -4  -5   1  185.55    4.20   0
   3   5  -1  735.17   10.01   0
  -3  -5   1  723.67   13.72   0
   2   5  -1  280.25    5.07   0
  -2  -5   1  278.14    5.07   0
  -1  -5   1   29.17    1.24   0
   1   5  -1   27.94    1.11   0
   0   5   1   43.27    1.36   0
   0  -5  -1   43.02    1.11   0
   1   5   1  832.33   13.72   0
  -1  -5  -1  824.42   11.13   0
   2   5   1  129.18    2.35   0
  -2  -5  -1  130.91    2.47   0
  -3  -5  -1    2.72    0.74   0
   3   5   1    2.72    0.62   0
  -4  -5  -1   30.90    1.24   0
   4   5   1   29.17    0.87   0
  -5  -5  -1   44.13    1.48   0
   5   5   1   45.12    0.99   0
   6   5   1   40.18    0.87   0
  -6  -5  -1   36.34    1.48   0
  -7  -5  -1  106.19    6.55   0
   7   5   1  102.73    2.47   0
  -8  -5  -1   53.53    5.32   0
   8   5   1   63.91    1.61   0
  -9  -5  -1   14.22    4.70   0
   9   5   1   19.16    1.85   0
 -10  -5  -1   42.65    7.91   0
  10   5   1   46.85    2.97   0
  11   5   1    9.27    2.23   0
 -11  -5  -1   16.69    8.41   0
  10   6  -1  229.32    9.02   0
 -10  -6   1  224.49   15.08   0
   9   6  -1    3.34    1.61   0
  -9  -6   1    9.52    4.45   0
   8   6  -1  408.19    6.43   0
  -8  -6   1  383.22   11.00   0
   7   6  -1  909.84   12.98   0
  -7  -6   1  874.12   22.25   0
  -6  -6   1  174.30    6.06   0
   6   6  -1  169.73    3.09   0
   5   6  -1  615.87    8.04   0
  -5  -6   1  566.30   11.99   0
  -4  -6   1  837.03   14.59   0
   4   6  -1  862.87   11.87   0
  -3  -6   1  129.92    2.84   0
   3   6  -1  136.48    2.97   0
  -2  -6   1   94.32    2.35   0
   2   6  -1   92.71    2.23   0
   1   6  -1  430.57    7.66   0
  -1  -6   1  443.30    7.91   0
   0   6   1  116.33    2.72   0
   0  -6  -1  123.25    1.98   0
   1   6   1 1093.05   17.80   0
  -1  -6  -1 1104.67   14.71   0
   2   6   1  106.44    2.47   0
  -2  -6  -1  106.44    1.98   0
   3   6   1 1088.72   16.19   0
  -3  -6  -1 1064.12   15.70   0
  -4  -6  -1  562.10    8.90   0
   4   6   1  579.53    7.42   0
   5   6   1  249.47    3.46   0
  -5  -6  -1  236.24    4.70   0
   6   6   1  240.94    3.71   0
  -6  -6  -1  227.34    5.19   0
  -7  -6  -1    0.25    3.71   0
   7   6   1    3.09    1.24   0
   8   6   1  228.20    4.45   0
  -8  -6  -1  221.65   10.88   0
   9   6   1  213.86    4.94   0
  -9  -6  -1  188.89   11.74   0
  10   6   1  254.16    9.52   0
 -10  -6  -1  258.61   15.70   0
 -10  -7   1   -3.34    5.32   0
  10   7  -1    4.33    3.58   0
  -9  -7   1   76.27    8.16   0
   9   7  -1   82.21    3.83   0
   8   7  -1    5.32    1.73   0
  -8  -7   1   -3.21    2.72   0
  -7  -7   1   46.11    3.71   0
   7   7  -1   57.11    1.85   0
  -6  -7   1   40.67    3.46   0
   6   7  -1   41.54    1.85   0
  -5  -7   1  199.40    6.68   0
   5   7  -1  230.55    3.96   0
   4   7  -1   32.64    1.24   0
  -4  -7   1   33.50    1.61   0
  -3  -7   1  263.81    4.82   0
   3   7  -1  258.12    5.07   0
   2   7  -1   94.32    2.47   0
  -2  -7   1   91.97    2.47   0
   1   7  -1   60.57    2.10   0
  -1  -7   1   56.25    1.61   0
   0  -7  -1  379.14    5.07   0
   0   7   1  373.09    6.80   0
  -1  -7  -1   91.48    1.85   0
   1   7   1   88.14    2.35   0
   2   7   1  269.49    5.19   0
  -2  -7  -1  278.76    4.20   0
   3   7   1    2.84    0.99   0
  -3  -7  -1   -0.74    1.73   0
   4   7   1   59.34    1.48   0
  -4  -7  -1   55.01    1.61   0
   5   7   1   34.98    1.11   0
  -5  -7  -1   34.98    1.73   0
   6   7   1    7.91    1.24   0
  -6  -7  -1    8.65    0.87   0
   7   7   1    1.11    1.11   0
  -7  -7  -1   -2.84    3.71   0
   8   7   1    6.92    1.61   0
  -8  -7  -1   12.36    4.45   0
  -9  -7  -1   -7.79    4.57   0
   9   7   1   -2.60    3.58   0
  10   7   1  115.46    6.06   0
 -10  -7  -1  113.85    9.15   0
  -9  -8   1   24.35    7.66   0
   9   8  -1   23.74    2.60   0
  -8  -8   1  126.71    6.43   0
   8   8  -1  143.77    4.57   0
   7   8  -1  352.32    7.42   0
  -7  -8   1  354.29   10.88   0
   6   8  -1  257.38    5.69   0
  -6  -8   1  268.13    9.15   0
  -5  -8   1    4.45    2.47   0
   5   8  -1    0.62    0.87   0
   4   8  -1  113.61    3.09   0
  -4  -8   1  116.33    3.46   0
   3   8  -1   39.06    1.85   0
  -3  -8   1   43.14    1.73   0
   2   8  -1  644.80   12.98   0
  -2  -8   1  633.92   10.14   0
  -1  -8   1 1684.94   24.48   0
   1   8  -1 1646.99   30.90   0
   0  -8  -1  562.35    7.42   0
   0   8   1  525.26   10.75   0
   1   8   1   16.44    1.73   0
  -1  -8  -1   14.46    0.87   0
   2   8   1  152.67    4.08   0
  -2  -8  -1  158.48    2.84   0
   3   8   1   34.74    2.47   0
  -3  -8  -1   33.01    1.24   0
  -4  -8  -1  181.35    4.82   0
   4   8   1  190.75    4.33   0
   5   8   1  596.47    9.64   0
  -5  -8  -1  606.73   12.61   0
   6   8   1  141.67    4.45   0
  -6  -8  -1  146.12    8.04   0
  -7  -8  -1   26.95    6.06   0
   7   8   1   19.53    1.85   0
  -8  -8  -1    5.07    6.30   0
   8   8   1    4.94    2.23   0
   9   8   1   69.85    4.70   0
  -9  -8  -1   94.07    9.77   0
   8   9  -1  102.48    4.45   0
  -8  -9   1   99.64    8.28   0
   7   9  -1    2.84    1.98   0
  -7  -9   1    4.45    2.97   0
  -6  -9   1   12.49    2.84   0
   6   9  -1   13.72    1.98   0
  -5  -9   1  267.27    8.53   0
   5   9  -1  278.64    8.90   0
   4   9  -1   41.17    3.58   0
  -4  -9   1   59.21    3.58   0
   3   9  -1  370.86   10.51   0
  -3  -9   1  353.92    6.80   0
  -2  -9   1   46.11    1.61   0
   2   9  -1   46.85    2.84   0
   1   9  -1   94.45    3.58   0
  -1  -9   1  100.13    2.23   0
   0   9   1   48.58    2.72   0
   0  -9  -1   47.59    1.48   0
  -1  -9  -1  189.51    2.72   0
   1   9   1  183.33    5.81   0
  -2  -9  -1  111.38    3.09   0
   2   9   1  114.47    4.45   0
   3   9   1   79.49    3.21   0
  -3  -9  -1   75.66    2.72   0
   4   9   1  124.98    5.56   0
  -4  -9  -1  124.73    3.71   0
   5   9   1    1.85    1.85   0
  -5  -9  -1   -0.25    1.98   0
   6   9   1   51.80    2.84   0
  -6  -9  -1   46.98    5.07   0
  -7  -9  -1  289.64   15.45   0
   7   9   1  274.44    7.17   0
   8   9   1    7.42    2.84   0
  -8  -9  -1   10.51    7.29   0
   7  10  -1   13.35    2.23   0
  -7 -10   1   11.37    4.20   0
   6  10  -1   10.63    2.72   0
  -6 -10   1   16.19    3.83   0
  -5 -10   1    9.89    3.34   0
   5  10  -1    6.43    2.72   0
   4  10  -1   16.69    3.34   0
  -4 -10   1   15.33    2.84   0
   3  10  -1    6.18    2.72   0
  -3 -10   1   10.51    1.73   0
   2  10  -1  540.10   20.77   0
  -2 -10   1  514.88   11.13   0
   1  10  -1  102.11    4.57   0
  -1 -10   1   93.95    2.60   0
   0 -10  -1  138.45    3.21   0
   0  10   1  147.85    5.32   0
   1  10   1   20.27    2.23   0
  -1 -10  -1   24.35    1.36   0
  -2 -10  -1    7.66    1.85   0
   2  10   1    8.78    3.09   0
   3  10   1    7.91    2.60   0
  -3 -10  -1    8.16    1.98   0
  -4 -10  -1   12.61    1.85   0
   4  10   1   15.58    2.97   0
   5  10   1    0.12    2.84   0
  -5 -10  -1    2.84    1.85   0
   6  10   1   30.90    2.97   0
  -6 -10  -1   35.60    6.55   0
  -7 -10  -1   69.72    7.05   0
   7  10   1   78.00    3.46   0
   5  11  -1  258.61    8.53   0
  -5 -11   1  256.02   10.14   0
   4  11  -1   11.62    3.09   0
  -4 -11   1    9.89    4.20   0
  -3 -11   1   89.75    6.92   0
   3  11  -1   90.49    5.44   0
  -2 -11   1  325.86   16.44   0
   2  11  -1  338.47   12.73   0
  -1 -11   1   13.23    2.60   0
   1  11  -1   15.21    3.21   0
   0 -11  -1  229.07    7.42   0
   0  11   1  215.59   12.98   0
   1  11   1  110.64    5.93   0
  -1 -11  -1  107.67    5.19   0
  -2 -11  -1    1.73    2.84   0
   2  11   1    0.87    3.58   0
  -3 -11  -1  104.34    5.32   0
   3  11   1   95.06    5.44   0
   4  11   1   81.96    4.82   0
  -4 -11  -1  109.03    6.18   0
   5  11   1    1.48    2.35   0
   3  12  -1   -0.99    3.34   0
  -3 -12   1   -4.70    6.55   0
  -2 -12   1   31.89    5.56   0
   2  12  -1   39.56    9.52   0
   1  12  -1   20.27    8.78   0
  -1 -12   1   10.38    6.06   0
   0  12   1    3.46    8.53   0
   0 -12  -1    7.17    5.19   0
   1  12   1   67.62    7.91   0
  -1 -12  -1   80.60    6.18   0
  -2 -12  -1   23.49    5.07   0
   2  12   1   13.35    8.65   0
   3  12   1   13.35    3.46   0
  -3 -12  -1    8.78    4.20   0
  12   0  -2  369.01   10.26   0
  11   0  -2   32.02    2.35   0
  10   0  -2  556.91   10.26   0
   9   0  -2   76.27    1.98   0
   8   0  -2  174.18    3.09   0
   7   0  -2 1258.57   16.94   0
   6   0  -2  286.67    3.71   0
   5   0  -2   89.75    1.36   0
   4   0  -2 4750.84   55.26   0
   3   0  -2  539.85    6.55   0
   1   0  -2  223.44    3.37   0
   0   0   2   36.57    1.12   0
   1   0   2 3456.41   41.66   0
   2   0   2 2484.39   27.44   0
   3   0   2  245.26    3.21   0
   4   0   2 2494.90   27.81   0
   5   0   2  701.79    8.28   0
   6   0   2  811.81   11.00   0
   7   0   2  674.72    9.64   0
   8   0   2  394.59    6.55   0
   9   0   2    3.83    1.24   0
  10   0   2   86.29    3.34   0
  11   0   2  577.68   15.70   0
 -12  -1   2   10.14    1.61   0
  12   1  -2   12.73    2.23   0
 -11  -1   2    0.49    3.83   0
  11   1  -2    1.11    1.61   0
  10   1  -2    2.97    1.48   0
 -10  -1   2    3.21    1.11   0
   9   1  -2  255.65    4.70   0
  -9  -1   2  265.29    5.19   0
  -8  -1   2    6.80    0.87   0
   8   1  -2    7.29    0.37   0
   7   1  -2  121.15    1.98   0
  -7  -1   2  116.45    1.98   0
  -6  -1   2   15.58    0.74   0
   6   1  -2   14.46    0.62   0
   5   1  -2  357.01    4.45   0
  -5  -1   2  357.26    5.69   0
  -4  -1   2   22.75    0.74   0
   4   1  -2   22.25    0.62   0
   3   1  -2  218.68    2.72   0
  -3  -1   2  219.80    3.34   0
   2   1  -2 1171.92   16.81   0
  -2  -1   2 1166.97   18.17   0
   1   1  -2  112.74    2.84   0
  -1  -1   2  117.44    2.72   0
   0   1   2    2.35    0.25   0
   0  -1  -2    2.84    0.37   0
  -1  -1  -2  430.20    5.69   0
   1   1   2  430.69    5.32   0
   2   1   2  122.88    1.61   0
  -2  -1  -2  120.65    1.73   0
  -3  -1  -2  434.65    5.56   0
   3   1   2  440.71    4.94   0
   4   1   2  919.86   10.14   0
  -4  -1  -2  898.47   12.24   0
  -5  -1  -2  216.95    3.21   0
   5   1   2  211.88    3.09   0
  -6  -1  -2  238.83    3.58   0
   6   1   2  244.03    3.46   0
   7   1   2    2.84    0.37   0
  -7  -1  -2    2.84    0.74   0
   8   1   2    3.71    0.99   0
  -8  -1  -2    2.97    1.11   0
   9   1   2    2.60    1.24   0
  -9  -1  -2    3.71    1.24   0
 -10  -1  -2    2.60    1.61   0
  10   1   2   -1.85    1.11   0
  11   1   2   27.81    2.35   0
 -11  -1  -2   21.88    1.98   0
  12   2  -2   95.56    4.08   0
 -12  -2   2   97.66    6.06   0
 -11  -2   2  123.87    3.71   0
  11   2  -2  119.29    4.08   0
 -10  -2   2  150.57    3.34   0
  10   2  -2  136.85    3.58   0
   9   2  -2    9.64    0.87   0
  -9  -2   2   13.35    0.87   0
  -8  -2   2 1189.97   17.92   0
   8   2  -2 1173.15   14.71   0
  -7  -2   2    1.73    0.49   0
   7   2  -2    2.84    0.49   0
   6   2  -2  218.31    2.84   0
  -6  -2   2  215.59    3.34   0
   5   2  -2    4.08    0.37   0
  -5  -2   2    4.94    0.37   0
  -4  -2   2  843.09   15.82   0
   4   2  -2  847.17   10.38   0
  -3  -2   2   93.83    2.23   0
   3   2  -2   91.48    1.48   0
   2   2  -2 5082.39   90.37   0
  -2  -2   2 5126.64  112.00   0
   1   2  -2  481.38    7.05   0
  -1  -2   2  483.85    9.02   0
   0  -2  -2 1328.54   24.11   0
   0   2   2 1332.75   19.04   0
  -1  -2  -2  161.20    2.84   0
   1   2   2  160.71    2.35   0
  -2  -2  -2 3212.02   50.31   0
   2   2   2 3171.47   35.11   0
   3   2   2  265.66    3.34   0
  -3  -2  -2  259.48    4.20   0
   4   2   2  406.83    5.44   0
  -4  -2  -2  403.62    5.93   0
  -5  -2  -2   31.89    0.99   0
   5   2   2   31.89    0.74   0
  -6  -2  -2  201.75    3.09   0
   6   2   2  195.94    2.97   0
  -7  -2  -2  558.27    8.28   0
   7   2   2  569.89    7.05   0
   8   2   2  153.41    2.47   0
  -8  -2  -2  147.36    3.34   0
   9   2   2  209.91    4.20   0
  -9  -2  -2  210.03    4.45   0
  10   2   2   10.14    2.10   0
 -10  -2  -2   14.09    1.73   0
 -11  -2  -2  110.02    3.96   0
  11   2   2  106.81    4.20   0
 -12  -3   2   56.99    4.33   0
  12   3  -2   55.75    3.09   0
  11   3  -2    7.05    2.10   0
 -11  -3   2   13.72    2.97   0
 -10  -3   2  187.53    6.80   0
  10   3  -2  184.56    4.33   0
  -9  -3   2  175.05    6.06   0
   9   3  -2  175.91    3.71   0
  -8  -3   2   67.74    2.84   0
   8   3  -2   72.44    2.10   0
  -7  -3   2   63.54    2.10   0
   7   3  -2   67.13    1.24   0
  -6  -3   2  848.90   14.59   0
   6   3  -2  862.87   10.88   0
  -5  -3   2  141.79    3.58   0
   5   3  -2  145.87    2.23   0
  -4  -3   2  111.51    3.58   0
   4   3  -2  113.24    1.85   0
   3   3  -2  605.12    7.54   0
  -3  -3   2  589.42   13.60   0
  -2  -3   2  188.89    5.19   0
   2   3  -2  190.62    2.84   0
   1   3  -2 1270.81   18.17   0
  -1  -3   2 1272.17   20.15   0
   0   3   2  213.99    3.46   0
   0  -3  -2  217.45    3.09   0
  -1  -3  -2  337.36    5.07   0
   1   3   2  345.27    4.70   0
   2   3   2   18.30    0.62   0
  -2  -3  -2   18.30    0.74   0
  -3  -3  -2  414.13    7.29   0
   3   3   2  414.13    5.32   0
  -4  -3  -2  518.71    8.90   0
   4   3   2  514.63    6.55   0
  -5  -3  -2  179.87    3.83   0
   5   3   2  185.92    2.84   0
   6   3   2   27.69    0.87   0
  -6  -3  -2   27.32    1.48   0
  -7  -3  -2  217.08    5.19   0
   7   3   2  228.57    3.83   0
   8   3   2  110.64    2.10   0
  -8  -3  -2  111.63    3.34   0
  -9  -3  -2    9.02    1.11   0
   9   3   2    6.55    1.98   0
  10   3   2   32.02    2.35   0
 -10  -3  -2   37.70    1.85   0
 -11  -3  -2  175.54   11.13   0
  11   3   2  166.64    5.81   0
 -11  -4   2    4.08    5.19   0
  11   4  -2    3.09    2.23   0
  10   4  -2   18.54    2.23   0
 -10  -4   2   20.03    4.82   0
   9   4  -2   52.79    1.98   0
  -9  -4   2   61.07    5.81   0
  -8  -4   2  427.23   11.87   0
   8   4  -2  443.92    6.06   0
   7   4  -2    0.74    0.74   0
  -7  -4   2   -0.74    2.97   0
   6   4  -2  840.49   10.51   0
  -6  -4   2  815.89   16.44   0
  -5  -4   2    8.78    1.98   0
   5   4  -2    4.82    0.74   0
  -4  -4   2  132.15    4.20   0
   4   4  -2  132.77    2.60   0
   3   4  -2   40.05    0.87   0
  -3  -4   2   34.86    1.85   0
   2   4  -2   32.26    1.11   0
  -2  -4   2   31.28    1.11   0
  -1  -4   2  881.53   14.46   0
   1   4  -2  872.88   14.22   0
   0   4   2   29.67    0.99   0
   0  -4  -2   29.42    0.74   0
   1   4   2  482.24    7.29   0
  -1  -4  -2  468.52    7.05   0
   2   4   2  164.66    2.60   0
  -2  -4  -2  162.07    3.09   0
  -3  -4  -2    7.17    0.74   0
   3   4   2    7.42    0.49   0
   4   4   2   11.00    0.62   0
  -4  -4  -2   10.75    0.87   0
  -5  -4  -2  150.69    3.34   0
   5   4   2  150.69    2.10   0
  -6  -4  -2    9.40    0.99   0
   6   4   2   11.74    0.74   0
   7   4   2  146.98    2.72   0
  -7  -4  -2  145.75    3.71   0
  -8  -4  -2  124.98    3.34   0
   8   4   2  126.96    2.47   0
  -9  -4  -2  100.87    2.84   0
   9   4   2   90.61    3.46   0
 -10  -4  -2   21.02    5.69   0
  10   4   2   18.67    2.35   0
 -11  -4  -2   12.36    5.81   0
  11   4   2   14.09    2.60   0
 -11  -5   2   10.14    5.07   0
  11   5  -2   -0.37    2.72   0
 -10  -5   2  221.53   12.36   0
  10   5  -2  231.17    7.17   0
   9   5  -2  153.17    4.45   0
  -9  -5   2  141.92    6.06   0
   8   5  -2  429.46    6.18   0
  -8  -5   2  419.81   11.99   0
   7   5  -2  978.08   13.60   0
  -7  -5   2  939.39   24.11   0
  -6  -5   2 1194.91   23.49   0
   6   5  -2 1288.12   16.44   0
  -5  -5   2  547.39   13.35   0
   5   5  -2  552.83    7.91   0
   4   5  -2  103.22    1.73   0
  -4  -5   2  107.18    3.83   0
  -3  -5   2  182.22    4.20   0
   3   5  -2  191.98    2.97   0
  -2  -5   2    5.44    0.99   0
   2   5  -2    2.72    0.74   0
   1   5  -2  564.70    9.52   0
  -1  -5   2  571.25    9.64   0
   0  -5  -2  257.25    3.83   0
   0   5   2  258.37    4.94   0
   1   5   2  681.52   11.25   0
  -1  -5  -2  671.87    9.27   0
   2   5   2   16.69    0.87   0
  -2  -5  -2   17.55    0.87   0
   3   5   2   10.63    0.62   0
  -3  -5  -2   11.00    0.87   0
  -4  -5  -2   13.35    0.99   0
   4   5   2   14.59    0.74   0
   5   5   2   71.70    1.36   0
  -5  -5  -2   71.70    2.10   0
  -6  -5  -2  186.91    4.70   0
   6   5   2  190.87    2.97   0
   7   5   2  101.49    2.10   0
  -7  -5  -2  106.93    2.84   0
   8   5   2  334.14    5.93   0
  -8  -5  -2  310.66   13.23   0
  -9  -5  -2    1.61    4.57   0
   9   5   2    0.87    1.73   0
 -10  -5  -2   86.53    7.54   0
  10   5   2   93.58    3.96   0
  11   6  -2   67.99    4.20   0
 -11  -6   2   84.06   10.01   0
 -10  -6   2    9.15    4.82   0
  10   6  -2   13.72    3.09   0
  -9  -6   2   71.58    4.94   0
   9   6  -2   73.92    2.72   0
  -8  -6   2   15.21    2.84   0
   8   6  -2   21.63    1.24   0
  -7  -6   2   29.30    3.46   0
   7   6  -2   30.90    1.48   0
  -6  -6   2    8.41    3.34   0
   6   6  -2    8.41    0.99   0
   5   6  -2   88.39    2.10   0
  -5  -6   2   80.11    3.71   0
  -4  -6   2  316.96    8.78   0
   4   6  -2  320.30    4.70   0
   3   6  -2  171.83    3.46   0
  -3  -6   2  166.76    3.58   0
  -2  -6   2  277.77    5.44   0
   2   6  -2  267.51    5.07   0
   1   6  -2   91.48    2.23   0
  -1  -6   2   84.80    1.85   0
   0  -6  -2  304.72    4.57   0
   0   6   2  305.34    5.56   0
  -1  -6  -2  330.81    4.94   0
   1   6   2  319.68    5.81   0
   2   6   2  309.17    5.32   0
  -2  -6  -2  302.13    5.07   0
   3   6   2   45.86    1.24   0
  -3  -6  -2   47.10    1.48   0
  -4  -6  -2    1.11    0.99   0
   4   6   2    0.62    0.62   0
  -5  -6  -2   95.31    2.84   0
   5   6   2   93.95    1.73   0
   6   6   2   12.98    0.74   0
  -6  -6  -2   13.60    1.24   0
   7   6   2    5.32    1.24   0
  -7  -6  -2    2.84    3.96   0
   8   6   2    1.48    0.99   0
  -8  -6  -2    7.29    4.08   0
   9   6   2   28.93    2.60   0
  -9  -6  -2   35.23    5.81   0
  10   6   2   10.14    3.09   0
 -10  -6  -2    1.48    4.94   0
  10   7  -2   73.92    4.82   0
 -10  -7   2   92.47   10.14   0
  -9  -7   2  206.32    8.53   0
   9   7  -2  202.12    6.80   0
   8   7  -2   97.17    3.34   0
  -8  -7   2   95.06    5.44   0
  -7  -7   2   54.02    3.96   0
   7   7  -2   52.04    1.98   0
   6   7  -2  303.24    6.18   0
  -6  -7   2  303.98    9.15   0
   5   7  -2   61.44    1.36   0
  -5  -7   2   55.26    3.96   0
  -4  -7   2   62.55    3.46   0
   4   7  -2   68.24    1.61   0
  -3  -7   2 1068.08   17.80   0
   3   7  -2 1059.42   17.92   0
   2   7  -2  501.90    8.90   0
  -2  -7   2  491.51    8.53   0
   1   7  -2  248.97    4.94   0
  -1  -7   2  250.45    4.33   0
   0  -7  -2  294.34    4.20   0
   0   7   2  284.82    5.44   0
  -1  -7  -2   17.68    0.99   0
   1   7   2   20.40    1.48   0
  -2  -7  -2   17.06    1.11   0
   2   7   2   19.04    1.11   0
  -3  -7  -2  517.47    8.53   0
   3   7   2  526.25    9.52   0
   4   7   2  331.18    5.07   0
  -4  -7  -2  315.23    6.06   0
  -5  -7  -2   45.49    1.98   0
   5   7   2   45.86    1.36   0
  -6  -7  -2   55.38    2.60   0
   6   7   2   51.30    1.98   0
   7   7   2  128.56    3.46   0
  -7  -7  -2  148.34    9.27   0
  -8  -7  -2   17.55    6.43   0
   8   7   2    0.74    1.48   0
  -9  -7  -2   19.78    7.29   0
   9   7   2    9.52    2.72   0
   9   8  -2  120.16    4.94   0
  -9  -8   2  113.98    6.18   0
   8   8  -2    9.77    2.10   0
  -8  -8   2    9.02    3.46   0
  -7  -8   2  143.28    5.81   0
   7   8  -2  136.35    3.71   0
  -6  -8   2   45.99    3.83   0
   6   8  -2   35.97    2.47   0
   5   8  -2  544.55   11.62   0
  -5  -8   2  531.69   14.46   0
  -4  -8   2    1.85    2.10   0
   4   8  -2    1.48    0.87   0
  -3  -8   2   16.94    2.23   0
   3   8  -2   14.83    1.48   0
  -2  -8   2 1158.94   19.66   0
   2   8  -2 1160.79   22.50   0
  -1  -8   2  190.50    3.71   0
   1   8  -2  183.82    4.70   0
   0  -8  -2  327.59    4.57   0
   0   8   2  320.42    8.53   0
  -1  -8  -2   13.97    0.99   0
   1   8   2   13.23    1.36   0
   2   8   2  139.20    3.34   0
  -2  -8  -2  141.05    2.84   0
   3   8   2    7.05    1.48   0
  -3  -8  -2    6.55    1.11   0
   4   8   2  274.19    5.56   0
  -4  -8  -2  273.08    5.44   0
   5   8   2   24.11    1.24   0
  -5  -8  -2   28.19    2.23   0
   6   8   2   17.80    2.10   0
  -6  -8  -2   19.41    1.48   0
   7   8   2   85.55    3.71   0
  -7  -8  -2  100.01    8.16   0
   8   8   2  167.51    6.06   0
  -8  -8  -2  160.83   10.51   0
  -9  -8  -2   90.00    8.04   0
   9   8   2   96.92    5.69   0
   8   9  -2    4.45    2.35   0
  -8  -9   2    6.43    4.08   0
  -7  -9   2    7.42    2.97   0
   7   9  -2   12.61    2.35   0
   6   9  -2    9.02    2.72   0
  -6  -9   2    7.05    3.09   0
  -5  -9   2   20.27    3.09   0
   5   9  -2   27.20    3.21   0
  -4  -9   2   88.64    3.96   0
   4   9  -2   81.59    4.20   0
  -3  -9   2  457.76   10.26   0
   3   9  -2  456.53   12.98   0
   2   9  -2  113.48    3.71   0
  -2  -9   2  110.64    2.72   0
  -1  -9   2   21.02    1.36   0
   1   9  -2   19.28    2.10   0
   0  -9  -2   55.51    1.85   0
   0   9   2   57.48    2.60   0
   1   9   2    1.85    1.61   0
  -1  -9  -2    1.98    0.62   0
   2   9   2    0.12    1.61   0
  -2  -9  -2    0.12    0.87   0
  -3  -9  -2  503.88    9.40   0
   3   9   2  483.23   13.23   0
   4   9   2  122.51    5.56   0
  -4  -9  -2  124.49    4.57   0
  -5  -9  -2   -0.25    2.97   0
   5   9   2    2.60    2.10   0
  -6  -9  -2   17.31    1.73   0
   6   9   2   17.68    2.47   0
   7   9   2    4.82    2.35   0
  -7  -9  -2   -2.10    6.06   0
   8   9   2    4.20    2.47   0
  -8  -9  -2    1.11    5.19   0
   7  10  -2   23.49    2.72   0
  -7 -10   2   23.86    4.94   0
  -6 -10   2    2.47    4.08   0
   6  10  -2    3.96    2.47   0
   5  10  -2  190.99    7.91   0
  -5 -10   2  191.12    7.91   0
   4  10  -2   43.64    3.83   0
  -4 -10   2   38.32    3.09   0
  -3 -10   2    5.69    2.60   0
   3  10  -2    3.46    3.09   0
  -2 -10   2  405.97   11.00   0
   2  10  -2  381.74   11.50   0
   1  10  -2  376.18    8.78   0
  -1 -10   2  364.31    7.17   0
   0  10   2    5.19    1.98   0
   0 -10  -2    4.82    1.11   0
   1  10   2   11.62    1.98   0
  -1 -10  -2   12.73    1.24   0
   2  10   2  588.06   16.19   0
  -2 -10  -2  619.95   13.10   0
  -3 -10  -2    9.64    1.98   0
   3  10   2    4.08    2.47   0
  -4 -10  -2  272.46    8.04   0
   4  10   2  238.96    8.04   0
  -5 -10  -2  192.35    7.05   0
   5  10   2  169.73    5.93   0
   6  10   2    8.28    2.47   0
  -6 -10  -2   10.01    5.69   0
   5  11  -2   10.26    4.82   0
  -5 -11   2   13.72    4.08   0
   4  11  -2    2.72    3.58   0
  -4 -11   2    8.90    3.34   0
  -3 -11   2    1.24    5.81   0
   3  11  -2   10.01    3.96   0
   2  11  -2  124.61    6.06   0
  -2 -11   2  128.94    8.65   0
  -1 -11   2   13.85    5.56   0
   1  11  -2   19.04    3.71   0
   0 -11  -2   12.61    3.58   0
   0  11   2   -0.99    4.82   0
   1  11   2   51.06    4.08   0
  -1 -11  -2   48.71    4.70   0
   2  11   2   53.28    4.20   0
  -2 -11  -2   71.58    6.30   0
  -3 -11  -2   10.14    4.20   0
   3  11   2    8.16    4.08   0
   4  11   2    4.70    3.21   0
  -4 -11  -2    6.68    3.46   0
   5  11   2   -1.24    2.47   0
  -5 -11  -2    3.96    2.72   0
   3  12  -2   35.85    4.08   0
  -3 -12   2   32.14    5.44   0
   2  12  -2   34.61    6.55   0
  -2 -12   2   55.38    7.54   0
  -1 -12   2   19.53    4.45   0
   1  12  -2   14.09    5.93   0
   0  12   2   -2.60    5.44   0
   0 -12  -2    3.58    3.96   0
   1  12   2  182.09   13.47   0
  -1 -12  -2  192.11   10.75   0
   2  12   2  248.48   15.33   0
  -2 -12  -2  270.23   14.09   0
  12   1  -3   16.69    2.23   0
 -12  -1   3   23.61    1.98   0
 -11  -1   3    3.21    1.36   0
  11   1  -3    0.87    1.61   0
  10   1  -3  688.81   10.75   0
 -10  -1   3  691.04   12.24   0
  -9  -1   3  566.18    9.89   0
   9   1  -3  552.95    8.90   0
  -8  -1   3   75.16    1.48   0
   8   1  -3   71.45    1.48   0
  -7  -1   3  401.02    5.56   0
   7   1  -3  404.98    5.44   0
  -6  -1   3    5.81    0.62   0
   6   1  -3    5.81    0.49   0
  -5  -1   3  341.56    4.82   0
   5   1  -3  341.44    4.20   0
   4   1  -3  220.68    1.98   0
  -4  -1   3  224.26    2.23   0
  -3  -1   3 4875.45   76.52   0
   3   1  -3 4930.83   62.68   0
   1   1  -3  347.00    5.19   0
  -1  -1   3  348.11    5.07   0
   1   1   3 1604.09   19.41   0
  -1  -1  -3 1605.45   19.04   0
   2   1   3 1384.30   16.69   0
  -2  -1  -3 1383.80   16.81   0
   3   1   3  556.29    6.55   0
  -3  -1  -3  556.66    6.92   0
   4   1   3 6467.43   76.52   0
  -4  -1  -3 6293.12   79.73   0
   5   1   3  150.69    2.23   0
  -5  -1  -3  149.09    2.60   0
   6   1   3  975.24   11.74   0
  -6  -1  -3  972.64   12.73   0
  -7  -1  -3    3.58    0.87   0
   7   1   3    5.56    0.49   0
  -8  -1  -3  469.51    8.78   0
   8   1   3  472.60    7.79   0
  -9  -1  -3  424.51    8.16   0
   9   1   3  435.14    8.53   0
 -10  -1  -3    4.70    1.61   0
  10   1   3    0.12    1.98   0
 -11  -1  -3   16.69    2.23   0
  11   1   3   16.69    2.47   0
 -12  -2   3   78.87    4.70   0
  12   2  -3   83.94    3.58   0
 -11  -2   3   18.30    1.24   0
  11   2  -3   22.99    2.35   0
 -10  -2   3    8.28    0.74   0
  10   2  -3    8.41    1.48   0
   9   2  -3    4.57    0.99   0
  -9  -2   3    3.09    0.62   0
   8   2  -3    1.73    0.87   0
  -8  -2   3    1.11    0.49   0
   7   2  -3  566.30    7.29   0
  -7  -2   3  564.70    8.04   0
   6   2  -3   27.69    1.11   0
  -6  -2   3   27.81    0.99   0
   5   2  -3   25.59    0.74   0
  -5  -2   3   27.32    0.74   0
  -4  -2   3  290.75    5.81   0
   4   2  -3  290.63    4.33   0
  -3  -2   3  137.84    2.60   0
   3   2  -3  137.96    2.10   0
   2   2  -3   12.61    0.37   0
  -2  -2   3   12.98    0.99   0
   1   2  -3 2477.10   34.61   0
  -1  -2   3 2484.76   38.57   0
   0  -2  -3 1263.40   18.30   0
   0   2   3 1274.40   15.45   0
   1   2   3 6743.72   93.33   0
  -1  -2  -3 6612.06   92.71   0
   2   2   3  264.30    3.09   0
  -2  -2  -3  261.95    4.20   0
  -3  -2  -3  994.40   13.35   0
   3   2   3  996.62   10.88   0
  -4  -2  -3 2468.69   31.89   0
   4   2   3 2505.04   26.58   0
  -5  -2  -3  851.00   11.62   0
   5   2   3  857.18    9.64   0
  -6  -2  -3   65.27    1.61   0
   6   2   3   67.13    1.36   0
  -7  -2  -3   86.29    1.98   0
   7   2   3   87.89    1.85   0
  -8  -2  -3   24.23    1.48   0
   8   2   3   23.36    0.99   0
   9   2   3   10.63    1.48   0
  -9  -2  -3   10.63    1.36   0
 -10  -2  -3  222.52    5.81   0
  10   2   3  204.59    5.81   0
  11   2   3   25.71    2.97   0
 -11  -2  -3   23.24    2.10   0
 -12  -3   3   11.62    3.58   0
  12   3  -3   20.15    2.35   0
  11   3  -3    6.30    2.23   0
 -11  -3   3   11.50    2.60   0
 -10  -3   3  280.12    8.78   0
  10   3  -3  271.59    6.80   0
   9   3  -3   37.46    1.61   0
  -9  -3   3   35.97    2.35   0
  -8  -3   3  528.60   11.37   0
   8   3  -3  520.32    8.41   0
   7   3  -3  206.32    3.21   0
  -7  -3   3  204.71    4.57   0
  -6  -3   3   50.81    2.10   0
   6   3  -3   50.19    1.24   0
  -5  -3   3  104.58    2.84   0
   5   3  -3  104.09    1.73   0
   4   3  -3  167.13    2.72   0
  -4  -3   3  170.47    4.08   0
   3   3  -3   33.50    0.62   0
  -3  -3   3   36.84    1.24   0
   2   3  -3  293.35    4.08   0
  -2  -3   3  298.91    7.29   0
  -1  -3   3   36.72    1.48   0
   1   3  -3   34.49    0.74   0
   0   3   3 1691.99   21.63   0
   0  -3  -3 1671.47   26.33   0
   1   3   3   41.17    0.87   0
  -1  -3  -3   44.01    1.24   0
  -2  -3  -3 1639.08   26.21   0
   2   3   3 1645.26   20.03   0
   3   3   3 1346.96   15.45   0
  -3  -3  -3 1358.83   21.88   0
  -4  -3  -3   -0.87    0.87   0
   4   3   3   -1.11    0.49   0
   5   3   3   53.28    1.11   0
  -5  -3  -3   53.40    1.61   0
   6   3   3  185.06    2.72   0
  -6  -3  -3  188.64    4.20   0
  -7  -3  -3  156.87    3.58   0
   7   3   3  156.01    2.84   0
   8   3   3    6.30    0.87   0
  -8  -3  -3   10.63    1.11   0
   9   3   3   40.67    2.23   0
  -9  -3  -3   43.02    2.35   0
  10   3   3   -3.83    1.61   0
 -10  -3  -3   -4.08    3.21   0
 -11  -3  -3    8.78    5.44   0
  11   3   3    2.72    2.23   0
  12   4  -3   25.47    3.09   0
  11   4  -3  121.15    4.82   0
 -11  -4   3  116.57    9.02   0
 -10  -4   3  249.96    8.41   0
  10   4  -3  262.57    6.80   0
   9   4  -3  110.02    2.72   0
  -9  -4   3  112.49    3.96   0
   8   4  -3  295.82    4.33   0
  -8  -4   3  287.42    7.05   0
   7   4  -3   49.70    1.36   0
  -7  -4   3   37.33    3.34   0
  -6  -4   3  254.41    7.05   0
   6   4  -3  264.67    3.83   0
  -5  -4   3  190.13    5.56   0
   5   4  -3  194.08    2.97   0
  -4  -4   3    1.85    1.73   0
   4   4  -3    4.33    0.62   0
  -3  -4   3    7.79    1.36   0
   3   4  -3    9.40    0.37   0
  -2  -4   3    0.62    0.74   0
   2   4  -3    0.87    0.37   0
  -1  -4   3  191.73    4.08   0
   1   4  -3  191.61    3.21   0
   0   4   3   78.25    1.73   0
   0  -4  -3   78.62    1.61   0
  -1  -4  -3 3329.46   52.17   0
   1   4   3 3304.61   46.73   0
   2   4   3  134.87    2.23   0
  -2  -4  -3  133.39    2.72   0
   3   4   3 1708.80   19.66   0
  -3  -4  -3 1706.94   27.44   0
   4   4   3  168.99    2.60   0
  -4  -4  -3  169.24    3.46   0
   5   4   3 1778.40   21.76   0
  -5  -4  -3 1737.48   28.68   0
  -6  -4  -3  129.55    4.94   0
   6   4   3  129.68    2.10   0
  -7  -4  -3  314.74    7.66   0
   7   4   3  332.91    4.82   0
  -8  -4  -3   15.95    1.24   0
   8   4   3   12.36    1.11   0
   9   4   3   42.28    2.47   0
  -9  -4  -3   30.41    2.10   0
 -10  -4  -3  341.44   11.74   0
  10   4   3  327.59    9.40   0
  11   4   3   50.19    2.97   0
 -11  -4  -3   68.49    9.15   0
 -11  -5   3   31.77    6.68   0
  11   5  -3   34.49    2.97   0
 -10  -5   3   43.02    5.81   0
  10   5  -3   40.67    2.72   0
  -9  -5   3   -0.49    3.09   0
   9   5  -3    3.46    0.99   0
   8   5  -3  414.87    6.55   0
  -8  -5   3  391.38   11.25   0
  -7  -5   3   12.36    2.35   0
   7   5  -3   11.99    0.99   0
  -6  -5   3   39.06    2.84   0
   6   5  -3   34.24    1.24   0
   5   5  -3   83.69    1.85   0
  -5  -5   3   81.71    3.71   0
  -4  -5   3   -1.36    1.85   0
   4   5  -3   -0.12    1.11   0
  -3  -5   3   64.53    2.23   0
   3   5  -3   70.59    1.36   0
   2   5  -3  389.77    6.18   0
  -2  -5   3  401.02    8.41   0
  -1  -5   3   63.54    1.85   0
   1   5  -3   67.50    1.61   0
   0   5   3  125.60    2.60   0
   0  -5  -3  133.51    2.47   0
  -1  -5  -3    7.05    0.74   0
   1   5   3    4.57    0.87   0
  -2  -5  -3  101.12    2.35   0
   2   5   3  102.85    1.85   0
   3   5   3  860.77   11.00   0
  -3  -5  -3  854.34   14.34   0
   4   5   3   91.11    1.61   0
  -4  -5  -3   89.87    2.35   0
  -5  -5  -3   61.44    1.98   0
   5   5   3   58.47    1.24   0
  -6  -5  -3  495.59   10.38   0
   6   5   3  508.08    7.05   0
   7   5   3   27.32    1.11   0
  -7  -5  -3   28.68    1.61   0
   8   5   3   20.40    1.24   0
  -8  -5  -3   21.63    1.11   0
   9   5   3   11.87    1.85   0
  -9  -5  -3   19.04    1.11   0
 -10  -5  -3   -0.87    7.54   0
  10   5   3    3.21    2.23   0
  11   6  -3    5.56    2.97   0
 -11  -6   3    9.40    5.81   0
  10   6  -3  175.05    7.29   0
 -10  -6   3  173.93   11.74   0
   9   6  -3  265.41    5.07   0
  -9  -6   3  276.17    9.15   0
   8   6  -3   11.13    1.36   0
  -8  -6   3    6.18    3.09   0
  -7  -6   3  104.09    5.07   0
   7   6  -3  104.09    2.60   0
   6   6  -3  581.76    7.91   0
  -6  -6   3  556.66   19.90   0
   5   6  -3  301.88    5.19   0
  -5  -6   3  276.41    7.91   0
  -4  -6   3    2.84    1.98   0
   4   6  -3   -0.49    0.99   0
   3   6  -3  522.17    8.28   0
  -3  -6   3  512.78   10.26   0
   2   6  -3   65.39    1.73   0
  -2  -6   3   65.27    2.35   0
  -1  -6   3  447.26    7.91   0
   1   6  -3  441.45    7.17   0
   0  -6  -3  323.76    4.82   0
   0   6   3  316.71    5.44   0
  -1  -6  -3 1340.66   19.90   0
   1   6   3 1354.87   20.15   0
   2   6   3    3.83    0.87   0
  -2  -6  -3    2.47    0.87   0
   3   6   3  149.70    2.72   0
  -3  -6  -3  152.18    3.46   0
  -4  -6  -3  359.49    6.92   0
   4   6   3  368.14    4.82   0
  -5  -6  -3   13.97    1.36   0
   5   6   3   16.44    0.87   0
   6   6   3   26.08    1.24   0
  -6  -6  -3   25.34    1.73   0
   7   6   3  310.16    6.18   0
  -7  -6  -3  302.13    7.42   0
  -8  -6  -3  239.70   11.13   0
   8   6   3  257.99    5.44   0
   9   6   3    8.78    2.10   0
  -9  -6  -3    3.71    6.30   0
 -10  -6  -3  262.20   15.45   0
  10   6   3  276.66    8.53   0
  10   7  -3   55.01    4.70   0
 -10  -7   3   70.22    7.17   0
   9   7  -3    5.44    2.23   0
  -9  -7   3    2.72    4.20   0
  -8  -7   3    4.94    3.21   0
   8   7  -3    0.62    1.48   0
   7   7  -3  119.91    2.84   0
  -7  -7   3  111.13    4.94   0
  -6  -7   3   23.74    2.84   0
   6   7  -3   24.23    1.36   0
   5   7  -3  179.74    3.21   0
  -5  -7   3  149.33    7.91   0
   4   7  -3  199.52    3.58   0
  -4  -7   3  185.68    6.18   0
   3   7  -3    3.71    0.99   0
  -3  -7   3    5.32    1.61   0
  -2  -7   3    2.35    1.36   0
   2   7  -3    2.23    0.99   0
  -1  -7   3  404.48    7.29   0
   1   7  -3  396.94    6.68   0
   0  -7  -3  246.50    3.83   0
   0   7   3  238.83    4.45   0
  -1  -7  -3  169.98    3.09   0
   1   7   3  167.26    3.34   0
   2   7   3    5.32    1.11   0
  -2  -7  -3    3.09    0.99   0
  -3  -7  -3    0.87    1.11   0
   3   7   3    1.11    0.74   0
   4   7   3   17.55    0.87   0
  -4  -7  -3   17.80    1.48   0
  -5  -7  -3   13.97    1.61   0
   5   7   3   12.49    0.87   0
  -6  -7  -3    6.92    1.36   0
   6   7   3    8.90    1.24   0
   7   7   3   37.33    1.85   0
  -7  -7  -3   45.86    2.23   0
  -8  -7  -3   11.13    4.82   0
   8   7   3   -1.24    1.98   0
  -9  -7  -3   76.40    7.42   0
   9   7   3   93.46    5.44   0
   9   8  -3    3.96    2.47   0
  -9  -8   3    1.24    3.09   0
  -8  -8   3    1.61    3.34   0
   8   8  -3    2.35    2.10   0
   7   8  -3   32.14    2.60   0
  -7  -8   3   40.79    4.08   0
   6   8  -3   -1.73    1.48   0
  -6  -8   3    6.68    3.09   0
  -5  -8   3  271.47   12.11   0
   5   8  -3  312.02    7.29   0
   4   8  -3   29.30    1.24   0
  -4  -8   3   36.22    2.35   0
   3   8  -3  117.07    2.97   0
  -3  -8   3  109.77    3.58   0
  -2  -8   3   27.81    1.61   0
   2   8  -3   30.53    1.73   0
  -1  -8   3   22.38    1.61   0
   1   8  -3   24.35    1.61   0
   0  -8  -3    0.37    1.73   0
   0   8   3   -2.97    1.48   0
  -1  -8  -3  315.73    6.06   0
   1   8   3  320.92    7.54   0
   2   8   3  323.27    7.42   0
  -2  -8  -3  350.09    6.80   0
  -3  -8  -3   19.41    1.36   0
   3   8   3   22.99    1.48   0
  -4  -8  -3  146.74    3.96   0
   4   8   3  146.24    2.84   0
   5   8   3    0.74    1.36   0
  -5  -8  -3    0.37    1.48   0
   6   8   3   20.52    1.98   0
  -6  -8  -3   27.20    1.98   0
   7   8   3  196.18    5.93   0
  -7  -8  -3  201.87   12.36   0
  -8  -8  -3  190.50   11.25   0
   8   8   3  197.05    8.04   0
  -8  -9   3    1.85    3.34   0
   8   9  -3    4.94    2.23   0
   7   9  -3   64.65    3.83   0
  -7  -9   3   66.14    4.94   0
   6   9  -3  120.28    5.81   0
  -6  -9   3  117.81    5.19   0
  -5  -9   3  101.62    4.94   0
   5   9  -3   95.56    5.44   0
   4   9  -3  256.02    8.16   0
  -4  -9   3  255.28   11.62   0
  -3  -9   3  529.59   13.97   0
   3   9  -3  538.74   12.49   0
  -2  -9   3   94.82    2.72   0
   2   9  -3  102.36    3.46   0
  -1  -9   3   76.03    2.60   0
   1   9  -3   71.95    2.97   0
   0  -9  -3  808.23   14.46   0
   0   9   3  798.34   16.32   0
  -1  -9  -3  136.35    3.21   0
   1   9   3  140.31    4.20   0
  -2  -9  -3  103.72    2.72   0
   2   9   3  107.92    3.83   0
   3   9   3   86.29    4.20   0
  -3  -9  -3   88.51    2.72   0
   4   9   3   33.75    2.72   0
  -4  -9  -3   34.61    2.35   0
  -5  -9  -3  161.32    5.69   0
   5   9   3  173.32    5.07   0
  -6  -9  -3  143.03    5.81   0
   6   9   3  140.31    5.07   0
  -7  -9  -3   -1.11    6.18   0
   7   9   3    2.23    2.47   0
  -7 -10   3   34.12    5.19   0
   7  10  -3   31.89    2.60   0
   6  10  -3   69.60    4.70   0
  -6 -10   3   77.51    5.32   0
   5  10  -3   11.99    3.21   0
  -5 -10   3    9.27    2.97   0
   4  10  -3  141.30    5.69   0
  -4 -10   3  137.84    5.56   0
   3  10  -3   75.28    4.94   0
  -3 -10   3   67.62    3.83   0
  -2 -10   3   25.34    1.98   0
   2  10  -3   35.23    3.58   0
  -1 -10   3    7.79    1.48   0
   1  10  -3    6.80    2.23   0
   0  10   3   11.37    2.35   0
   0 -10  -3   11.62    2.47   0
  -1 -10  -3   60.94    3.96   0
   1  10   3   73.80    3.21   0
  -2 -10  -3   97.78    3.83   0
   2  10   3   92.47    5.07   0
   3  10   3   52.91    4.57   0
  -3 -10  -3   61.69    3.21   0
  -4 -10  -3    5.81    1.98   0
   4  10   3    8.41    2.23   0
   5  10   3   55.26    3.83   0
  -5 -10  -3   75.28    3.96   0
   6  10   3    6.55    2.72   0
  -6 -10  -3   10.01    2.10   0
   6  11  -3   43.39    3.46   0
  -6 -11   3   53.53    4.82   0
   5  11  -3   14.34    3.96   0
  -5 -11   3    8.28    3.46   0
  -4 -11   3  171.09    7.29   0
   4  11  -3  177.39    7.79   0
   3  11  -3  100.01    6.06   0
  -3 -11   3   81.34    7.29   0
  -2 -11   3   19.04    5.44   0
   2  11  -3   18.42    3.96   0
  -1 -11   3   52.79    5.32   0
   1  11  -3   44.26    3.83   0
   0 -11  -3   69.10    6.80   0
   0  11   3   66.01    8.78   0
   1  11   3   43.27    3.83   0
  -1 -11  -3   64.53    6.43   0
  -2 -11  -3   49.45    5.56   0
   2  11   3   61.44    4.57   0
   3  11   3   74.79    5.07   0
  -3 -11  -3   68.61    5.69   0
   4  11   3    1.24    2.97   0
  -4 -11  -3    0.00    3.21   0
  -5 -11  -3   24.72    3.71   0
   5  11   3   18.42    2.60   0
  -3 -12   3   33.38    5.81   0
   3  12  -3   27.81    5.07   0
  -2 -12   3   67.74    6.55   0
   2  12  -3   60.45    7.42   0
   1  12  -3   70.34    8.16   0
  -1 -12   3   69.35    6.55   0
   0  12   3   36.72    6.43   0
   0 -12  -3   40.67    6.30   0
   1  12   3   68.73   10.26   0
  -1 -12  -3   84.68    7.54   0
  -2 -12  -3    8.78    3.71   0
   2  12   3   15.70    6.18   0
  12   0  -4  508.20   13.72   0
  11   0  -4    1.61    1.61   0
  10   0  -4   63.42    2.10   0
   9   0  -4   76.40    1.98   0
   8   0  -4   86.41    1.48   0
   7   0  -4  248.35    3.21   0
   6   0  -4   29.67    0.74   0
   5   0  -4  109.90    1.61   0
   4   0  -4 1158.81   13.23   0
   3   0  -4  324.38    4.08   0
   2   0  -4 2791.96   38.82   0
   1   0  -4 3736.78   58.10   0
   0   0   4  198.66    2.97   0
   2   0   4   -0.12    0.37   0
   3   0   4 1466.63   16.69   0
   4   0   4 3167.39   38.07   0
   5   0   4  513.15    6.80   0
   6   0   4 1033.83   12.24   0
   7   0   4 1461.81   20.15   0
   8   0   4   -0.25    0.74   0
   9   0   4  592.88   11.50   0
  10   0   4   87.77    3.58   0
  11   0   4   91.36    3.96   0
  12   1  -4    1.85    1.73   0
 -12  -1   4    0.87    1.48   0
 -11  -1   4   48.58    2.35   0
  11   1  -4   56.87    2.84   0
 -10  -1   4   42.03    1.61   0
  10   1  -4   43.02    1.73   0
  -9  -1   4  221.90    4.57   0
   9   1  -4  219.43    3.71   0
   8   1  -4  154.40    2.47   0
  -8  -1   4  158.85    2.60   0
  -7  -1   4   61.56    1.36   0
   7   1  -4   59.83    1.11   0
  -6  -1   4  169.48    2.97   0
   6   1  -4  172.57    2.35   0
  -5  -1   4    7.79    0.49   0
   5   1  -4    7.66    0.49   0
  -4  -1   4    9.52    0.49   0
   4   1  -4   10.63    0.49   0
   3   1  -4 1347.21   16.07   0
  -3  -1   4 1339.18   16.19   0
   2   1  -4  900.57   11.99   0
  -2  -1   4  894.02   12.98   0
  -1  -1   4 1750.83   24.72   0
   1   1  -4 1767.39   25.34   0
   0  -1  -4  236.11    3.09   0
   0   1   4  233.15    3.21   0
  -1  -1  -4  856.56   10.51   0
   1   1   4  866.58   10.63   0
  -2  -1  -4 1988.55   23.98   0
   2   1   4 2032.07   22.75   0
  -3  -1  -4  387.05    5.07   0
   3   1   4  392.49    4.82   0
   4   1   4   44.75    0.87   0
  -4  -1  -4   46.36    0.99   0
   5   1   4  757.42    8.65   0
  -5  -1  -4  748.77    9.64   0
  -6  -1  -4  391.38    5.93   0
   6   1   4  395.83    5.19   0
  -7  -1  -4   19.41    0.99   0
   7   1   4   20.15    1.11   0
  -8  -1  -4   77.26    2.35   0
   8   1   4   80.85    2.60   0
   9   1   4   14.83    1.48   0
  -9  -1  -4   12.24    1.36   0
  10   1   4   13.23    2.10   0
 -10  -1  -4   12.49    1.73   0
  11   1   4    1.73    2.10   0
 -11  -1  -4    0.25    2.35   0
 -12  -2   4  187.16    7.91   0
  12   2  -4  184.19    6.06   0
  11   2  -4    2.23    2.10   0
 -11  -2   4    3.46    0.74   0
  10   2  -4  210.40    4.70   0
 -10  -2   4  225.61    4.57   0
   9   2  -4   39.56    1.73   0
  -9  -2   4   42.15    1.24   0
  -8  -2   4  582.87    8.28   0
   8   2  -4  575.95    8.28   0
   7   2  -4  200.26    2.97   0
  -7  -2   4  200.02    3.46   0
  -6  -2   4    5.93    0.37   0
   6   2  -4    5.44    0.62   0
  -5  -2   4    5.32    0.37   0
   5   2  -4    3.71    0.37   0
  -4  -2   4  123.87    1.98   0
   4   2  -4  121.77    1.85   0
   3   2  -4  506.47    6.80   0
  -3  -2   4  511.04    8.53   0
   2   2  -4  819.23   10.75   0
  -2  -2   4  827.51   13.47   0
   1   2  -4  654.32    8.90   0
  -1  -2   4  654.69    9.52   0
   0   2   4 5433.35   68.61   0
   0  -2  -4 5330.99   73.68   0
  -1  -2  -4  171.71    2.84   0
   1   2   4  170.72    2.35   0
  -2  -2  -4   -0.25    0.49   0
   2   2   4    0.37    0.37   0
  -3  -2  -4   56.00    1.24   0
   3   2   4   56.62    0.99   0
  -4  -2  -4  462.96    6.55   0
   4   2   4  469.51    5.32   0
   5   2   4   10.38    0.62   0
  -5  -2  -4    9.40    0.74   0
  -6  -2  -4 1647.11   22.50   0
   6   2   4 1682.59   18.42   0
   7   2   4  236.98    3.96   0
  -7  -2  -4  228.08    4.08   0
   8   2   4  139.94    3.09   0
  -8  -2  -4  148.47    3.46   0
  -9  -2  -4  245.51    6.06   0
   9   2   4  250.82    5.69   0
  10   2   4   76.40    3.58   0
 -10  -2  -4   78.50    3.21   0
  11   2   4   86.29    3.83   0
 -11  -2  -4   84.06    3.58   0
 -12  -3   4   18.67    3.58   0
  12   3  -4   14.71    2.97   0
  11   3  -4   98.03    4.08   0
 -11  -3   4   99.02    5.32   0
  10   3  -4    3.96    1.98   0
 -10  -3   4    3.71    1.98   0
  -9  -3   4   24.85    2.10   0
   9   3  -4   20.27    1.36   0
   8   3  -4  287.66    4.20   0
  -8  -3   4  278.27    6.55   0
  -7  -3   4  885.86   17.18   0
   7   3  -4  909.60   11.50   0
  -6  -3   4  210.65    4.82   0
   6   3  -4  206.69    3.09   0
  -5  -3   4   15.70    1.24   0
   5   3  -4   17.43    0.74   0
  -4  -3   4   24.11    0.62   0
   4   3  -4   23.74    0.62   0
   3   3  -4  411.53    5.32   0
  -3  -3   4  410.91   10.01   0
  -2  -3   4  160.09    3.58   0
   2   3  -4  162.31    2.10   0
   1   3  -4  311.40    4.08   0
  -1  -3   4  312.76    4.57   0
   0  -3  -4 1096.01   15.95   0
   0   3   4 1086.13   14.46   0
   1   3   4  633.31    7.91   0
  -1  -3  -4  641.34    9.52   0
  -2  -3  -4 1353.39   25.47   0
   2   3   4 1378.73   15.70   0
  -3  -3  -4  351.08    6.18   0
   3   3   4  362.58    4.20   0
  -4  -3  -4  436.38    7.66   0
   4   3   4  441.94    5.19   0
   5   3   4  940.01   11.00   0
  -5  -3  -4  928.63   15.70   0
  -6  -3  -4  884.62   13.85   0
   6   3   4  901.93   10.75   0
   7   3   4  239.08    3.96   0
  -7  -3  -4  226.60    5.81   0
   8   3   4  271.35    5.07   0
  -8  -3  -4  282.22    6.68   0
  -9  -3  -4    0.49    1.61   0
   9   3   4   -0.12    1.36   0
  10   3   4   22.62    2.72   0
 -10  -3  -4   23.12    2.35   0
 -11  -3  -4   98.90    4.82   0
  11   3   4   94.07    4.08   0
 -12  -4   4   13.10    5.44   0
  12   4  -4   10.63    2.72   0
 -11  -4   4    5.56    2.72   0
  11   4  -4    6.18    1.98   0
 -10  -4   4   74.42    3.34   0
  10   4  -4   71.45    3.34   0
  -9  -4   4   72.44    3.21   0
   9   4  -4   78.62    1.85   0
  -8  -4   4    0.87    2.23   0
   8   4  -4    0.74    0.99   0
  -7  -4   4    6.06    3.09   0
   7   4  -4    2.10    0.62   0
   6   4  -4  291.99    4.08   0
  -6  -4   4  286.92    7.91   0
  -5  -4   4  290.63    7.91   0
   5   4  -4  293.84    4.08   0
   4   4  -4   69.10    1.11   0
  -4  -4   4   69.10    1.98   0
   3   4  -4  651.60    7.66   0
  -3  -4   4  643.32   15.33   0
  -2  -4   4 1607.31   29.55   0
   2   4  -4 1610.27   21.14   0
   1   4  -4  331.18    4.70   0
  -1  -4   4  330.81    5.19   0
   0   4   4   46.11    1.11   0
   0  -4  -4   45.86    1.24   0
   1   4   4  131.90    2.10   0
  -1  -4  -4  128.56    3.21   0
   2   4   4  123.62    1.85   0
  -2  -4  -4  123.62    2.72   0
  -3  -4  -4   64.90    1.73   0
   3   4   4   64.28    1.24   0
   4   4   4  172.45    2.60   0
  -4  -4  -4  173.19    3.71   0
  -5  -4  -4  157.86    4.45   0
   5   4   4  151.19    2.35   0
  -6  -4  -4    2.72    1.48   0
   6   4   4    2.72    0.74   0
   7   4   4   27.57    0.99   0
  -7  -4  -4   29.05    1.85   0
  -8  -4  -4  277.77    8.16   0
   8   4   4  260.84    5.07   0
   9   4   4   48.09    2.60   0
  -9  -4  -4   55.38    2.84   0
  10   4   4   19.28    2.23   0
 -10  -4  -4   20.03    1.85   0
 -11  -5   4  186.91   12.86   0
  11   5  -4  193.22    6.55   0
 -10  -5   4    5.69    2.84   0
  10   5  -4    1.61    1.73   0
   9   5  -4   17.55    1.24   0
  -9  -5   4   18.17    3.09   0
  -8  -5   4  566.55   15.33   0
   8   5  -4  590.41    8.78   0
  -7  -5   4  848.28   29.17   0
   7   5  -4  896.99   11.62   0
   6   5  -4   17.68    0.99   0
  -6  -5   4   22.62    3.09   0
   5   5  -4  879.19   11.87   0
  -5  -5   4  856.44   20.15   0
  -4  -5   4  811.69   15.45   0
   4   5  -4  811.44    9.64   0
  -3  -5   4    7.05    1.11   0
   3   5  -4    4.08    0.49   0
  -2  -5   4  228.08    5.19   0
   2   5  -4  224.00    3.96   0
   1   5  -4  414.62    6.55   0
  -1  -5   4  425.13    7.66   0
   0  -5  -4  915.16   15.21   0
   0   5   4  912.69   13.72   0
   1   5   4   23.24    0.99   0
  -1  -5  -4   22.75    1.11   0
   2   5   4  244.15    3.83   0
  -2  -5  -4  247.36    4.70   0
   3   5   4   24.11    0.87   0
  -3  -5  -4   24.11    1.24   0
  -4  -5  -4  682.51   11.87   0
   4   5   4  693.14    8.53   0
  -5  -5  -4  306.95    6.30   0
   5   5   4  315.73    4.20   0
  -6  -5  -4  826.52   16.81   0
   6   5   4  834.56   10.26   0
  -7  -5  -4   65.27    2.60   0
   7   5   4   66.63    1.73   0
  -8  -5  -4  130.91    4.82   0
   8   5   4  127.08    3.21   0
  -9  -5  -4    3.46    1.11   0
   9   5   4   -0.12    2.47   0
 -10  -5  -4   54.89    6.80   0
  10   5   4   59.58    3.09   0
 -11  -6   4    8.04    5.56   0
  11   6  -4   10.51    2.72   0
 -10  -6   4   12.11    3.34   0
  10   6  -4   16.19    2.72   0
  -9  -6   4   26.58    3.34   0
   9   6  -4   20.77    1.48   0
   8   6  -4   42.40    1.85   0
  -8  -6   4   43.51    3.71   0
  -7  -6   4   37.21    4.08   0
   7   6  -4   38.94    1.61   0
  -6  -6   4   17.43    3.58   0
   6   6  -4   10.63    0.99   0
  -5  -6   4    8.41    2.60   0
   5   6  -4    2.84    0.62   0
   4   6  -4  165.65    2.84   0
  -4  -6   4  148.71    4.94   0
  -3  -6   4  546.65   11.00   0
   3   6  -4  558.39    7.42   0
  -2  -6   4  837.65   16.07   0
   2   6  -4  849.39   12.86   0
  -1  -6   4   73.92    2.10   0
   1   6  -4   74.17    1.85   0
   0   6   4   65.02    1.85   0
   0  -6  -4   68.49    1.73   0
   1   6   4  124.73    2.60   0
  -1  -6  -4  126.83    2.84   0
   2   6   4  177.15    3.09   0
  -2  -6  -4  173.44    3.71   0
  -3  -6  -4  132.40    3.09   0
   3   6   4  131.04    2.23   0
  -4  -6  -4   36.22    1.61   0
   4   6   4   39.56    1.11   0
  -5  -6  -4   18.91    1.61   0
   5   6   4   20.03    0.99   0
  -6  -6  -4  104.34    3.34   0
   6   6   4  105.82    2.35   0
   7   6   4    8.53    1.24   0
  -7  -6  -4    8.04    1.48   0
  -8  -6  -4   47.35    2.60   0
   8   6   4   48.71    2.47   0
  -9  -6  -4   -4.45    4.45   0
   9   6   4    0.12    1.85   0
 -10  -6  -4    8.78    5.44   0
  10   6   4    3.34    1.98   0
  10   7  -4   -1.24    2.35   0
 -10  -7   4   -8.78    2.60   0
   9   7  -4   70.83    3.58   0
  -9  -7   4   73.06    4.82   0
  -8  -7   4   58.10    4.20   0
   8   7  -4   49.08    2.97   0
   7   7  -4  118.68    3.46   0
  -7  -7   4  128.94    5.56   0
  -6  -7   4   26.33    5.19   0
   6   7  -4   21.26    0.99   0
   5   7  -4 1132.98   16.94   0
  -5  -7   4 1028.77   34.98   0
  -4  -7   4  792.03   19.78   0
   4   7  -4  850.38   12.86   0
  -3  -7   4  796.73   15.82   0
   3   7  -4  789.81   12.24   0
  -2  -7   4    2.84    1.36   0
   2   7  -4    0.25    1.11   0
  -1  -7   4  796.98   13.35   0
   1   7  -4  793.76   12.49   0
   0  -7  -4  586.82    9.15   0
   0   7   4  578.17    9.40   0
  -1  -7  -4  550.23   10.01   0
   1   7   4  540.96    8.78   0
   2   7   4  625.89   11.13   0
  -2  -7  -4  612.17   11.13   0
  -3  -7  -4   23.24    1.48   0
   3   7   4   22.99    1.11   0
   4   7   4    3.21    0.87   0
  -4  -7  -4    2.10    1.24   0
  -5  -7  -4  664.70   13.72   0
   5   7   4  694.00   10.14   0
  -6  -7  -4   66.38    2.60   0
   6   7   4   66.88    2.10   0
   7   7   4   67.74    2.47   0
  -7  -7  -4   76.27    3.46   0
  -8  -7  -4  482.24   24.35   0
   8   7   4  501.16   13.47   0
   9   7   4   10.38    2.60   0
  -9  -7  -4    5.69    7.17   0
  -9  -8   4   15.08    4.08   0
   9   8  -4   15.70    3.21   0
   8   8  -4    6.55    2.10   0
  -8  -8   4    5.44    3.09   0
   7   8  -4   67.62    3.21   0
  -7  -8   4   62.92    4.33   0
   6   8  -4    2.10    1.98   0
  -6  -8   4    5.07    4.82   0
   5   8  -4   12.36    1.73   0
  -5  -8   4   17.06    3.96   0
   4   8  -4  268.01    4.82   0
  -4  -8   4  270.73    8.16   0
  -3  -8   4  943.71   18.67   0
   3   8  -4  932.96   16.07   0
  -2  -8   4  231.05    4.82   0
   2   8  -4  222.52    4.70   0
  -1  -8   4   62.43    2.10   0
   1   8  -4   61.56    2.35   0
   0  -8  -4    4.45    1.36   0
   0   8   4    4.08    1.48   0
  -1  -8  -4  642.21   11.25   0
   1   8   4  646.29   13.47   0
  -2  -8  -4   24.97    1.61   0
   2   8   4   29.67    2.10   0
  -3  -8  -4   15.33    1.61   0
   3   8   4   10.75    1.48   0
  -4  -8  -4    3.83    1.61   0
   4   8   4    2.23    1.24   0
  -5  -8  -4  116.20    3.71   0
   5   8   4  116.94    3.21   0
  -6  -8  -4   71.33    3.21   0
   6   8   4   70.46    3.34   0
   7   8   4   23.24    2.35   0
  -7  -8  -4   26.33    2.10   0
  -8  -8  -4   30.16    7.29   0
   8   8   4   24.97    3.83   0
   8   9  -4   40.92    3.83   0
  -8  -9   4   44.75    4.70   0
  -7  -9   4    4.20    3.71   0
   7   9  -4    1.73    2.35   0
  -6  -9   4   15.70    3.46   0
   6   9  -4    6.43    3.46   0
   5   9  -4  184.07    6.68   0
  -5  -9   4  177.02    9.40   0
   4   9  -4  235.50    7.91   0
  -4  -9   4  254.16    7.54   0
   3   9  -4   94.20    4.82   0
  -3  -9   4   93.58    3.34   0
  -2  -9   4   32.02    1.98   0
   2   9  -4   40.30    2.60   0
  -1  -9   4    4.94    1.48   0
   1   9  -4    3.58    1.85   0
   0  -9  -4  192.23    5.32   0
   0   9   4  191.36    5.32   0
  -1  -9  -4  199.52    4.08   0
   1   9   4  192.48    5.07   0
  -2  -9  -4  306.95    6.43   0
   2   9   4  307.32    7.66   0
   3   9   4   59.09    3.83   0
  -3  -9  -4   69.35    2.47   0
   4   9   4    1.98    1.73   0
  -4  -9  -4    3.71    1.85   0
  -5  -9  -4   14.71    1.85   0
   5   9   4   15.82    2.35   0
  -6  -9  -4   18.67    2.23   0
   6   9   4   17.43    2.35   0
  -7  -9  -4   23.24    4.70   0
   7   9   4   28.19    2.97   0
  -7 -10   4   38.69    4.08   0
   7  10  -4   38.57    3.58   0
   6  10  -4   44.26    4.57   0
  -6 -10   4   53.03    4.57   0
  -5 -10   4   34.37    3.96   0
   5  10  -4   45.00    5.19   0
  -4 -10   4   13.85    4.33   0
   4  10  -4   18.79    3.34   0
  -3 -10   4  189.51    9.40   0
   3  10  -4  210.40    7.29   0
  -2 -10   4   14.59    3.96   0
   2  10  -4   12.73    2.97   0
  -1 -10   4   10.75    4.94   0
   1  10  -4   -0.25    2.47   0
   0 -10  -4  393.61   11.62   0
   0  10   4  440.83   10.14   0
   1  10   4  362.08    8.53   0
  -1 -10  -4  385.69   15.95   0
  -2 -10  -4   33.87    2.35   0
   2  10   4   34.61    3.58   0
   3  10   4  111.38    5.44   0
  -3 -10  -4  119.17    4.70   0
   4  10   4  109.16    4.33   0
  -4 -10  -4  121.15    5.32   0
  -5 -10  -4   14.22    2.84   0
   5  10   4   13.35    2.47   0
  -6 -10  -4  367.89   12.73   0
   6  10   4  359.36   10.38   0
   5  11  -4   21.88    4.08   0
  -5 -11   4   16.69    3.21   0
   4  11  -4   50.81    4.94   0
  -4 -11   4   61.69    4.20   0
  -3 -11   4   14.96    2.97   0
   3  11  -4   11.74    3.09   0
  -2 -11   4   -3.83    3.71   0
   2  11  -4   -5.19    2.47   0
   1  11  -4   61.56    5.19   0
  -1 -11   4   59.96    6.92   0
   0 -11  -4   18.30    3.83   0
   0  11   4   22.13    5.56   0
   1  11   4    3.58    3.83   0
  -1 -11  -4    5.19    3.34   0
  -2 -11  -4    5.19    3.21   0
   2  11   4   14.96    3.83   0
  -3 -11  -4   56.00    5.81   0
   3  11   4   48.71    4.20   0
  -4 -11  -4    3.83    3.83   0
   4  11   4    1.24    2.10   0
  -3 -12   4   60.33    7.79   0
   3  12  -4   44.38    5.69   0
  -2 -12   4    4.94    4.57   0
   2  12  -4   -0.87    8.53   0
  -1 -12   4   50.93    6.80   0
   1  12  -4   61.19    9.64   0
   0 -12  -4  197.54   11.00   0
   0  12   4  206.69   14.83   0
  -1 -12  -4   54.27    5.81   0
   1  12   4   44.01    7.05   0
  12   1  -5  269.99    7.79   0
 -12  -1   5  285.19    8.28   0
  11   1  -5  263.31    6.30   0
 -11  -1   5  273.94    6.30   0
  10   1  -5   95.19    2.72   0
 -10  -1   5  101.49    3.09   0
   9   1  -5   30.78    1.24   0
  -9  -1   5   30.90    1.24   0
  -8  -1   5 2175.34   28.93   0
   8   1  -5 2146.41   26.45   0
  -7  -1   5  572.61    7.91   0
   7   1  -5  577.06    7.42   0
   6   1  -5  721.94    9.02   0
  -6  -1   5  724.29    9.89   0
  -5  -1   5  313.62    4.08   0
   5   1  -5  309.30    4.20   0
  -4  -1   5 1670.11   20.40   0
   4   1  -5 1649.21   20.15   0
   3   1  -5   33.75    0.87   0
  -3  -1   5   33.62    0.87   0
  -2  -1   5 9999.99  217.08   0
   2   1  -5 9487.09  170.22   0
   1   1  -5  517.35    7.17   0
  -1  -1   5  523.65    7.05   0
   0  -1  -5 2816.93   36.47   0
   0   1   5 2819.52   36.34   0
   1   1   5 1726.35   21.02   0
  -1  -1  -5 1704.60   20.40   0
  -2  -1  -5  817.50   10.14   0
   2   1   5  815.77    9.40   0
  -3  -1  -5  310.16    4.08   0
   3   1   5  307.20    3.83   0
  -4  -1  -5 1330.65   16.69   0
   4   1   5 1350.05   15.58   0
   5   1   5  933.33   10.51   0
  -5  -1  -5  924.18   11.74   0
  -6  -1  -5  178.26    2.84   0
   6   1   5  182.83    2.72   0
  -7  -1  -5  875.23   15.58   0
   7   1   5  889.20   13.85   0
   8   1   5  146.12    3.58   0
  -8  -1  -5  147.11    3.46   0
  -9  -1  -5   -0.74    3.09   0
   9   1   5    3.09    1.61   0
  10   1   5   16.69    2.35   0
 -10  -1  -5   12.11    1.73   0
  11   1   5  265.29    8.04   0
 -11  -1  -5  278.39    8.41   0
  12   2  -5   16.19    2.84   0
 -12  -2   5   17.92    3.21   0
 -11  -2   5  155.14    6.06   0
  11   2  -5  175.66    4.94   0
 -10  -2   5   55.01    1.48   0
  10   2  -5   51.55    2.35   0
  -9  -2   5  149.33    2.97   0
   9   2  -5  146.86    3.09   0
  -8  -2   5  115.34    2.23   0
   8   2  -5  110.89    2.10   0
  -7  -2   5   14.96    0.62   0
   7   2  -5   15.08    0.87   0
  -6  -2   5  560.12    8.28   0
   6   2  -5  553.45    6.92   0
  -5  -2   5 1584.56   20.64   0
   5   2  -5 1577.89   19.16   0
  -4  -2   5   42.28    0.99   0
   4   2  -5   40.05    0.87   0
  -3  -2   5  305.22    4.33   0
   3   2  -5  302.99    4.33   0
  -2  -2   5   15.45    0.62   0
   2   2  -5   14.59    0.49   0
  -1  -2   5   51.30    1.24   0
   1   2  -5   55.51    0.99   0
   0  -2  -5    0.12    0.62   0
   0   2   5   -0.99    0.49   0
  -1  -2  -5  760.63   11.13   0
   1   2   5  763.11    9.40   0
   2   2   5  943.96   10.88   0
  -2  -2  -5  930.73   12.61   0
  -3  -2  -5 1661.08   22.13   0
   3   2   5 1681.73   20.40   0
   4   2   5  664.58    7.54   0
  -4  -2  -5  658.40    9.02   0
  -5  -2  -5  881.16   12.11   0
   5   2   5  893.15    9.89   0
   6   2   5    9.15    0.62   0
  -6  -2  -5    6.43    0.87   0
   7   2   5  254.04    4.08   0
  -7  -2  -5  241.06    5.93   0
  -8  -2  -5   12.49    1.24   0
   8   2   5   13.10    1.61   0
  -9  -2  -5   99.88    3.46   0
   9   2   5   99.88    3.34   0
 -10  -2  -5   -1.73    2.60   0
  10   2   5   -1.98    1.48   0
  11   2   5   51.06    3.34   0
 -11  -2  -5   58.84    3.71   0
 -12  -3   5   65.64    4.70   0
  12   3  -5   61.19    3.21   0
  11   3  -5   81.09    3.71   0
 -11  -3   5   76.03    4.33   0
 -10  -3   5  156.87    4.94   0
  10   3  -5  155.02    4.08   0
  -9  -3   5  158.60    4.45   0
   9   3  -5  163.67    2.97   0
  -8  -3   5  473.71   11.99   0
   8   3  -5  468.89    6.43   0
  -7  -3   5  229.69    5.32   0
   7   3  -5  230.06    3.46   0
  -6  -3   5  878.81   17.55   0
   6   3  -5  868.92   11.25   0
  -5  -3   5   61.81    2.10   0
   5   3  -5   62.18    1.36   0
   4   3  -5  540.22    7.42   0
  -4  -3   5  549.49    9.40   0
  -3  -3   5 1528.31   28.43   0
   3   3  -5 1542.16   20.03   0
  -2  -3   5 5826.21  104.58   0
   2   3  -5 5863.54   74.54   0
  -1  -3   5   32.39    0.99   0
   1   3  -5   32.39    0.87   0
   0  -3  -5   92.84    1.73   0
   0   3   5   92.59    1.48   0
   1   3   5  176.65    2.47   0
  -1  -3  -5  174.06    2.97   0
   2   3   5  214.73    2.84   0
  -2  -3  -5  213.12    3.58   0
   3   3   5   16.19    0.62   0
  -3  -3  -5   14.83    1.11   0
  -4  -3  -5  337.61    6.30   0
   4   3   5  328.33    4.08   0
  -5  -3  -5   23.74    1.11   0
   5   3   5   25.71    0.87   0
   6   3   5   18.54    0.87   0
  -6  -3  -5   14.83    1.36   0
  -7  -3  -5  148.71    4.94   0
   7   3   5  159.35    2.60   0
   8   3   5    5.69    1.48   0
  -8  -3  -5    3.96    1.24   0
   9   3   5   11.37    1.85   0
  -9  -3  -5    8.41    1.61   0
  10   3   5    3.21    1.98   0
 -10  -3  -5   -0.74    3.21   0
  12   4  -5   12.98    2.35   0
 -12  -4   5   14.46    3.21   0
 -11  -4   5  326.23   11.62   0
  11   4  -5  316.10    9.40   0
  10   4  -5  274.56    6.68   0
 -10  -4   5  279.75    7.29   0
  -9  -4   5  497.20   11.25   0
   9   4  -5  502.89    7.66   0
   8   4  -5   11.99    0.99   0
  -8  -4   5   10.63    2.35   0
   7   4  -5 1048.05   13.23   0
  -7  -4   5 1017.52   24.23   0
  -6  -4   5  200.26    5.93   0
   6   4  -5  202.86    3.09   0
  -5  -4   5   37.33    2.47   0
   5   4  -5   38.20    1.24   0
   4   4  -5 1806.09   21.88   0
  -4  -4   5 1821.29   33.62   0
  -3  -4   5   19.53    1.11   0
   3   4  -5   20.15    0.62   0
  -2  -4   5    0.25    1.48   0
   2   4  -5   -0.37    0.62   0
  -1  -4   5 1291.21   21.02   0
   1   4  -5 1303.82   15.95   0
   0  -4  -5  108.17    2.23   0
   0   4   5  108.04    1.73   0
   1   4   5 7998.83   94.07   0
  -1  -4  -5 7786.08  138.21   0
  -2  -4  -5  927.03   15.33   0
   2   4   5  932.09   10.51   0
  -3  -4  -5 1879.02   31.15   0
   3   4   5 1913.88   20.89   0
  -4  -4  -5   40.55    1.85   0
   4   4   5   41.54    0.99   0
   5   4   5  851.37   10.26   0
  -5  -4  -5  851.12   14.71   0
  -6  -4  -5   36.72    1.85   0
   6   4   5   32.39    1.11   0
  -7  -4  -5   86.04    3.34   0
   7   4   5   86.16    1.85   0
  -8  -4  -5  191.36    6.18   0
   8   4   5  173.93    4.94   0
  -9  -4  -5  129.55    4.94   0
   9   4   5  127.70    3.96   0
 -10  -4  -5    2.97    1.85   0
  10   4   5    2.84    2.10   0
 -11  -5   5    2.10    5.32   0
  11   5  -5    2.72    2.84   0
  10   5  -5    0.49    2.60   0
 -10  -5   5   -8.53    3.34   0
   9   5  -5   42.53    1.98   0
  -9  -5   5   36.22    3.58   0
  -8  -5   5  243.65   10.38   0
   8   5  -5  271.47    4.57   0
  -7  -5   5  117.56    6.80   0
   7   5  -5  122.75    2.35   0
  -6  -5   5    3.58    2.84   0
   6   5  -5   10.75    0.99   0
  -5  -5   5    0.87    2.10   0
   5   5  -5    0.25    0.87   0
   4   5  -5   34.86    0.74   0
  -4  -5   5   30.66    1.61   0
  -3  -5   5    1.98    1.11   0
   3   5  -5    2.84    0.49   0
  -2  -5   5  771.76   14.83   0
   2   5  -5  766.69   10.51   0
   1   5  -5  350.09    5.69   0
  -1  -5   5  345.77    6.18   0
   0  -5  -5  196.56    3.83   0
   0   5   5  194.70    3.21   0
  -1  -5  -5   49.57    1.61   0
   1   5   5   46.11    1.24   0
  -2  -5  -5   30.41    1.24   0
   2   5   5   31.65    0.99   0
  -3  -5  -5    1.98    0.99   0
   3   5   5    4.20    0.74   0
  -4  -5  -5   13.47    1.24   0
   4   5   5   11.74    0.74   0
   5   5   5  303.98    4.20   0
  -5  -5  -5  311.77    7.05   0
  -6  -5  -5  146.74    4.20   0
   6   5   5  142.41    2.72   0
   7   5   5   49.08    1.48   0
  -7  -5  -5   48.46    2.72   0
  -8  -5  -5   12.11    1.85   0
   8   5   5   13.47    1.85   0
  -9  -5  -5   10.75    1.85   0
   9   5   5    5.32    2.23   0
 -10  -5  -5   11.00    7.54   0
  10   5   5    0.37    2.97   0
  11   6  -5   74.05    5.07   0
 -11  -6   5   78.87    9.89   0
  10   6  -5   97.66    5.19   0
 -10  -6   5  100.01    6.43   0
   9   6  -5  267.27    5.93   0
  -9  -6   5  276.41    9.27   0
  -8  -6   5  101.37    4.94   0
   8   6  -5  111.13    2.72   0
   7   6  -5  354.29    5.56   0
  -7  -6   5  327.72   13.10   0
  -6  -6   5  324.75   12.86   0
   6   6  -5  345.27    5.32   0
   5   6  -5   42.90    0.87   0
  -5  -6   5   37.95    3.96   0
  -4  -6   5  735.79   18.05   0
   4   6  -5  772.87   10.01   0
  -3  -6   5  284.82    6.43   0
   3   6  -5  283.09    4.45   0
  -2  -6   5  143.77    3.46   0
   2   6  -5  150.69    2.97   0
  -1  -6   5  761.62   13.10   0
   1   6  -5  726.51   11.13   0
   0  -6  -5  158.36    3.34   0
   0   6   5  160.34    3.09   0
   1   6   5  149.46    2.84   0
  -1  -6  -5  149.33    3.21   0
  -2  -6  -5  268.13    5.19   0
   2   6   5  267.76    4.33   0
  -3  -6  -5  198.29    4.20   0
   3   6   5  201.62    3.09   0
  -4  -6  -5   54.64    1.98   0
   4   6   5   55.01    1.36   0
  -5  -6  -5 1125.93   22.38   0
   5   6   5 1104.79   14.46   0
   6   6   5   86.16    2.10   0
  -6  -6  -5   90.61    3.09   0
   7   6   5    6.55    1.24   0
  -7  -6  -5    8.41    1.73   0
   8   6   5  232.16    5.69   0
  -8  -6  -5  253.42    7.54   0
  -9  -6  -5  146.37   10.14   0
   9   6   5  141.79    4.94   0
 -10  -7   5    1.98    3.46   0
  10   7  -5    2.47    2.60   0
  -9  -7   5    2.23    3.46   0
   9   7  -5    1.73    2.10   0
  -8  -7   5   46.36    4.08   0
   8   7  -5   49.45    2.72   0
   7   7  -5    1.85    1.48   0
  -7  -7   5    2.10    3.58   0
  -6  -7   5  278.14   11.62   0
   6   7  -5  284.08    4.94   0
  -5  -7   5  391.38   14.59   0
   5   7  -5  423.15    6.30   0
  -4  -7   5   25.47    1.73   0
   4   7  -5   20.15    0.99   0
  -3  -7   5  615.13   13.10   0
   3   7  -5  644.80    9.27   0
  -2  -7   5  398.18    7.42   0
   2   7  -5  399.17    6.55   0
   1   7  -5  338.97    5.81   0
  -1  -7   5  359.61    6.80   0
   0  -7  -5  125.72    2.97   0
   0   7   5  116.33    2.72   0
   1   7   5    2.23    1.11   0
  -1  -7  -5    2.60    0.99   0
   2   7   5   30.16    1.61   0
  -2  -7  -5   26.58    1.36   0
  -3  -7  -5  165.53    3.96   0
   3   7   5  160.34    2.97   0
   4   7   5   44.75    1.48   0
  -4  -7  -5   46.36    2.23   0
  -5  -7  -5  176.03    4.70   0
   5   7   5  182.22    3.58   0
  -6  -7  -5    5.32    1.61   0
   6   7   5    3.46    1.48   0
  -7  -7  -5    0.74    1.73   0
   7   7   5    0.25    1.36   0
   8   7   5   20.52    2.47   0
  -8  -7  -5   26.08    1.98   0
  -9  -7  -5   11.99    5.56   0
   9   7   5    7.29    2.97   0
  -9  -8   5    9.52    3.46   0
   9   8  -5    6.92    2.35   0
   8   8  -5   -3.34    2.97   0
  -8  -8   5    5.07    4.57   0
  -7  -8   5  270.36   11.99   0
   7   8  -5  272.21    6.80   0
  -6  -8   5   98.03    6.68   0
   6   8  -5  103.59    4.94   0
  -5  -8   5   51.67    6.06   0
   5   8  -5   49.45    2.84   0
   4   8  -5   -1.11    1.48   0
  -4  -8   5   -1.98    2.47   0
  -3  -8   5   11.13    1.36   0
   3   8  -5   11.99    1.24   0
  -2  -8   5   62.92    2.23   0
   2   8  -5   60.08    2.10   0
  -1  -8   5  652.10   11.62   0
   1   8  -5  637.38   13.23   0
   0  -8  -5  435.27    8.04   0
   0   8   5  423.15    9.64   0
  -1  -8  -5  331.67    6.43   0
   1   8   5  311.89    7.17   0
  -2  -8  -5    0.62    1.24   0
   2   8   5    0.25    1.61   0
  -3  -8  -5   52.17    2.23   0
   3   8   5   45.86    1.85   0
   4   8   5   13.23    1.48   0
  -4  -8  -5   12.36    1.85   0
  -5  -8  -5  355.65    8.28   0
   5   8   5  351.33    6.92   0
   6   8   5  215.72    5.69   0
  -6  -8  -5  200.39    6.43   0
  -7  -8  -5    4.82    2.10   0
   7   8   5    0.12    2.10   0
   8   8   5   40.67    3.46   0
  -8  -8  -5   52.17    7.91   0
  -8  -9   5   46.23    4.82   0
   8   9  -5   36.34    3.21   0
   7   9  -5   -1.61    2.35   0
  -7  -9   5    5.44    2.97   0
  -6  -9   5  210.77   10.51   0
   6   9  -5  216.58    7.54   0
   5   9  -5  370.49   11.00   0
  -5  -9   5  347.99   14.59   0
   4   9  -5    9.15    1.73   0
  -4  -9   5    7.91    2.35   0
  -3  -9   5  218.56    5.69   0
   3   9  -5  219.92    7.42   0
   2   9  -5  947.55   19.16   0
  -2  -9   5  897.11   15.82   0
   1   9  -5  380.13    8.41   0
  -1  -9   5  375.19    8.28   0
   0  -9  -5   16.57    1.48   0
   0   9   5   20.89    2.23   0
   1   9   5  187.28    5.19   0
  -1  -9  -5  190.75    4.20   0
  -2  -9  -5  193.47    4.70   0
   2   9   5  195.20    5.44   0
  -3  -9  -5    3.83    2.23   0
   3   9   5    1.48    1.85   0
   4   9   5  234.26    6.06   0
  -4  -9  -5  244.52    7.54   0
  -5  -9  -5    1.85    2.35   0
   5   9   5    3.46    1.98   0
  -6  -9  -5   81.09    4.33   0
   6   9   5   73.43    3.58   0
   7   9   5   85.55    4.70   0
  -7  -9  -5   98.53    7.79   0
  -7 -10   5   24.72    4.45   0
   7  10  -5   18.30    2.84   0
  -6 -10   5   16.19    4.45   0
   6  10  -5   14.83    4.57   0
   5  10  -5   20.89    3.71   0
  -5 -10   5   21.14    4.82   0
   4  10  -5   24.97    3.46   0
  -4 -10   5   32.64    4.45   0
  -3 -10   5    3.58    3.46   0
   3  10  -5    3.58    2.84   0
   2  10  -5   69.97    4.45   0
  -2 -10   5   63.91    5.19   0
   1  10  -5  145.13    4.82   0
  -1 -10   5  154.15    7.91   0
   0  10   5    7.54    1.98   0
   0 -10  -5    5.93    2.47   0
  -1 -10  -5   64.41    4.94   0
   1  10   5   71.58    3.71   0
  -2 -10  -5   18.05    1.98   0
   2  10   5   25.47    3.46   0
  -3 -10  -5   -2.47    1.36   0
   3  10   5   -1.36    1.85   0
  -4 -10  -5    3.96    1.85   0
   4  10   5    2.84    2.35   0
   5  10   5   36.47    3.46   0
  -5 -10  -5   41.91    3.09   0
  -6 -10  -5   27.32    2.84   0
   6  10   5   19.78    2.72   0
   5  11  -5  132.27    7.29   0
  -5 -11   5  133.02    6.80   0
  -4 -11   5    7.17    2.97   0
   4  11  -5   15.33    4.82   0
  -3 -11   5  119.17    9.40   0
   3  11  -5  119.54    6.68   0
   2  11  -5  119.29    6.43   0
  -2 -11   5  125.47    9.02   0
  -1 -11   5  148.96    8.90   0
   1  11  -5  148.22    7.05   0
   0 -11  -5    3.21    5.19   0
   0  11   5   13.47    7.42   0
  -1 -11  -5  133.88    8.16   0
   1  11   5  124.36    5.93   0
  -2 -11  -5  109.28    7.42   0
   2  11   5  100.38    5.93   0
   3  11   5    3.09    2.60   0
  -3 -11  -5   -0.25    4.57   0
   4  11   5  272.95    8.53   0
  -4 -11  -5  302.25   15.08   0
  -2 -12   5  -12.24    6.06   0
   2  12  -5    5.56    5.93   0
  -1 -12   5   62.43    6.30   0
   1  12  -5   52.91    7.17   0
   0  12   5   60.20    7.79   0
   0 -12  -5   75.53    7.66   0
  -1 -12  -5   53.65    6.80   0
   1  12   5   68.98   10.01   0
  12   0  -6    4.57    2.10   0
  11   0  -6   93.58    3.46   0
  10   0  -6  804.40   13.97   0
   9   0  -6  385.82    5.69   0
   8   0  -6 2625.69   32.02   0
   7   0  -6  326.11    4.45   0
   6   0  -6 2572.04   31.15   0
   5   0  -6  530.95    8.28   0
   4   0  -6  140.56    2.23   0
   3   0  -6  475.57    7.05   0
   2   0  -6  811.94   11.99   0
   1   0  -6 7131.02   90.00   0
   0   0   6  190.75    3.21   0
   1   0   6 2241.60   27.07   0
   2   0   6 1219.02   13.97   0
   3   0   6  116.82    1.73   0
   4   0   6   48.09    0.99   0
   5   0   6 3873.63   46.60   0
   6   0   6   64.41    1.48   0
   7   0   6   45.62    1.48   0
   8   0   6  455.91    9.02   0
   9   0   6   10.63    1.61   0
  10   0   6   12.73    2.47   0
  11   0   6  209.16    6.55   0
  12   1  -6    3.21    1.73   0
 -12  -1   6    3.09    1.36   0
  11   1  -6   22.50    2.35   0
 -11  -1   6   23.74    1.85   0
 -10  -1   6  151.43    4.20   0
  10   1  -6  154.90    3.71   0
  -9  -1   6    3.09    0.74   0
   9   1  -6    1.73    0.99   0
  -8  -1   6  397.56    5.81   0
   8   1  -6  397.44    5.07   0
  -7  -1   6  114.35    1.85   0
   7   1  -6  115.83    1.85   0
  -6  -1   6   23.36    0.87   0
   6   1  -6   23.24    0.87   0
  -5  -1   6  270.97    4.33   0
   5   1  -6  271.22    4.08   0
  -4  -1   6   98.15    1.73   0
   4   1  -6  100.13    1.61   0
  -3  -1   6  476.68    7.05   0
   3   1  -6  484.71    6.80   0
  -2  -1   6  147.36    2.23   0
   2   1  -6  144.64    2.60   0
  -1  -1   6   82.33    1.48   0
   1   1  -6   85.42    1.73   0
   0  -1  -6  348.48    4.57   0
   0   1   6  355.90    5.07   0
  -1  -1  -6   -0.99    0.49   0
   1   1   6   -0.74    0.37   0
  -2  -1  -6   84.06    1.36   0
   2   1   6   84.93    1.24   0
  -3  -1  -6 1351.17   16.69   0
   3   1   6 1353.02   15.58   0
  -4  -1  -6   51.55    1.24   0
   4   1   6   51.67    1.11   0
   5   1   6  127.58    1.98   0
  -5  -1  -6  130.05    2.23   0
  -6  -1  -6   46.85    1.24   0
   6   1   6   47.72    1.24   0
   7   1   6  121.02    2.60   0
  -7  -1  -6  127.33    3.21   0
   8   1   6   68.86    2.35   0
  -8  -1  -6   71.95    2.47   0
  -9  -1  -6    1.98    1.36   0
   9   1   6    2.60    1.61   0
 -10  -1  -6   11.13    1.85   0
  10   1   6   11.50    2.23   0
 -11  -1  -6   19.90    3.09   0
  11   1   6   23.74    2.84   0
  12   2  -6   -0.74    2.10   0
 -12  -2   6    2.72    3.21   0
  11   2  -6  140.31    4.33   0
 -11  -2   6  130.30    5.44   0
 -10  -2   6  765.45   13.10   0
  10   2  -6  689.68   12.36   0
  -9  -2   6  109.77    2.23   0
   9   2  -6  101.12    2.10   0
   8   2  -6 1029.26   13.97   0
  -8  -2   6 1036.55   15.21   0
   7   2  -6    6.18    0.62   0
  -7  -2   6    7.29    0.62   0
  -6  -2   6    6.55    0.49   0
   6   2  -6    6.55    0.62   0
  -5  -2   6   24.11    0.74   0
   5   2  -6   22.99    0.74   0
   4   2  -6 1965.31   25.47   0
  -4  -2   6 1984.47   25.84   0
  -3  -2   6  785.98   11.74   0
   3   2  -6  779.79   10.38   0
  -2  -2   6  836.41   12.73   0
   2   2  -6  838.51   10.26   0
  -1  -2   6 3043.89   38.94   0
   1   2  -6 3033.14   43.64   0
   0   2   6 1755.40   21.14   0
   0  -2  -6 1758.99   23.49   0
   1   2   6  276.79    3.71   0
  -1  -2  -6  270.85    3.58   0
  -2  -2  -6  232.16    3.58   0
   2   2   6  234.51    3.09   0
  -3  -2  -6  134.13    2.35   0
   3   2   6  137.96    1.98   0
  -4  -2  -6  533.42    7.54   0
   4   2   6  521.18    6.30   0
  -5  -2  -6  141.67    2.72   0
   5   2   6  144.26    2.10   0
  -6  -2  -6   57.36    2.10   0
   6   2   6   63.91    1.36   0
  -7  -2  -6  431.56   12.11   0
   7   2   6  463.33    6.92   0
  -8  -2  -6  169.98    4.45   0
   8   2   6  165.03    3.96   0
   9   2   6    5.32    2.10   0
  -9  -2  -6    7.91    2.23   0
  10   2   6    1.36    2.35   0
 -10  -2  -6    1.24    2.35   0
  12   3  -6   23.36    2.60   0
 -12  -3   6   22.87    3.34   0
 -11  -3   6   36.59    3.71   0
  11   3  -6   39.19    2.72   0
 -10  -3   6   74.42    3.21   0
  10   3  -6   72.32    2.72   0
   9   3  -6  773.74   11.25   0
  -9  -3   6  792.16   19.66   0
   8   3  -6   45.99    1.36   0
  -8  -3   6   44.01    2.60   0
   7   3  -6   87.77    1.73   0
  -7  -3   6   88.51    2.84   0
  -6  -3   6  512.28   10.38   0
   6   3  -6  507.21    7.29   0
  -5  -3   6  441.57    6.80   0
   5   3  -6  436.75    5.69   0
  -4  -3   6   79.86    1.98   0
   4   3  -6   76.27    1.48   0
  -3  -3   6   30.16    1.24   0
   3   3  -6   32.02    0.87   0
  -2  -3   6    4.45    0.62   0
   2   3  -6    4.08    0.37   0
   1   3  -6  236.24    3.46   0
  -1  -3   6  233.02    3.83   0
   0  -3  -6   99.76    1.98   0
   0   3   6  101.24    1.61   0
  -1  -3  -6 1358.58   22.50   0
   1   3   6 1350.42   16.44   0
  -2  -3  -6  467.78    7.17   0
   2   3   6  473.09    6.30   0
  -3  -3  -6  949.65   14.34   0
   3   3   6  960.77   10.63   0
   4   3   6 1458.84   15.70   0
  -4  -3  -6 1444.62   19.66   0
  -5  -3  -6   75.41    1.98   0
   5   3   6   75.90    1.36   0
  -6  -3  -6  202.74    4.45   0
   6   3   6  204.59    3.09   0
  -7  -3  -6  361.34   10.63   0
   7   3   6  364.18    5.32   0
  -8  -3  -6   86.90    3.71   0
   8   3   6   83.32    2.84   0
   9   3   6    5.81    2.10   0
  -9  -3  -6    4.94    2.10   0
  10   3   6   27.44    2.72   0
 -10  -3  -6   26.95    2.84   0
  12   4  -6    5.93    2.60   0
 -12  -4   6    3.21    2.72   0
 -11  -4   6   25.22    3.58   0
  11   4  -6   18.05    2.47   0
 -10  -4   6  399.05    9.64   0
  10   4  -6  400.28    9.15   0
   9   4  -6    0.49    0.99   0
  -9  -4   6    0.74    1.85   0
   8   4  -6  260.47    3.96   0
  -8  -4   6  262.82    7.54   0
  -7  -4   6  251.57    7.05   0
   7   4  -6  255.89    3.96   0
  -6  -4   6   34.49    2.47   0
   6   4  -6   35.97    1.11   0
  -5  -4   6  420.56    8.41   0
   5   4  -6  428.47    5.69   0
   4   4  -6 1031.86   12.61   0
  -4  -4   6 1021.72   23.49   0
  -3  -4   6   87.65    2.47   0
   3   4  -6   88.02    1.36   0
   2   4  -6  960.53   11.13   0
  -2  -4   6  949.03   16.19   0
   1   4  -6   32.39    0.99   0
  -1  -4   6   30.53    0.99   0
   0  -4  -6  904.77   13.47   0
   0   4   6  912.19   10.75   0
  -1  -4  -6  500.66    7.66   0
   1   4   6  517.23    5.93   0
   2   4   6    6.80    0.62   0
  -2  -4  -6    7.17    0.87   0
  -3  -4  -6    0.00    0.87   0
   3   4   6    2.97    0.62   0
  -4  -4  -6  392.86    7.42   0
   4   4   6  397.56    4.94   0
  -5  -4  -6   42.40    2.10   0
   5   4   6   34.74    1.24   0
  -6  -4  -6  864.47   18.17   0
   6   4   6  900.94   11.74   0
  -7  -4  -6  181.10    6.18   0
   7   4   6  197.05    3.58   0
   8   4   6   17.92    2.10   0
  -8  -4  -6   17.18    1.73   0
   9   4   6   -2.10    2.47   0
  -9  -4  -6   -4.20    4.33   0
 -10  -4  -6    6.06    2.10   0
  10   4   6    6.06    2.23   0
  11   5  -6   35.11    3.71   0
 -11  -5   6   30.53    6.06   0
  10   5  -6   52.66    2.97   0
 -10  -5   6   52.29    3.96   0
   9   5  -6  454.80    8.78   0
  -9  -5   6  465.55   13.10   0
   8   5  -6   19.66    1.36   0
  -8  -5   6   11.13    3.71   0
   7   5  -6  620.20    8.41   0
  -7  -5   6  596.59   22.50   0
  -6  -5   6 1089.71   35.23   0
   6   5  -6 1175.26   14.83   0
   5   5  -6  564.08    6.92   0
  -5  -5   6  559.13   11.50   0
  -4  -5   6  848.53   20.27   0
   4   5  -6  853.84    9.40   0
  -3  -5   6 1279.47   24.11   0
   3   5  -6 1287.25   14.83   0
   2   5  -6   88.14    1.61   0
  -2  -5   6   82.95    2.47   0
  -1  -5   6  135.86    2.84   0
   1   5  -6  135.86    2.23   0
   0  -5  -6  828.38   14.09   0
   0   5   6  842.10   10.51   0
   1   5   6  800.19    9.15   0
  -1  -5  -6  794.13   13.35   0
  -2  -5  -6  339.46    6.18   0
   2   5   6  340.20    4.20   0
  -3  -5  -6 1468.11   24.11   0
   3   5   6 1487.40   15.58   0
  -4  -5  -6  435.27    8.28   0
   4   5   6  433.16    5.32   0
  -5  -5  -6    1.36    1.61   0
   5   5   6    3.09    0.87   0
  -6  -5  -6   39.68    2.35   0
   6   5   6   40.42    1.36   0
   7   5   6  120.65    2.72   0
  -7  -5  -6  134.75    4.82   0
  -8  -5  -6    0.74    1.73   0
   8   5   6    2.47    1.73   0
   9   5   6   10.26    2.23   0
  -9  -5  -6   17.92    2.23   0
  11   6  -6    4.70    2.72   0
 -11  -6   6   -2.97    5.81   0
 -10  -6   6   -2.35    2.47   0
  10   6  -6   -1.36    2.35   0
  -9  -6   6   12.24    2.84   0
   9   6  -6   11.62    2.10   0
   8   6  -6    2.72    1.36   0
  -8  -6   6   -2.84    4.57   0
   7   6  -6  120.03    2.60   0
  -7  -6   6  114.97    7.42   0
   6   6  -6    1.61    0.99   0
  -6  -6   6    0.37    2.97   0
  -5  -6   6  683.99   16.19   0
   5   6  -6  715.88    8.16   0
  -4  -6   6   38.45    2.10   0
   4   6  -6   45.37    1.24   0
   3   6  -6   -0.99    1.24   0
  -3  -6   6   -2.10    1.73   0
  -2  -6   6    4.33    0.99   0
   2   6  -6    4.82    0.87   0
  -1  -6   6  274.07    5.19   0
   1   6  -6  276.04    4.45   0
   0   6   6    7.66    1.24   0
   0  -6  -6    4.57    0.74   0
  -1  -6  -6    6.80    1.11   0
   1   6   6    6.80    1.11   0
  -2  -6  -6    3.83    0.99   0
   2   6   6    3.96    0.74   0
  -3  -6  -6   33.62    1.73   0
   3   6   6   33.25    1.24   0
  -4  -6  -6  497.20   10.75   0
   4   6   6  498.19    6.68   0
  -5  -6  -6   65.89    2.60   0
   5   6   6   67.62    1.73   0
  -6  -6  -6    5.07    1.73   0
   6   6   6    5.44    1.36   0
  -7  -6  -6    4.94    1.98   0
   7   6   6    3.83    1.24   0
  -8  -6  -6  136.35    5.56   0
   8   6   6  123.37    4.57   0
   9   6   6   10.14    2.84   0
  -9  -6  -6    4.70    7.42   0
  10   7  -6   12.73    3.21   0
 -10  -7   6   24.60    4.57   0
   9   7  -6   52.79    2.97   0
  -9  -7   6   55.38    4.94   0
  -8  -7   6   13.60    3.96   0
   8   7  -6   13.85    2.23   0
   7   7  -6  326.97    6.68   0
  -7  -7   6  347.87   13.97   0
  -6  -7   6  295.20   12.24   0
   6   7  -6  302.25    6.18   0
   5   7  -6  124.24    2.35   0
  -5  -7   6  115.71    4.20   0
  -4  -7   6  860.64   21.14   0
   4   7  -6  852.61   11.87   0
  -3  -7   6  491.51    9.15   0
   3   7  -6  500.91    7.42   0
  -2  -7   6  417.46    7.79   0
   2   7  -6  415.61    6.92   0
  -1  -7   6   40.42    1.85   0
   1   7  -6   40.05    1.73   0
   0  -7  -6  194.95    3.96   0
   0   7   6  182.34    4.08   0
  -1  -7  -6  242.91    4.70   0
   1   7   6  230.43    4.82   0
  -2  -7  -6    9.77    1.24   0
   2   7   6    7.17    1.11   0
  -3  -7  -6  754.95   14.22   0
   3   7   6  752.47   10.88   0
   4   7   6   22.87    1.36   0
  -4  -7  -6   22.75    1.85   0
  -5  -7  -6   13.97    1.61   0
   5   7   6   14.83    1.48   0
  -6  -7  -6   13.85    1.85   0
   6   7   6   13.35    1.36   0
  -7  -7  -6   17.43    2.23   0
   7   7   6   11.37    1.61   0
   8   7   6  109.65    5.32   0
  -8  -7  -6  125.10    5.44   0
   9   8  -6    3.34    2.35   0
  -9  -8   6    2.10    3.58   0
   8   8  -6    5.93    2.35   0
  -8  -8   6    8.65    3.21   0
  -7  -8   6    6.06    5.44   0
   7   8  -6    4.45    2.23   0
  -6  -8   6   -4.94    5.19   0
   6   8  -6   -3.09    3.34   0
   5   8  -6  462.22   10.26   0
  -5  -8   6  493.49   12.61   0
  -4  -8   6   63.91    3.09   0
   4   8  -6   59.71    2.23   0
  -3  -8   6   -1.24    2.47   0
   3   8  -6   -0.12    1.98   0
  -2  -8   6    2.23    1.48   0
   2   8  -6    0.49    1.61   0
   1   8  -6  753.59   15.45   0
  -1  -8   6  776.95   15.58   0
   0  -8  -6  133.14    3.09   0
   0   8   6  129.06    4.08   0
  -1  -8  -6   19.66    1.36   0
   1   8   6   16.69    1.98   0
  -2  -8  -6   42.53    1.98   0
   2   8   6   43.76    2.47   0
  -3  -8  -6   19.53    1.61   0
   3   8   6   19.53    1.61   0
   4   8   6   43.64    1.98   0
  -4  -8  -6   44.13    2.23   0
  -5  -8  -6    2.84    1.61   0
   5   8   6    4.70    1.36   0
   6   8   6   22.87    2.35   0
  -6  -8  -6   23.74    2.60   0
   7   8   6  115.58    4.57   0
  -7  -8  -6  126.59    5.32   0
   8   8   6  306.70   11.37   0
  -8  -8  -6  304.72   16.19   0
   8   9  -6    4.20    2.35   0
  -8  -9   6   10.14    3.46   0
  -7  -9   6   18.05    6.43   0
   7   9  -6   15.33    2.72   0
   6   9  -6   43.02    3.96   0
  -6  -9   6   40.92    5.19   0
   5   9  -6    2.23    2.84   0
  -5  -9   6    4.57    5.56   0
   4   9  -6   81.22    4.57   0
  -4  -9   6   76.03    4.08   0
   3   9  -6   96.42    2.97   0
  -3  -9   6   90.24    3.21   0
  -2  -9   6   58.97    2.84   0
   2   9  -6   60.08    2.72   0
  -1  -9   6    5.07    1.61   0
   1   9  -6    6.18    1.73   0
   0  -9  -6    7.66    1.61   0
   0   9   6    8.04    2.23   0
  -1  -9  -6   30.04    1.48   0
   1   9   6   29.67    2.47   0
  -2  -9  -6    5.69    1.36   0
   2   9   6    2.35    1.61   0
  -3  -9  -6   86.53    3.83   0
   3   9   6   78.25    3.21   0
  -4  -9  -6   64.90    3.71   0
   4   9   6   61.69    3.09   0
  -5  -9  -6   20.40    2.47   0
   5   9   6   23.12    2.47   0
  -6  -9  -6    6.55    2.35   0
   6   9   6    3.58    2.35   0
   7   9   6   58.84    4.70   0
  -7  -9  -6   42.65    7.91   0
   7  10  -6   39.81    3.46   0
  -7 -10   6   35.23    4.82   0
  -6 -10   6    1.73    4.20   0
   6  10  -6   -0.87    2.84   0
   5  10  -6  102.73    5.81   0
  -5 -10   6   99.27    7.42   0
  -4 -10   6   31.15    6.18   0
   4  10  -6   24.23    4.45   0
  -3 -10   6   11.13    5.69   0
   3  10  -6    8.65    3.58   0
   2  10  -6   65.15    4.08   0
  -2 -10   6   67.62    6.18   0
  -1 -10   6  294.46   13.35   0
   1  10  -6  306.33    9.64   0
   0 -10  -6   11.13    4.45   0
   0  10   6   16.19    2.84   0
  -1 -10  -6    1.61    3.09   0
   1  10   6    3.34    2.10   0
  -2 -10  -6   63.54    4.94   0
   2  10   6   60.57    4.08   0
  -3 -10  -6   12.61    2.35   0
   3  10   6    5.69    1.85   0
  -4 -10  -6   88.76    4.20   0
   4  10   6   96.67    4.20   0
  -5 -10  -6   13.85    2.23   0
   5  10   6   15.08    2.35   0
   5  11  -6    3.21    3.96   0
  -5 -11   6    1.24    4.20   0
  -4 -11   6   26.08    5.56   0
   4  11  -6   24.72    3.83   0
  -3 -11   6    9.27    4.33   0
   3  11  -6    6.92    3.58   0
   2  11  -6   -1.36    2.72   0
  -2 -11   6    0.99    5.56   0
  -1 -11   6   11.50    6.18   0
   1  11  -6    2.84    4.20   0
   0  11   6   40.55    6.43   0
   0 -11  -6   31.03    4.70   0
  -1 -11  -6   48.21    6.43   0
   1  11   6   49.08    8.16   0
  -2 -11  -6   14.34    5.07   0
   2  11   6   14.83    3.83   0
   3  11   6   26.95    4.20   0
  -3 -11  -6   29.92    4.08   0
  -4 -11  -6   56.49    5.56   0
   4  11   6   45.37    4.45   0
  -1 -12   6    6.92    6.68   0
   1  12  -6   -0.25    6.43   0
   0  12   6   84.43   10.38   0
   0 -12  -6   78.99    8.16   0
 -12  -1   7   17.80    1.98   0
  12   1  -7   19.66    2.23   0
 -11  -1   7   91.85    3.21   0
  11   1  -7   88.02    3.34   0
  10   1  -7  955.95   16.57   0
 -10  -1   7  990.81   19.78   0
   9   1  -7  257.75    3.83   0
  -9  -1   7  260.10    5.07   0
   8   1  -7   62.80    1.48   0
  -8  -1   7   62.18    1.48   0
  -7  -1   7   32.14    0.99   0
   7   1  -7   33.87    0.99   0
  -6  -1   7    4.70    0.62   0
   6   1  -7    5.56    0.62   0
  -5  -1   7  377.04    5.44   0
   5   1  -7  380.63    5.07   0
  -4  -1   7 4009.98   56.12   0
   4   1  -7 3999.72   51.18   0
  -3  -1   7  235.00    3.83   0
   3   1  -7  240.94    4.08   0
  -2  -1   7  316.34    4.94   0
   2   1  -7  324.87    5.07   0
  -1  -1   7    9.64    0.62   0
   1   1  -7    8.28    0.62   0
   0  -1  -7 1385.66   16.94   0
   0   1   7 1397.89   18.54   0
   1   1   7   15.58    0.49   0
  -1  -1  -7   13.97    0.49   0
  -2  -1  -7  218.07    3.09   0
   2   1   7  214.73    2.84   0
   3   1   7  712.05    8.28   0
  -3  -1  -7  703.40    9.02   0
  -4  -1  -7   21.14    0.99   0
   4   1   7   20.89    0.74   0
  -5  -1  -7   93.83    1.85   0
   5   1   7   92.22    1.73   0
  -6  -1  -7  633.31   10.14   0
   6   1   7  642.21    8.65   0
  -7  -1  -7  273.08    5.56   0
   7   1   7  280.12    4.94   0
  -8  -1  -7    1.73    1.36   0
   8   1   7    0.99    1.48   0
   9   1   7  338.72    8.41   0
  -9  -1  -7  351.45    8.53   0
  10   1   7  174.68    5.93   0
 -10  -1  -7  176.90    5.69   0
  12   2  -7   25.22    2.84   0
 -12  -2   7   22.38    3.21   0
 -11  -2   7   52.04    3.46   0
  11   2  -7   58.72    3.21   0
  10   2  -7   42.40    2.10   0
 -10  -2   7   45.49    1.36   0
  -9  -2   7  449.85    7.79   0
   9   2  -7  444.91    6.55   0
  -8  -2   7  158.36    2.84   0
   8   2  -7  153.78    2.35   0
  -7  -2   7   46.85    1.24   0
   7   2  -7   48.95    1.11   0
  -6  -2   7   16.69    0.87   0
   6   2  -7   15.95    0.74   0
  -5  -2   7    7.29    0.49   0
   5   2  -7    6.30    0.62   0
  -4  -2   7    3.58    0.49   0
   4   2  -7    3.09    0.49   0
  -3  -2   7 1430.04   20.52   0
   3   2  -7 1427.93   17.55   0
  -2  -2   7  126.34    2.35   0
   2   2  -7  125.97    2.10   0
  -1  -2   7  627.87    8.41   0
   1   2  -7  632.32    9.02   0
   0  -2  -7   17.31    0.87   0
   0   2   7   18.54    0.74   0
  -1  -2  -7   27.69    0.74   0
   1   2   7   27.20    0.74   0
  -2  -2  -7  392.62    5.07   0
   2   2   7  394.22    4.82   0
  -3  -2  -7  247.12    3.83   0
   3   2   7  245.01    3.21   0
  -4  -2  -7    3.71    0.74   0
   4   2   7    2.84    0.62   0
  -5  -2  -7  700.68    9.89   0
   5   2   7  714.52    8.28   0
   6   2   7  444.29    6.18   0
  -6  -2  -7  443.92    8.41   0
  -7  -2  -7   66.01    3.58   0
   7   2   7   61.93    1.85   0
   8   2   7   38.57    1.98   0
  -8  -2  -7   39.68    2.47   0
  -9  -2  -7   -3.71    2.97   0
   9   2   7   -1.36    1.48   0
  10   2   7   54.15    2.97   0
 -10  -2  -7   59.21    3.83   0
 -12  -3   7  188.89    7.91   0
  12   3  -7  193.84    6.55   0
 -11  -3   7   12.49    2.60   0
  11   3  -7   14.09    2.72   0
  10   3  -7  213.12    4.94   0
 -10  -3   7  231.42    6.30   0
  -9  -3   7    8.41    1.85   0
   9   3  -7    7.05    0.99   0
  -8  -3   7  336.25    9.02   0
   8   3  -7  327.35    4.70   0
   7   3  -7    5.44    0.87   0
  -7  -3   7    6.06    1.24   0
  -6  -3   7  424.76    6.68   0
   6   3  -7  413.01    5.56   0
  -5  -3   7  343.17    6.30   0
   5   3  -7  337.85    4.94   0
  -4  -3   7  712.55   11.99   0
   4   3  -7  700.18    9.52   0
  -3  -3   7  804.40   15.70   0
   3   3  -7  813.79   10.14   0
   2   3  -7   32.39    0.74   0
  -2  -3   7   32.14    1.24   0
   1   3  -7 2644.35   34.61   0
  -1  -3   7 2631.00   37.21   0
   0  -3  -7    3.83    0.74   0
   0   3   7    6.55    0.37   0
   1   3   7  485.83    6.18   0
  -1  -3  -7  476.80    7.42   0
   2   3   7   11.37    0.62   0
  -2  -3  -7   11.62    0.87   0
  -3  -3  -7   24.97    1.24   0
   3   3   7   25.71    0.74   0
  -4  -3  -7   73.06    1.73   0
   4   3   7   74.54    1.36   0
  -5  -3  -7  753.96   10.63   0
   5   3   7  776.70    8.90   0
  -6  -3  -7  153.04    4.08   0
   6   3   7  166.39    2.72   0
  -7  -3  -7   17.55    2.23   0
   7   3   7   18.91    1.11   0
  -8  -3  -7   22.62    2.10   0
   8   3   7   18.67    1.98   0
  -9  -3  -7    3.34    2.23   0
   9   3   7    3.83    1.85   0
 -10  -3  -7    4.57    2.60   0
  10   3   7    4.82    1.98   0
 -12  -4   7  134.13    8.04   0
  12   4  -7  117.93    4.70   0
 -11  -4   7  202.12    8.65   0
  11   4  -7  193.09    6.30   0
 -10  -4   7   11.13    2.23   0
  10   4  -7   12.49    1.85   0
  -9  -4   7  463.33   12.61   0
   9   4  -7  459.50    7.05   0
   8   4  -7  220.41    3.46   0
  -8  -4   7  222.89    6.68   0
  -7  -4   7  143.52    4.70   0
   7   4  -7  136.23    2.35   0
  -6  -4   7  351.95    9.52   0
   6   4  -7  357.39    5.44   0
  -5  -4   7  552.83   11.00   0
   5   4  -7  563.46    7.29   0
  -4  -4   7   11.99    0.87   0
   4   4  -7    8.78    0.62   0
  -3  -4   7   48.46    1.73   0
   3   4  -7   45.37    0.99   0
  -2  -4   7    0.49    0.87   0
   2   4  -7    1.85    0.37   0
   1   4  -7 1496.54   19.90   0
  -1  -4   7 1471.82   21.39   0
   0  -4  -7  741.97   11.50   0
   0   4   7  736.65    8.90   0
  -1  -4  -7  778.19   11.62   0
   1   4   7  791.79    9.27   0
   2   4   7 1269.58   14.46   0
  -2  -4  -7 1250.54   18.42   0
  -3  -4  -7  882.52   15.21   0
   3   4   7  885.61   10.26   0
   4   4   7  144.14    2.23   0
  -4  -4  -7  139.94    3.34   0
  -5  -4  -7  210.15    5.19   0
   5   4   7  207.19    3.34   0
   6   4   7  374.57    5.44   0
  -6  -4  -7  361.71   10.51   0
  -7  -4  -7  198.29    6.68   0
   7   4   7  192.48    4.20   0
   8   4   7   83.69    3.21   0
  -8  -4  -7   97.04    4.57   0
   9   4   7   25.96    2.35   0
  -9  -4  -7   24.23    2.84   0
  10   4   7   69.47    3.71   0
 -10  -4  -7   82.21    4.70   0
  11   5  -7    4.45    2.60   0
 -11  -5   7    5.93    7.79   0
 -10  -5   7   76.64    5.32   0
  10   5  -7   77.76    2.97   0
   9   5  -7  153.91    3.96   0
  -9  -5   7  143.28    7.66   0
  -8  -5   7   17.92    4.70   0
   8   5  -7   15.70    1.24   0
  -7  -5   7    1.98    2.97   0
   7   5  -7    1.24    0.99   0
  -6  -5   7   44.87    4.08   0
   6   5  -7   39.68    1.36   0
   5   5  -7   35.60    0.87   0
  -5  -5   7   37.70    1.73   0
  -4  -5   7  112.87    3.21   0
   4   5  -7  115.96    1.73   0
  -3  -5   7   26.33    1.85   0
   3   5  -7   27.20    0.74   0
  -2  -5   7   38.57    1.61   0
   2   5  -7   40.18    1.11   0
   1   5  -7  216.83    3.09   0
  -1  -5   7  215.96    4.08   0
   0  -5  -7    2.35    0.74   0
   0   5   7    1.11    0.74   0
  -1  -5  -7   92.84    2.35   0
   1   5   7   90.24    1.48   0
   2   5   7  267.39    3.46   0
  -2  -5  -7  267.51    5.32   0
  -3  -5  -7  207.56    4.33   0
   3   5   7  214.48    2.72   0
  -4  -5  -7  301.14    6.43   0
   4   5   7  314.98    4.33   0
  -5  -5  -7   11.74    1.73   0
   5   5   7   13.35    1.11   0
  -6  -5  -7    7.17    2.23   0
   6   5   7    6.30    1.24   0
  -7  -5  -7    3.96    1.98   0
   7   5   7    3.58    1.11   0
  -8  -5  -7   27.20    2.72   0
   8   5   7   31.40    2.35   0
   9   5   7   -0.74    2.10   0
  -9  -5  -7    1.11    2.23   0
 -11  -6   7   90.74    8.53   0
  11   6  -7   95.81    4.94   0
  10   6  -7    1.11    3.34   0
 -10  -6   7   -1.36    3.83   0
   9   6  -7  193.84    5.44   0
  -9  -6   7  188.15    9.89   0
   8   6  -7  183.70    3.83   0
  -8  -6   7  196.43    9.02   0
  -7  -6   7   30.04    4.33   0
   7   6  -7   33.01    1.48   0
  -6  -6   7   60.57    5.69   0
   6   6  -7   65.52    1.61   0
   5   6  -7  367.52    4.45   0
  -5  -6   7  355.41    9.02   0
  -4  -6   7   60.45    2.35   0
   4   6  -7   58.10    0.99   0
  -3  -6   7    3.21    1.24   0
   3   6  -7    0.00    0.99   0
  -2  -6   7  464.19   10.01   0
   2   6  -7  467.53    6.80   0
   1   6  -7    0.00    0.62   0
  -1  -6   7   -0.25    1.73   0
   0  -6  -7  114.97    2.72   0
   0   6   7  119.54    2.23   0
  -1  -6  -7  627.50   10.88   0
   1   6   7  630.34    7.91   0
   2   6   7  813.05   10.01   0
  -2  -6  -7  812.31   14.09   0
  -3  -6  -7  106.07    2.84   0
   3   6   7  106.56    1.98   0
  -4  -6  -7  218.19    5.44   0
   4   6   7  214.36    3.46   0
  -5  -6  -7   62.92    2.60   0
   5   6   7   60.20    1.98   0
   6   6   7    3.83    1.24   0
  -6  -6  -7    4.45    2.10   0
   7   6   7  159.10    3.96   0
  -7  -6  -7  172.82    5.93   0
   8   6   7   76.15    3.46   0
  -8  -6  -7   81.71    4.33   0
   9   6   7   67.25    3.46   0
  -9  -6  -7   75.41    4.20   0
 -10  -7   7   -0.74    3.21   0
  10   7  -7    0.74    2.97   0
   9   7  -7    5.56    2.10   0
  -9  -7   7    0.99    4.08   0
   8   7  -7    8.41    1.98   0
  -8  -7   7   10.51    4.08   0
  -7  -7   7  143.77    8.16   0
   7   7  -7  134.37    3.71   0
  -6  -7   7   13.85    4.08   0
   6   7  -7   12.61    1.73   0
  -5  -7   7   68.61    2.97   0
   5   7  -7   69.35    1.73   0
  -4  -7   7  730.35   17.55   0
   4   7  -7  731.34   10.26   0
  -3  -7   7  106.31    2.97   0
   3   7  -7  109.40    2.23   0
  -2  -7   7   53.03    3.21   0
   2   7  -7   37.58    1.61   0
  -1  -7   7   28.19    2.10   0
   1   7  -7   26.58    1.61   0
   0  -7  -7  381.74    7.17   0
   0   7   7  351.33    7.79   0
  -1  -7  -7   -0.25    1.73   0
   1   7   7   -0.25    1.11   0
  -2  -7  -7  141.30    3.46   0
   2   7   7  136.48    2.84   0
  -3  -7  -7   -0.87    1.11   0
   3   7   7    0.12    0.87   0
  -4  -7  -7   92.96    3.34   0
   4   7   7   92.22    2.35   0
  -5  -7  -7    1.73    1.61   0
   5   7   7    0.49    1.24   0
  -6  -7  -7   73.68    3.34   0
   6   7   7   64.28    2.35   0
   7   7   7    2.60    1.61   0
  -7  -7  -7    5.07    2.23   0
   8   7   7   12.73    1.98   0
  -8  -7  -7   13.23    2.35   0
   9   8  -7   86.41    4.57   0
  -9  -8   7   86.41    6.43   0
   8   8  -7   66.14    3.58   0
  -8  -8   7   64.04    6.30   0
  -7  -8   7   33.01    5.07   0
   7   8  -7   25.22    2.60   0
  -6  -8   7   11.25    3.96   0
   6   8  -7    7.91    2.97   0
  -5  -8   7   11.37    1.73   0
   5   8  -7   11.87    1.98   0
  -4  -8   7   36.84    2.10   0
   4   8  -7   38.32    1.61   0
   3   8  -7  263.06    4.82   0
  -3  -8   7  247.98    6.06   0
  -2  -8   7    5.32    1.48   0
   2   8  -7    2.72    1.48   0
  -1  -8   7  333.77    7.66   0
   1   8  -7  334.76    7.79   0
   0  -8  -7  112.87    3.71   0
   0   8   7  104.95    3.58   0
  -1  -8  -7   11.00    1.11   0
   1   8   7   15.21    1.85   0
  -2  -8  -7   53.28    1.98   0
   2   8   7   55.26    2.10   0
  -3  -8  -7   27.69    1.85   0
   3   8   7   25.22    1.48   0
   4   8   7    0.74    1.36   0
  -4  -8  -7    3.83    2.10   0
  -5  -8  -7   54.76    3.46   0
   5   8   7   56.37    2.35   0
  -6  -8  -7   46.98    3.58   0
   6   8   7   42.77    2.60   0
  -7  -8  -7   44.13    3.46   0
   7   8   7   29.79    3.09   0
  -8  -9   7   31.15    3.96   0
   8   9  -7   25.09    3.09   0
   7   9  -7   11.37    3.83   0
  -7  -9   7   15.70    4.82   0
   6   9  -7    2.23    4.08   0
  -6  -9   7    3.21    5.56   0
   5   9  -7  244.89    8.16   0
  -5  -9   7  227.71   10.75   0
  -4  -9   7  525.76   20.77   0
   4   9  -7  506.35   14.71   0
   3   9  -7  115.96    4.94   0
  -3  -9   7  107.67    3.71   0
  -2  -9   7    1.36    1.48   0
   2   9  -7    0.62    1.85   0
  -1  -9   7   56.37    2.72   0
   1   9  -7   58.60    2.84   0
   0   9   7  205.95    5.56   0
   0  -9  -7  193.22    5.44   0
  -1  -9  -7  158.98    3.71   0
   1   9   7  155.76    4.82   0
  -2  -9  -7  174.68    4.57   0
   2   9   7  182.96    4.57   0
  -3  -9  -7   12.49    2.23   0
   3   9   7   11.37    1.98   0
  -4  -9  -7    9.02    2.72   0
   4   9   7    4.33    2.10   0
  -5  -9  -7    1.36    2.10   0
   5   9   7    2.84    2.35   0
   6   9   7  221.40    7.05   0
  -6  -9  -7  217.69    8.65   0
  -7 -10   7   -3.83    6.92   0
   7  10  -7   -5.81    4.45   0
  -6 -10   7   -3.83    4.82   0
   6  10  -7    6.55    3.46   0
  -5 -10   7    6.55    6.18   0
   5  10  -7    4.20    4.45   0
  -4 -10   7   12.24    4.33   0
   4  10  -7   13.60    3.21   0
   3  10  -7   26.45    3.71   0
  -3 -10   7   36.59    4.82   0
  -2 -10   7   19.53    4.08   0
   2  10  -7   17.92    3.09   0
  -1 -10   7   13.47    3.83   0
   1  10  -7   10.26    2.84   0
   0  10   7   28.19    2.72   0
   0 -10  -7   27.20    4.20   0
  -1 -10  -7   45.62    5.81   0
   1  10   7   38.69    3.46   0
  -2 -10  -7   32.26    5.07   0
   2  10   7   24.60    2.23   0
  -3 -10  -7   29.42    3.71   0
   3  10   7   23.98    2.23   0
  -4 -10  -7    2.60    4.08   0
   4  10   7    2.47    1.98   0
  -5 -10  -7    8.41    2.23   0
   5  10   7    9.15    4.33   0
   5  11  -7   39.31    4.57   0
  -5 -11   7   45.62    6.30   0
  -4 -11   7  119.42    9.02   0
   4  11  -7  127.82    6.68   0
   3  11  -7   79.61    5.19   0
  -3 -11   7   59.58    6.55   0
  -2 -11   7   -1.24    4.08   0
   2  11  -7    0.37    3.09   0
  -1 -11   7   55.88    7.54   0
   1  11  -7   44.50    4.20   0
   0 -11  -7  174.43   10.51   0
   0  11   7  234.14   14.83   0
  -1 -11  -7   40.18    6.06   0
   1  11   7   43.51    6.92   0
  -2 -11  -7  128.94    8.04   0
   2  11   7  127.08    6.18   0
  -3 -11  -7  109.16    8.41   0
   3  11   7   90.98    5.44   0
  12   0  -8   21.26    2.35   0
  11   0  -8    5.19    1.61   0
  10   0  -8  442.56    8.53   0
   9   0  -8  109.90    2.10   0
   8   0  -8  423.52    6.18   0
   7   0  -8  304.35    4.57   0
   6   0  -8  157.24    2.72   0
   5   0  -8   78.25    1.61   0
   4   0  -8 1745.14   23.24   0
   3   0  -8  299.41    4.57   0
   2   0  -8 3731.84   52.66   0
   1   0  -8   17.18    0.87   0
   0   0   8 1867.77   22.75   0
   1   0   8  752.23    9.52   0
   2   0   8   82.08    1.48   0
   3   0   8  111.13    2.10   0
   4   0   8  147.36    2.23   0
   5   0   8  648.14    8.04   0
   6   0   8 2250.01   33.25   0
   7   0   8  187.28    4.33   0
   8   0   8   63.91    2.35   0
   9   0   8    3.96    1.85   0
  10   0   8  276.66    8.16   0
 -12  -1   8   32.14    1.98   0
  12   1  -8   35.23    2.47   0
  11   1  -8   64.53    2.72   0
 -11  -1   8   67.62    2.72   0
 -10  -1   8   29.55    1.48   0
  10   1  -8   24.11    1.61   0
   9   1  -8  258.86    4.08   0
  -9  -1   8  259.97    4.45   0
  -8  -1   8   98.15    1.98   0
   8   1  -8   98.53    1.85   0
   7   1  -8  145.87    2.35   0
  -7  -1   8  142.41    2.47   0
  -6  -1   8   84.06    1.73   0
   6   1  -8   84.80    1.98   0
  -5  -1   8  126.09    2.23   0
   5   1  -8  125.23    2.10   0
  -4  -1   8  218.44    3.58   0
   4   1  -8  219.18    3.34   0
  -3  -1   8  181.23    2.97   0
   3   1  -8  181.84    3.21   0
  -2  -1   8  350.46    5.07   0
   2   1  -8  352.32    5.56   0
  -1  -1   8  651.85    8.16   0
   1   1  -8  642.58    8.90   0
   0  -1  -8   -2.23    0.49   0
   0   1   8   -2.97    0.87   0
  -1  -1  -8  300.77    3.96   0
   1   1   8  302.50    4.08   0
  -2  -1  -8    2.72    0.49   0
   2   1   8    1.61    0.49   0
   3   1   8  177.02    2.47   0
  -3  -1  -8  177.52    2.72   0
  -4  -1  -8   83.07    1.73   0
   4   1   8   90.00    1.61   0
  -5  -1  -8   14.46    0.99   0
   5   1   8   14.46    0.87   0
  -6  -1  -8  192.11    4.20   0
   6   1   8  186.91    4.08   0
   7   1   8   17.43    1.48   0
  -7  -1  -8   15.08    1.61   0
  -8  -1  -8    6.43    1.73   0
   8   1   8    2.72    1.61   0
   9   1   8   94.94    3.96   0
  -9  -1  -8   94.57    3.58   0
  10   1   8    1.11    1.85   0
 -10  -1  -8    0.49    2.23   0
 -12  -2   8   57.48    4.20   0
  12   2  -8   57.73    3.09   0
 -11  -2   8   62.92    3.83   0
  11   2  -8   66.01    3.09   0
 -10  -2   8  348.48    6.68   0
  10   2  -8  329.08    6.55   0
  -9  -2   8   11.87    0.87   0
   9   2  -8   10.51    0.99   0
   8   2  -8  159.22    2.60   0
  -8  -2   8  162.56    3.83   0
   7   2  -8   56.49    1.36   0
  -7  -2   8   54.64    1.48   0
  -6  -2   8  283.09    4.20   0
   6   2  -8  283.34    3.96   0
  -5  -2   8    1.24    0.62   0
   5   2  -8    1.48    0.49   0
  -4  -2   8  920.10   13.60   0
   4   2  -8  930.61   12.49   0
  -3  -2   8 2034.04   29.79   0
   3   2  -8 2034.66   27.32   0
   2   2  -8  320.92    5.19   0
  -2  -2   8  323.27    5.07   0
  -1  -2   8    6.30    0.62   0
   1   2  -8    6.18    0.62   0
   0  -2  -8    8.53    0.87   0
   0   2   8    8.04    0.62   0
  -1  -2  -8  872.39   11.00   0
   1   2   8  882.28   11.87   0
  -2  -2  -8   24.60    0.87   0
   2   2   8   22.38    0.74   0
  -3  -2  -8  100.26    1.85   0
   3   2   8  102.98    1.73   0
  -4  -2  -8    2.10    0.74   0
   4   2   8    1.73    0.62   0
  -5  -2  -8   36.34    1.36   0
   5   2   8   33.50    1.11   0
  -6  -2  -8  461.60    8.53   0
   6   2   8  470.62    6.92   0
  -7  -2  -8  193.09    6.06   0
   7   2   8  212.13    4.20   0
  -8  -2  -8    0.62    2.23   0
   8   2   8   -1.61    2.10   0
  -9  -2  -8   11.37    2.60   0
   9   2   8    5.07    1.85   0
  10   2   8  123.37    4.82   0
 -10  -2  -8  116.70    5.69   0
  12   3  -8   26.95    2.60   0
 -12  -3   8   24.60    4.20   0
 -11  -3   8  185.06    7.42   0
  11   3  -8  183.08    5.93   0
 -10  -3   8    6.06    1.98   0
  10   3  -8    8.16    1.36   0
  -9  -3   8   30.53    2.35   0
   9   3  -8   33.38    1.61   0
   8   3  -8  141.30    2.60   0
  -8  -3   8  145.87    4.82   0
  -7  -3   8  559.13    8.78   0
   7   3  -8  558.02    7.29   0
  -6  -3   8  188.77    3.83   0
   6   3  -8  184.81    2.72   0
  -5  -3   8  208.79    4.08   0
   5   3  -8  214.73    3.83   0
   4   3  -8   31.40    0.87   0
  -4  -3   8   30.53    0.99   0
  -3  -3   8   19.90    0.99   0
   3   3  -8   22.00    0.62   0
  -2  -3   8   42.65    1.36   0
   2   3  -8   43.27    1.11   0
  -1  -3   8  724.54   10.01   0
   1   3  -8  718.11   10.88   0
   0   3   8   25.96    0.74   0
   0  -3  -8   24.48    0.99   0
   1   3   8  276.54    3.83   0
  -1  -3  -8  276.04    4.70   0
  -2  -3  -8  821.83   12.61   0
   2   3   8  826.40    9.64   0
  -3  -3  -8   28.93    1.11   0
   3   3   8   29.55    0.99   0
  -4  -3  -8   71.45    1.73   0
   4   3   8   69.85    1.36   0
  -5  -3  -8 1964.82   28.80   0
   5   3   8 1986.45   21.76   0
  -6  -3  -8  108.04    3.46   0
   6   3   8  117.44    2.47   0
   7   3   8   15.95    1.24   0
  -7  -3  -8   17.06    2.23   0
   8   3   8   53.40    2.47   0
  -8  -3  -8   58.23    3.58   0
  -9  -3  -8   77.63    3.96   0
   9   3   8   74.17    3.34   0
 -10  -3  -8   30.04    2.97   0
  10   3   8   36.59    3.09   0
  12   4  -8   88.39    7.42   0
 -12  -4   8   92.59    5.44   0
 -11  -4   8    5.32    2.47   0
  11   4  -8    5.93    2.23   0
 -10  -4   8    1.36    1.98   0
  10   4  -8   -1.11    2.10   0
  -9  -4   8   -1.98    2.23   0
   9   4  -8    0.74    1.11   0
  -8  -4   8   54.76    2.72   0
   8   4  -8   52.41    1.61   0
  -7  -4   8    7.79    1.48   0
   7   4  -8    7.79    0.99   0
  -6  -4   8    0.74    2.10   0
   6   4  -8    0.87    0.49   0
  -5  -4   8   72.44    3.34   0
   5   4  -8   70.34    1.48   0
  -4  -4   8    1.98    0.99   0
   4   4  -8    0.74    0.49   0
  -3  -4   8  101.99    2.72   0
   3   4  -8  100.75    1.73   0
  -2  -4   8  343.42    6.43   0
   2   4  -8  337.24    4.45   0
  -1  -4   8  418.95    6.80   0
   1   4  -8  416.85    5.44   0
   0   4   8  384.09    4.94   0
   0  -4  -8  389.77    6.55   0
  -1  -4  -8  474.95    7.42   0
   1   4   8  481.50    6.43   0
  -2  -4  -8  281.36    4.70   0
   2   4   8  288.16    3.83   0
  -3  -4  -8    6.92    1.11   0
   3   4   8    3.83    0.62   0
  -4  -4  -8    8.65    1.11   0
   4   4   8    9.52    0.74   0
  -5  -4  -8  162.07    4.57   0
   5   4   8  164.66    3.09   0
  -6  -4  -8  159.22    5.69   0
   6   4   8  157.86    3.21   0
   7   4   8    2.35    1.11   0
  -7  -4  -8    4.57    1.98   0
  -8  -4  -8   28.93    2.84   0
   8   4   8   22.75    2.23   0
  -9  -4  -8   42.40    3.58   0
   9   4   8   39.68    3.09   0
  11   5  -8   83.44    4.70   0
 -11  -5   8   82.95    9.64   0
 -10  -5   8   42.03    5.32   0
  10   5  -8   41.29    2.35   0
  -9  -5   8   19.04    4.08   0
   9   5  -8   14.46    1.73   0
  -8  -5   8   34.24    5.69   0
   8   5  -8   27.20    1.36   0
  -7  -5   8  863.61   29.17   0
   7   5  -8  894.02   11.62   0
  -6  -5   8   46.36    1.36   0
   6   5  -8   43.64    0.99   0
  -5  -5   8  273.45    8.04   0
   5   5  -8  303.36    4.08   0
  -4  -5   8  144.39    4.45   0
   4   5  -8  142.29    2.10   0
   3   5  -8   16.07    0.74   0
  -3  -5   8   15.70    1.24   0
  -2  -5   8  896.49   21.39   0
   2   5  -8  928.63   11.62   0
   1   5  -8 2385.99   28.56   0
  -1  -5   8 2334.93   33.25   0
   0  -5  -8  215.10    3.96   0
   0   5   8  209.66    2.97   0
  -1  -5  -8  769.29   13.35   0
   1   5   8  769.78    8.65   0
  -2  -5  -8  893.65   15.08   0
   2   5   8  908.98   10.14   0
  -3  -5  -8  135.86    3.21   0
   3   5   8  135.61    2.10   0
  -4  -5  -8  332.29    7.91   0
   4   5   8  334.52    5.07   0
  -5  -5  -8 1711.02   33.62   0
   5   5   8 1759.98   26.70   0
  -6  -5  -8   74.42    3.58   0
   6   5   8   74.30    2.23   0
  -7  -5  -8    6.18    2.23   0
   7   5   8    7.29    1.48   0
   8   5   8   50.07    3.21   0
  -8  -5  -8   52.91    3.58   0
   9   5   8   21.76    2.72   0
  -9  -5  -8   20.27    3.21   0
  11   6  -8    6.43    3.83   0
 -11  -6   8   15.58    6.30   0
 -10  -6   8    0.99    2.72   0
  10   6  -8    0.87    2.35   0
   9   6  -8   18.67    2.60   0
  -9  -6   8   17.31    4.20   0
   8   6  -8    9.40    1.61   0
  -8  -6   8    1.61    4.94   0
  -7  -6   8    6.06    3.58   0
   7   6  -8    1.85    1.11   0
   6   6  -8  209.54    3.58   0
  -6  -6   8  198.41    8.53   0
  -5  -6   8   34.86    4.08   0
   5   6  -8   38.20    0.99   0
  -4  -6   8   98.65    3.71   0
   4   6  -8   92.71    1.48   0
  -3  -6   8   67.25    2.60   0
   3   6  -8   70.34    1.36   0
  -2  -6   8  163.18    4.08   0
   2   6  -8  168.99    2.47   0
  -1  -6   8    0.74    0.87   0
   1   6  -8   -0.62    0.99   0
   0  -6  -8   52.04    1.73   0
   0   6   8   49.32    1.48   0
  -1  -6  -8  186.42    3.96   0
   1   6   8  179.62    2.60   0
  -2  -6  -8  276.66    5.44   0
   2   6   8  282.35    3.96   0
  -3  -6  -8   85.55    2.72   0
   3   6   8   93.46    2.23   0
  -4  -6  -8  125.97    3.71   0
   4   6   8  127.20    2.84   0
  -5  -6  -8  210.77    5.81   0
   5   6   8  219.05    4.20   0
  -6  -6  -8   80.85    3.96   0
   6   6   8   75.04    2.47   0
  -7  -6  -8   12.73    2.35   0
   7   6   8   11.00    1.61   0
  -8  -6  -8   83.94    4.33   0
   8   6   8   81.71    3.58   0
 -10  -7   8    6.92    3.83   0
  10   7  -8    6.55    2.35   0
  -9  -7   8   -1.11    5.81   0
   9   7  -8   -0.25    3.09   0
   8   7  -8   47.22    2.84   0
  -8  -7   8   51.18    7.05   0
  -7  -7   8   55.26    6.06   0
   7   7  -8   50.68    2.47   0
  -6  -7   8  133.88    8.16   0
   6   7  -8  124.61    3.71   0
  -5  -7   8  305.22   13.23   0
   5   7  -8  314.49    5.44   0
  -4  -7   8  334.27    8.04   0
   4   7  -8  352.32    5.93   0
   3   7  -8   27.32    1.24   0
  -3  -7   8   22.50    1.61   0
  -2  -7   8    2.72    1.36   0
   2   7  -8    0.37    1.11   0
  -1  -7   8  148.47    3.83   0
   1   7  -8  148.34    4.20   0
   0  -7  -8   56.00    1.85   0
   0   7   8   51.55    2.35   0
  -1  -7  -8  106.93    2.72   0
   1   7   8  101.74    2.72   0
  -2  -7  -8  652.71   11.87   0
   2   7   8  640.85   10.26   0
  -3  -7  -8   92.34    3.34   0
   3   7   8   96.18    2.35   0
  -4  -7  -8    1.36    1.48   0
   4   7   8    2.35    1.11   0
  -5  -7  -8   34.00    3.09   0
   5   7   8   29.05    1.98   0
  -6  -7  -8  188.40    6.55   0
   6   7   8  187.53    4.45   0
  -7  -7  -8   14.71    2.35   0
   7   7   8   17.43    1.98   0
   8   7   8   81.09    3.71   0
  -8  -7  -8   77.02    4.70   0
   9   8  -8    4.08    2.60   0
  -9  -8   8    8.65    6.68   0
   8   8  -8   39.31    3.21   0
  -8  -8   8   28.68    6.80   0
   7   8  -8    6.68    3.34   0
  -7  -8   8    4.57    5.93   0
  -6  -8   8  316.71   13.47   0
   6   8  -8  325.37    9.64   0
  -5  -8   8   -5.44    3.71   0
   5   8  -8    0.49    3.09   0
  -4  -8   8    0.25    2.10   0
   4   8  -8   -1.48    2.23   0
   3   8  -8  304.48    6.06   0
  -3  -8   8  273.20    6.80   0
  -2  -8   8  545.91   11.37   0
   2   8  -8  572.85   12.11   0
  -1  -8   8    7.42    1.48   0
   1   8  -8   10.75    1.85   0
   0  -8  -8  182.96    4.08   0
   0   8   8  180.49    4.94   0
  -1  -8  -8  283.34    5.81   0
   1   8   8  278.39    5.81   0
  -2  -8  -8    1.48    1.48   0
   2   8   8   -1.24    1.73   0
   3   8   8   33.01    1.61   0
  -3  -8  -8   26.83    2.35   0
  -4  -8  -8   46.85    3.21   0
   4   8   8   45.99    1.98   0
  -5  -8  -8   13.60    2.10   0
   5   8   8   13.97    1.61   0
  -6  -8  -8  358.13   12.61   0
   6   8   8  295.70    7.54   0
  -7  -8  -8   14.96    2.97   0
   7   8   8   11.13    3.34   0
   8   9  -8    4.33    2.72   0
  -8  -9   8   19.41    7.05   0
   7   9  -8    2.72    3.46   0
  -7  -9   8    4.08    4.45   0
  -6  -9   8   96.55    7.91   0
   6   9  -8   87.65    5.07   0
  -5  -9   8  254.90   11.62   0
   5   9  -8  272.71    8.90   0
  -4  -9   8   60.45    5.56   0
   4   9  -8   61.19    4.08   0
  -3  -9   8  116.57    6.55   0
   3   9  -8  114.60    5.19   0
  -2  -9   8  116.33    3.83   0
   2   9  -8  131.04    4.45   0
  -1  -9   8    1.36    1.85   0
   1   9  -8    0.62    1.61   0
   0  -9  -8   -0.25    1.48   0
   0   9   8    1.98    1.61   0
  -1  -9  -8   41.17    1.98   0
   1   9   8   38.45    2.23   0
  -2  -9  -8  101.49    4.08   0
   2   9   8  107.43    3.46   0
  -3  -9  -8    4.45    2.35   0
   3   9   8    4.20    1.73   0
  -4  -9  -8   70.59    4.08   0
   4   9   8   63.54    3.21   0
  -5  -9  -8  123.25    5.56   0
   5   9   8  106.56    4.20   0
  -6  -9  -8   70.83    4.45   0
   6   9   8   60.82    5.07   0
  -7 -10   8    8.41    5.32   0
   7  10  -8    6.43    3.96   0
  -6 -10   8  101.99    8.16   0
   6  10  -8  129.80    6.68   0
  -5 -10   8   -3.71    6.68   0
   5  10  -8    2.97    3.71   0
  -4 -10   8   11.74    4.45   0
   4  10  -8   10.01    3.71   0
  -3 -10   8   62.92    5.19   0
   3  10  -8   60.08    4.20   0
  -2 -10   8   52.29    5.32   0
   2  10  -8   61.19    4.70   0
   1  10  -8   10.88    4.08   0
  -1 -10   8    6.06    4.08   0
   0 -10  -8   28.93    4.20   0
   0  10   8   25.09    2.35   0
   1  10   8  105.82    5.56   0
  -1 -10  -8  104.46    7.91   0
  -2 -10  -8    2.72    3.46   0
   2  10   8    7.05    3.71   0
  -3 -10  -8   16.81    5.19   0
   3  10   8   16.57    3.71   0
  -4 -10  -8   26.70    4.82   0
   4  10   8   32.14    4.70   0
  -5 -11   8    0.99    4.94   0
   5  11  -8    1.36    3.58   0
  -4 -11   8   15.95    5.19   0
   4  11  -8   11.50    4.33   0
  -3 -11   8    6.43    4.70   0
   3  11  -8    8.41    3.71   0
  -2 -11   8   57.11    6.06   0
   2  11  -8   59.46    5.44   0
  -1 -11   8    3.34    4.20   0
   1  11  -8    7.54    7.54   0
   0 -11  -8   41.04    6.55   0
   0  11   8   45.24    6.92   0
  -1 -11  -8   15.58    3.96   0
   1  11   8   12.36    7.66   0
  -2 -11  -8   28.31    4.57   0
   2  11   8   16.32    3.58   0
 -12  -1   9   81.22    3.34   0
  12   1  -9   85.30    3.83   0
 -11  -1   9  238.71    5.93   0
  11   1  -9  229.19    5.93   0
  10   1  -9   28.80    1.36   0
 -10  -1   9   30.53    2.10   0
  -9  -1   9  184.07    3.21   0
   9   1  -9  181.10    3.21   0
  -8  -1   9   22.99    0.99   0
   8   1  -9   22.38    1.24   0
  -7  -1   9  144.26    2.47   0
   7   1  -9  141.05    2.47   0
  -6  -1   9  545.04    7.66   0
   6   1  -9  548.50    7.79   0
  -5  -1   9 1058.19   14.22   0
   5   1  -9 1070.18   14.34   0
  -4  -1   9 4007.27   56.00   0
   4   1  -9 4030.51   52.54   0
  -3  -1   9  171.96    2.72   0
   3   1  -9  170.10    3.09   0
   2   1  -9   22.87    1.24   0
  -2  -1   9   27.32    0.74   0
  -1  -1   9    3.34    0.37   0
   1   1  -9    2.35    0.62   0
   0  -1  -9  483.48    6.30   0
   0   1   9  484.71    6.80   0
  -1  -1  -9   -0.12    0.62   0
   1   1   9    0.00    0.62   0
  -2  -1  -9    4.33    0.62   0
   2   1   9    3.34    0.49   0
  -3  -1  -9   71.21    1.48   0
   3   1   9   72.56    1.36   0
   4   1   9 1429.91   16.69   0
  -4  -1  -9 1415.33   17.68   0
  -5  -1  -9 1130.13   18.91   0
   5   1   9 1129.76   17.06   0
  -6  -1  -9  426.49    7.91   0
   6   1   9  421.42    7.17   0
  -7  -1  -9  692.52   17.92   0
   7   1   9  692.77   12.86   0
  -8  -1  -9  410.42   12.24   0
   8   1   9  391.75    9.15   0
  -9  -1  -9  214.23    8.53   0
   9   1   9  236.86    7.42   0
 -10  -1  -9   18.67    2.84   0
  10   1   9   20.03    2.35   0
 -12  -2   9   26.83    4.20   0
  12   2  -9   22.99    2.72   0
 -11  -2   9   50.07    2.23   0
  11   2  -9   43.27    3.09   0
 -10  -2   9   32.51    1.36   0
  10   2  -9   33.38    1.98   0
   9   2  -9   71.08    1.98   0
  -9  -2   9   78.99    1.98   0
  -8  -2   9    1.36    0.74   0
   8   2  -9    0.87    0.74   0
  -7  -2   9  919.49   12.49   0
   7   2  -9  922.20   11.74   0
  -6  -2   9  121.27    2.10   0
   6   2  -9  123.25    2.47   0
  -5  -2   9   49.08    1.24   0
   5   2  -9   51.30    1.24   0
  -4  -2   9  134.87    2.47   0
   4   2  -9  134.13    2.47   0
  -3  -2   9   -0.25    0.62   0
   3   2  -9   -0.62    0.87   0
  -2  -2   9    1.36    0.62   0
   2   2  -9    0.25    0.62   0
  -1  -2   9  167.63    2.84   0
   1   2  -9  166.89    2.72   0
   0  -2  -9  167.88    2.47   0
   0   2   9  166.39    2.97   0
  -1  -2  -9   37.70    0.99   0
   1   2   9   36.84    0.87   0
  -2  -2  -9  138.33    2.35   0
   2   2   9  138.45    2.10   0
  -3  -2  -9   33.01    1.24   0
   3   2   9   31.52    0.87   0
  -4  -2  -9  682.01    9.77   0
   4   2   9  687.08    8.41   0
  -5  -2  -9   10.26    1.48   0
   5   2   9    9.77    0.99   0
  -6  -2  -9   59.21    2.10   0
   6   2   9   55.26    1.61   0
   7   2   9    3.83    0.99   0
  -7  -2  -9    1.24    1.73   0
   8   2   9    2.35    1.73   0
  -8  -2  -9    0.99    2.60   0
   9   2   9  262.94    8.04   0
  -9  -2  -9  260.71    9.64   0
 -12  -3   9    8.28    3.46   0
  12   3  -9    5.07    2.97   0
 -11  -3   9   31.15    3.96   0
  11   3  -9   42.90    3.09   0
  10   3  -9   80.11    2.72   0
 -10  -3   9   81.59    3.71   0
   9   3  -9    0.74    1.11   0
  -9  -3   9   -1.11    2.72   0
  -8  -3   9  262.82    4.94   0
   8   3  -9  255.65    3.83   0
  -7  -3   9    1.36    0.62   0
   7   3  -9    0.37    0.87   0
  -6  -3   9   56.12    1.73   0
   6   3  -9   56.87    1.36   0
  -5  -3   9  373.21    6.18   0
   5   3  -9  378.28    5.69   0
   4   3  -9  214.23    3.21   0
  -4  -3   9  215.84    4.45   0
  -3  -3   9  736.28   11.25   0
   3   3  -9  736.40   10.01   0
  -2  -3   9 3350.60   47.22   0
   2   3  -9 3335.27   44.13   0
  -1  -3   9 1208.01   16.19   0
   1   3  -9 1216.54   17.80   0
   0   3   9  278.14    4.33   0
   0  -3  -9  274.68    4.70   0
  -1  -3  -9   99.14    2.23   0
   1   3   9  100.50    1.73   0
  -2  -3  -9   50.93    1.61   0
   2   3   9   51.30    1.11   0
  -3  -3  -9  153.78    2.84   0
   3   3   9  149.58    2.23   0
  -4  -3  -9 1411.49   19.04   0
   4   3   9 1427.44   16.69   0
  -5  -3  -9 1420.27   23.49   0
   5   3   9 1394.43   19.28   0
  -6  -3  -9  737.27   13.47   0
   6   3   9  722.06   11.62   0
  -7  -3  -9   33.87    2.84   0
   7   3   9   36.72    1.73   0
   8   3   9    0.25    1.98   0
  -8  -3  -9   -0.74    2.72   0
   9   3   9   10.14    2.72   0
  -9  -3  -9    5.56    2.72   0
 -11  -4   9   13.60    2.60   0
  11   4  -9   19.04    2.72   0
  10   4  -9  192.11    5.44   0
 -10  -4   9  184.19    6.06   0
   9   4  -9  208.30    3.83   0
  -9  -4   9  222.15    6.92   0
   8   4  -9  133.14    2.60   0
  -8  -4   9  128.56    4.57   0
  -7  -4   9  645.79   11.13   0
   7   4  -9  649.87    7.91   0
  -6  -4   9  215.22    4.57   0
   6   4  -9  220.41    3.71   0
  -5  -4   9  295.33    6.92   0
   5   4  -9  295.08    4.33   0
   4   4  -9  102.11    1.98   0
  -4  -4   9   98.90    2.84   0
  -3  -4   9  237.84    5.07   0
   3   4  -9  234.51    3.34   0
  -2  -4   9   33.25    1.48   0
   2   4  -9   33.25    1.24   0
  -1  -4   9    1.61    0.87   0
   1   4  -9   -0.74    0.87   0
   0   4   9 2343.22   28.31   0
   0  -4  -9 2352.61   34.24   0
  -1  -4  -9   32.64    1.36   0
   1   4   9   33.38    0.99   0
  -2  -4  -9  452.94    8.04   0
   2   4   9  454.30    5.93   0
  -3  -4  -9  244.77    4.45   0
   3   4   9  248.48    3.21   0
  -4  -4  -9  901.81   15.82   0
   4   4   9  917.75   11.00   0
  -5  -4  -9    6.55    1.73   0
   5   4   9    2.84    1.11   0
  -6  -4  -9  103.59    4.20   0
   6   4   9  103.47    2.60   0
  -7  -4  -9   11.00    2.35   0
   7   4   9    5.07    1.36   0
  -8  -4  -9   45.86    3.46   0
   8   4   9   35.73    2.47   0
  -9  -4  -9  461.47   15.70   0
   9   4   9  461.72   12.49   0
  11   5  -9    3.96    2.60   0
 -11  -5   9    1.11    5.44   0
 -10  -5   9   43.64    6.30   0
  10   5  -9   47.22    2.60   0
   9   5  -9   66.38    2.47   0
  -9  -5   9   67.99    5.56   0
   8   5  -9   51.92    1.73   0
  -8  -5   9   53.90    5.56   0
  -7  -5   9   14.59    4.70   0
   7   5  -9   13.47    1.11   0
  -6  -5   9  131.90    4.08   0
   6   5  -9  134.99    2.23   0
  -5  -5   9  175.54    5.44   0
   5   5  -9  187.78    2.84   0
  -4  -5   9  128.56    3.58   0
   4   5  -9  127.70    2.10   0
  -3  -5   9 1042.73   17.80   0
   3   5  -9 1052.62   14.46   0
  -2  -5   9   18.79    1.48   0
   2   5  -9   21.63    0.74   0
  -1  -5   9   37.70    1.36   0
   1   5  -9   31.77    0.87   0
   0   5   9    3.96    0.74   0
   0  -5  -9    6.55    0.87   0
  -1  -5  -9    5.93    1.11   0
   1   5   9    1.98    0.62   0
  -2  -5  -9    0.62    1.11   0
   2   5   9    2.84    0.62   0
  -3  -5  -9  146.61    3.46   0
   3   5   9  149.58    2.60   0
  -4  -5  -9   97.04    3.46   0
   4   5   9   98.90    2.23   0
  -5  -5  -9   19.78    2.10   0
   5   5   9   18.30    1.24   0
  -6  -5  -9    1.24    2.23   0
   6   5   9   -0.62    1.85   0
  -7  -5  -9    7.79    2.35   0
   7   5   9    6.80    1.48   0
  -8  -5  -9  185.31    7.66   0
   8   5   9  178.14    5.81   0
  11   6  -9    1.61    2.72   0
 -11  -6   9   13.97    8.41   0
  10   6  -9   30.53    3.09   0
 -10  -6   9   29.55    4.94   0
   9   6  -9  405.23    9.52   0
  -9  -6   9  443.80   18.67   0
  -8  -6   9  173.81    8.65   0
   8   6  -9  169.98    4.08   0
  -7  -6   9  482.98   17.43   0
   7   6  -9  477.54    7.29   0
  -6  -6   9  142.90    4.57   0
   6   6  -9  141.92    2.47   0
  -5  -6   9    5.44    1.24   0
   5   6  -9    5.19    0.62   0
  -4  -6   9   49.32    2.10   0
   4   6  -9   53.90    1.24   0
   3   6  -9  157.62    2.60   0
  -3  -6   9  144.64    3.83   0
  -2  -6   9   46.98    2.35   0
   2   6  -9   47.47    1.24   0
  -1  -6   9  766.69   13.10   0
   1   6  -9  750.99    9.77   0
   0  -6  -9 2519.62   41.54   0
   0   6   9 2504.05   28.68   0
  -1  -6  -9   87.77    2.60   0
   1   6   9   86.53    2.23   0
  -2  -6  -9  246.00    5.07   0
   2   6   9  245.01    4.08   0
  -3  -6  -9  327.10    7.29   0
   3   6   9  330.56    5.32   0
  -4  -6  -9  271.35    6.55   0
   4   6   9  275.55    4.82   0
  -5  -6  -9   16.69    2.47   0
   5   6   9   18.54    1.48   0
  -6  -6  -9  146.49    5.32   0
   6   6   9  146.12    3.71   0
  -7  -6  -9   34.61    3.21   0
   7   6   9   36.22    2.35   0
  -8  -6  -9   29.42    2.97   0
   8   6   9   22.75    2.47   0
 -10  -7   9   -0.49    6.18   0
  10   7  -9   -4.57    3.34   0
  -9  -7   9    5.69    5.93   0
   9   7  -9    7.42    2.47   0
  -8  -7   9    1.98    4.08   0
   8   7  -9    3.46    2.23   0
   7   7  -9   25.22    3.46   0
  -7  -7   9   29.30    4.94   0
  -6  -7   9  195.44    5.93   0
   6   7  -9  170.10    6.18   0
  -5  -7   9   18.17    1.98   0
   5   7  -9   21.76    1.36   0
  -4  -7   9   38.45    1.98   0
   4   7  -9   38.20    1.36   0
  -3  -7   9   44.01    2.47   0
   3   7  -9   45.86    1.48   0
  -2  -7   9  193.59    5.19   0
   2   7  -9  198.16    4.20   0
  -1  -7   9  231.05    4.57   0
   1   7  -9  229.56    4.82   0
   0  -7  -9    7.42    1.24   0
   0   7   9    6.18    0.99   0
   1   7   9   91.11    2.47   0
  -1  -7  -9   88.51    2.60   0
  -2  -7  -9   -1.36    0.99   0
   2   7   9    0.74    0.99   0
  -3  -7  -9   51.18    2.47   0
   3   7   9   52.91    1.85   0
  -4  -7  -9  226.47    7.05   0
   4   7   9  218.93    4.33   0
  -5  -7  -9   15.08    2.47   0
   5   7   9   12.24    1.48   0
   6   7   9   17.31    1.85   0
  -6  -7  -9   21.76    3.34   0
  -7  -7  -9  165.77    6.68   0
   7   7   9  147.48    4.94   0
   9   8  -9   40.92    3.21   0
  -9  -8   9   47.22    6.30   0
   8   8  -9    6.80    2.60   0
  -8  -8   9    0.87    5.93   0
  -7  -8   9  261.58   12.49   0
   7   8  -9  276.41    9.02   0
   6   8  -9   67.99    5.19   0
  -6  -8   9   52.91    6.80   0
  -5  -8   9   16.69    1.98   0
   5   8  -9   13.85    2.84   0
  -4  -8   9   13.23    2.23   0
   4   8  -9   13.35    3.09   0
  -3  -8   9   20.64    1.85   0
   3   8  -9   23.24    2.23   0
  -2  -8   9    8.28    1.85   0
   2   8  -9   10.88    1.61   0
  -1  -8   9   98.77    3.46   0
   1   8  -9  109.65    3.96   0
   0  -8  -9  581.14   10.88   0
   0   8   9  580.52   12.24   0
  -1  -8  -9    4.20    1.11   0
   1   8   9    4.20    1.24   0
  -2  -8  -9    1.73    1.48   0
   2   8   9    2.23    1.24   0
  -3  -8  -9  100.63    3.46   0
   3   8   9  103.96    2.84   0
  -4  -8  -9    4.57    2.23   0
   4   8   9    2.47    1.36   0
  -5  -8  -9    4.20    2.47   0
   5   8   9   -0.49    2.47   0
  -6  -8  -9   17.31    2.47   0
   6   8   9   12.24    2.60   0
   8   9  -9   16.07    2.97   0
  -8  -9   9   23.98    7.42   0
  -7  -9   9   -4.82    4.70   0
   7   9  -9    4.45    3.21   0
  -6  -9   9  162.81    9.77   0
   6   9  -9  147.48    6.55   0
  -5  -9   9   64.04    7.17   0
   5   9  -9   56.99    5.07   0
  -4  -9   9    8.28    4.20   0
   4   9  -9    1.73    2.84   0
  -3  -9   9   57.61    6.18   0
   3   9  -9   44.63    4.08   0
  -2  -9   9  136.11    7.66   0
   2   9  -9  133.02    5.93   0
  -1  -9   9   70.22    3.09   0
   1   9  -9   79.61    3.34   0
   0  -9  -9   13.72    1.11   0
   0   9   9   13.10    2.10   0
  -1  -9  -9  107.05    4.08   0
   1   9   9  109.28    3.34   0
  -2  -9  -9   40.42    2.84   0
   2   9   9   33.75    3.34   0
  -3  -9  -9    3.34    2.23   0
   3   9   9    8.53    2.72   0
  -4  -9  -9   83.81    4.57   0
   4   9   9   76.40    4.94   0
  -5  -9  -9  105.32    4.94   0
   5   9   9  114.84    6.30   0
  -6 -10   9   47.47    8.65   0
   6  10  -9   44.01    5.07   0
  -5 -10   9   15.70    4.94   0
   5  10  -9   -4.20    3.09   0
  -4 -10   9    0.49    4.57   0
   4  10  -9    1.11    3.09   0
  -3 -10   9    0.62    5.69   0
   3  10  -9    0.12    3.58   0
  -2 -10   9  153.78   11.13   0
   2  10  -9  148.22    7.29   0
  -1 -10   9   57.11    6.80   0
   1  10  -9   40.05    4.45   0
   0 -10  -9    1.61    5.44   0
   0  10   9    1.36    2.35   0
  -1 -10  -9    3.09    3.46   0
   1  10   9    2.47    3.34   0
  -2 -10  -9   -8.04    4.94   0
   2  10   9   -1.85    2.23   0
  -3 -10  -9   -2.35    4.82   0
   3  10   9    3.71    3.21   0
  -4 -10  -9   95.43    7.42   0
   4  10   9   74.30    4.82   0
  -4 -11   9    9.02    5.32   0
   4  11  -9   12.49    3.96   0
  -3 -11   9   39.81    5.69   0
   3  11  -9   35.97    4.94   0
  -2 -11   9  260.22   14.71   0
   2  11  -9  246.75   10.63   0
  -1 -11   9   70.83    6.30   0
   1  11  -9   65.89    7.54   0
   0 -11  -9   53.65    6.18   0
   0  11   9   59.71    9.27   0
   1  11   9  163.55   11.99   0
  -1 -11  -9  157.74    9.64   0
  -2 -11  -9   13.47    5.81   0
   2  11   9    5.44    5.93   0
  12   0 -10    8.90    2.10   0
  11   0 -10  127.33    3.96   0
  10   0 -10   59.34    2.10   0
   9   0 -10  174.06    3.09   0
   8   0 -10 1562.56   21.26   0
   7   0 -10 1032.23   14.46   0
   6   0 -10  254.66    3.96   0
   5   0 -10  529.22    7.54   0
   4   0 -10 2260.89   29.79   0
   3   0 -10  281.36    4.82   0
   2   0 -10  213.37    3.71   0
   1   0 -10 1307.03   19.53   0
   0   0  10    3.46    0.49   0
   1   0  10  162.07    2.60   0
   2   0  10  136.97    2.23   0
   3   0  10   13.85    0.87   0
   4   0  10 2122.18   26.33   0
   5   0  10  387.92    6.55   0
   6   0  10    3.09    1.85   0
   7   0  10  178.01    4.94   0
   8   0  10   69.60    2.84   0
   9   0  10  228.82    8.78   0
 -12  -1  10   11.99    1.85   0
  12   1 -10   11.50    1.98   0
 -11  -1  10    3.83    1.61   0
  11   1 -10    2.35    2.10   0
 -10  -1  10   37.70    1.98   0
  10   1 -10   38.20    2.35   0
  -9  -1  10  214.73    3.58   0
   9   1 -10  211.64    4.08   0
  -8  -1  10   61.93    1.48   0
   8   1 -10   61.81    1.61   0
  -7  -1  10    7.17    0.87   0
   7   1 -10    7.66    0.87   0
  -6  -1  10  175.29    2.97   0
   6   1 -10  180.24    2.97   0
  -5  -1  10   69.97    1.61   0
   5   1 -10   70.96    1.48   0
  -4  -1  10  306.21    4.57   0
   4   1 -10  303.36    4.57   0
  -3  -1  10  147.73    2.47   0
   3   1 -10  148.22    2.84   0
  -2  -1  10  347.87    5.32   0
   2   1 -10  347.37    5.69   0
  -1  -1  10   26.08    0.74   0
   1   1 -10   28.68    0.99   0
   0  -1 -10   -0.37    0.49   0
   0   1  10    0.00    0.49   0
  -1  -1 -10   11.25    0.62   0
   1   1  10   12.11    0.62   0
  -2  -1 -10    3.34    0.62   0
   2   1  10    3.83    0.74   0
  -3  -1 -10   77.63    1.73   0
   3   1  10   77.51    1.73   0
  -4  -1 -10   12.61    0.99   0
   4   1  10   12.11    0.87   0
  -5  -1 -10   54.27    1.85   0
   5   1  10   53.03    1.61   0
  -6  -1 -10    7.91    1.48   0
   6   1  10    5.44    1.11   0
  -7  -1 -10  181.60    6.43   0
   7   1  10  177.89    4.45   0
  -8  -1 -10    1.24    2.47   0
   8   1  10    0.87    1.73   0
   9   1  10   19.28    2.35   0
  -9  -1 -10   19.53    2.84   0
 -12  -2  10    4.94    2.72   0
  12   2 -10   11.50    2.72   0
 -11  -2  10   72.07    2.97   0
  11   2 -10   72.19    3.46   0
  10   2 -10  424.76    8.28   0
 -10  -2  10  441.08   11.62   0
  -9  -2  10   84.31    2.23   0
   9   2 -10   86.16    2.47   0
  -8  -2  10  175.17    2.97   0
   8   2 -10  173.44    2.84   0
   7   2 -10  310.53    4.82   0
  -7  -2  10  323.51    4.82   0
  -6  -2  10  168.25    2.84   0
   6   2 -10  173.07    2.97   0
  -5  -2  10  213.37    3.71   0
   5   2 -10  208.30    4.33   0
  -4  -2  10 2056.17   27.07   0
   4   2 -10 2037.38   29.79   0
  -3  -2  10   32.14    0.87   0
   3   2 -10   30.04    1.24   0
  -2  -2  10  403.62    5.93   0
   2   2 -10  413.76    7.54   0
  -1  -2  10  412.64    6.06   0
   1   2 -10  402.38    5.93   0
   0  -2 -10   48.21    1.11   0
   0   2  10   44.13    1.24   0
  -1  -2 -10   15.45    0.74   0
   1   2  10   17.43    0.99   0
  -2  -2 -10    5.44    0.62   0
   2   2  10    4.94    0.49   0
  -3  -2 -10 1126.05   14.22   0
   3   2  10 1139.16   13.60   0
  -4  -2 -10  731.95   11.13   0
   4   2  10  738.51    9.77   0
  -5  -2 -10  370.12    6.92   0
   5   2  10  364.18    6.06   0
  -6  -2 -10   27.69    2.60   0
   6   2  10   31.65    1.36   0
  -7  -2 -10   13.23    2.10   0
   7   2  10   14.96    1.48   0
   8   2  10   81.71    3.34   0
  -8  -2 -10   77.88    4.33   0
  -9  -2 -10  117.69    5.56   0
   9   2  10  118.92    4.45   0
  12   3 -10  156.75    5.93   0
 -12  -3  10  158.11    7.05   0
 -11  -3  10    3.34    3.71   0
  11   3 -10    1.36    2.10   0
 -10  -3  10   63.66    3.34   0
  10   3 -10   65.15    2.72   0
  -9  -3  10  493.86    8.65   0
   9   3 -10  457.27    7.66   0
  -8  -3  10  276.91    4.82   0
   8   3 -10  269.24    4.82   0
  -7  -3  10  357.63    6.55   0
   7   3 -10  358.00    5.07   0
  -6  -3  10   42.77    1.24   0
   6   3 -10   42.15    1.36   0
  -5  -3  10  154.03    3.09   0
   5   3 -10  151.43    2.47   0
  -4  -3  10  121.52    2.72   0
   4   3 -10  130.17    2.47   0
  -3  -3  10  521.92    8.28   0
   3   3 -10  509.56    7.42   0
  -2  -3  10  148.10    2.72   0
   2   3 -10  146.12    2.72   0
  -1  -3  10  197.17    3.34   0
   1   3 -10  194.08    3.21   0
   0  -3 -10  436.63    6.55   0
   0   3  10  437.99    6.43   0
  -1  -3 -10   -0.49    0.74   0
   1   3  10   -2.23    0.87   0
  -2  -3 -10   67.25    1.85   0
   2   3  10   65.15    1.36   0
  -3  -3 -10 1125.31   15.33   0
   3   3  10 1126.18   13.35   0
  -4  -3 -10   45.74    1.73   0
   4   3  10   47.35    1.48   0
  -5  -3 -10   -4.33    1.61   0
   5   3  10   -0.87    1.48   0
  -6  -3 -10   49.45    2.72   0
   6   3  10   46.98    1.73   0
  -7  -3 -10  191.49    6.30   0
   7   3  10  202.61    4.70   0
  -8  -3 -10   13.60    2.60   0
   8   3  10    9.77    1.85   0
  -9  -3 -10  143.77    6.43   0
   9   3  10  133.14    4.94   0
 -11  -4  10   63.42    4.94   0
  11   4 -10   66.26    3.34   0
 -10  -4  10  190.75    6.55   0
  10   4 -10  194.83    4.57   0
  -9  -4  10   13.97    1.85   0
   9   4 -10    9.02    1.24   0
  -8  -4  10   43.14    2.47   0
   8   4 -10   43.64    1.61   0
  -7  -4  10    2.35    0.62   0
   7   4 -10    1.36    0.74   0
  -6  -4  10   70.96    3.58   0
   6   4 -10   82.21    1.73   0
  -5  -4  10   22.50    1.48   0
   5   4 -10   20.77    0.87   0
  -4  -4  10  458.26    8.65   0
   4   4 -10  460.73    6.55   0
  -3  -4  10    5.56    1.11   0
   3   4 -10    0.37    0.74   0
  -2  -4  10  208.67    4.20   0
   2   4 -10  204.47    3.46   0
  -1  -4  10  389.65    6.18   0
   1   4 -10  380.50    5.93   0
   0  -4 -10   38.32    1.48   0
   0   4  10   41.29    0.99   0
  -1  -4 -10   -0.62    1.24   0
   1   4  10   -1.36    0.62   0
  -2  -4 -10  826.03   12.61   0
   2   4  10  826.03   10.51   0
  -3  -4 -10 1097.25   16.69   0
   3   4  10 1107.02   15.21   0
  -4  -4 -10   39.06    2.23   0
   4   4  10   34.49    1.48   0
  -5  -4 -10    4.45    1.48   0
   5   4  10    1.61    1.11   0
  -6  -4 -10   33.87    2.84   0
   6   4  10   30.41    1.61   0
  -7  -4 -10   66.88    4.08   0
   7   4  10   73.31    2.47   0
   8   4  10    7.91    2.47   0
  -8  -4 -10    9.02    2.97   0
   9   4  10   51.30    3.58   0
  -9  -4 -10   51.18    4.33   0
  11   5 -10   72.44    4.82   0
 -10  -5  10    0.87    3.46   0
  10   5 -10    0.25    1.73   0
  -9  -5  10  529.09   20.52   0
   9   5 -10  510.06    9.64   0
   8   5 -10  364.80    5.93   0
  -8  -5  10  354.17   14.09   0
  -7  -5  10   69.72    1.85   0
   7   5 -10   63.17    1.73   0
  -6  -5  10   57.98    5.44   0
   6   5 -10   67.50    1.48   0
  -5  -5  10    1.48    1.48   0
   5   5 -10   -0.62    1.11   0
  -4  -5  10   28.80    1.85   0
   4   5 -10   28.56    0.99   0
  -3  -5  10 1732.16   29.17   0
   3   5 -10 1712.63   20.89   0
  -2  -5  10  547.14    9.77   0
   2   5 -10  533.54    7.66   0
  -1  -5  10  128.19    2.72   0
   1   5 -10  117.69    2.35   0
   0  -5 -10 1088.72   16.81   0
   0   5  10 1068.20   13.60   0
   1   5  10  187.78    2.72   0
  -1  -5 -10  191.49    3.71   0
  -2  -5 -10  161.20    3.34   0
   2   5  10  162.44    2.97   0
  -3  -5 -10 1686.30   28.31   0
   3   5  10 1667.14   22.62   0
  -4  -5 -10  195.94    6.30   0
   4   5  10  187.53    4.08   0
  -5  -5 -10    2.47    2.23   0
   5   5  10    3.09    1.48   0
  -6  -5 -10   16.07    5.44   0
   6   5  10   21.14    1.73   0
  -7  -5 -10  148.47    9.27   0
   7   5  10  155.88    4.57   0
  -8  -5 -10   30.53    3.46   0
   8   5  10   40.18    2.84   0
  10   6 -10   39.06    2.97   0
 -10  -6  10   35.73    6.80   0
  -9  -6  10   47.72    5.32   0
   9   6 -10   56.99    3.09   0
   8   6 -10   54.64    3.21   0
  -8  -6  10   62.18    5.69   0
  -7  -6  10   -0.74    4.82   0
   7   6 -10    4.94    1.48   0
  -6  -6  10   16.32    1.61   0
   6   6 -10    9.89    0.99   0
  -5  -6  10    4.45    3.21   0
   5   6 -10    3.83    0.62   0
  -4  -6  10  498.56   10.63   0
   4   6 -10  510.55    6.92   0
  -3  -6  10    0.99    1.24   0
   3   6 -10    2.60    0.62   0
  -2  -6  10  256.76    6.06   0
   2   6 -10  275.67    4.45   0
  -1  -6  10  106.56    2.72   0
   1   6 -10  107.67    2.35   0
   0  -6 -10   94.94    2.72   0
   0   6  10   99.14    2.23   0
  -1  -6 -10   17.68    1.36   0
   1   6  10   17.80    1.11   0
  -2  -6 -10   24.72    1.61   0
   2   6  10   22.13    1.24   0
  -3  -6 -10  132.89    4.33   0
   3   6  10  127.45    2.72   0
  -4  -6 -10    4.20    2.60   0
   4   6  10    3.96    1.24   0
  -5  -6 -10  130.17    4.94   0
   5   6  10  131.28    3.96   0
  -6  -6 -10   78.50    3.96   0
   6   6  10   94.20    2.84   0
  -7  -6 -10    4.33    2.47   0
   7   6  10    3.96    1.85   0
  -8  -6 -10   16.19    3.34   0
   8   6  10    5.69    1.98   0
 -10  -7  10   -1.85    6.43   0
  10   7 -10    5.69    2.60   0
   9   7 -10  185.18    6.55   0
  -9  -7  10  189.88   11.50   0
  -8  -7  10    0.00    3.96   0
   8   7 -10    2.23    2.35   0
  -7  -7  10   70.59    5.69   0
   7   7 -10   69.35    3.96   0
  -6  -7  10   90.61    3.58   0
   6   7 -10   88.39    4.45   0
  -5  -7  10   12.98    1.98   0
   5   7 -10   10.26    1.85   0
  -4  -7  10    4.70    1.98   0
   4   7 -10    5.44    0.99   0
  -3  -7  10  568.65   11.87   0
   3   7 -10  592.02    9.27   0
  -2  -7  10    0.49    1.61   0
   2   7 -10    1.24    0.62   0
  -1  -7  10   66.75    2.23   0
   1   7 -10   66.14    1.85   0
   0  -7 -10  497.94    9.27   0
   0   7  10  516.48    8.28   0
  -1  -7 -10   55.01    2.23   0
   1   7  10   63.79    1.98   0
  -2  -7 -10   25.47    1.85   0
   2   7  10   33.13    1.48   0
   3   7  10  157.99    3.34   0
  -3  -7 -10  151.81    5.32   0
  -4  -7 -10  149.09    5.19   0
   4   7  10  152.92    3.83   0
  -5  -7 -10    2.97    2.35   0
   5   7  10   -3.34    2.23   0
  -6  -7 -10   46.23    3.58   0
   6   7  10   35.60    2.10   0
  -7  -7 -10  228.82    8.53   0
   7   7  10  224.49    8.41   0
  -9  -8  10   63.54    6.55   0
   9   8 -10   75.28    4.82   0
  -8  -8  10  133.02    9.02   0
   8   8 -10  151.06    5.56   0
  -7  -8  10   53.16    6.18   0
   7   8 -10   48.09    4.08   0
  -6  -8  10   30.16    6.06   0
   6   8 -10   18.79    3.71   0
  -5  -8  10  136.85    8.65   0
   5   8 -10  134.50    6.30   0
  -4  -8  10  202.74    6.92   0
   4   8 -10  221.53    7.91   0
  -3  -8  10    3.58    1.98   0
   3   8 -10    1.36    1.85   0
  -2  -8  10   32.51    3.21   0
   2   8 -10   32.14    2.23   0
  -1  -8  10  167.75    4.57   0
   1   8 -10  181.35    5.19   0
   0  -8 -10  217.94    4.94   0
   0   8  10  218.56    4.82   0
  -1  -8 -10  258.37    6.18   0
   1   8  10  255.40    5.44   0
  -2  -8 -10   73.43    3.09   0
   2   8  10   62.80    2.23   0
  -3  -8 -10    0.00    1.73   0
   3   8  10   -2.35    1.36   0
  -4  -8 -10   57.24    3.21   0
   4   8  10   48.21    2.72   0
  -5  -8 -10   13.60    2.84   0
   5   8  10   13.35    2.10   0
  -6  -8 -10    3.21    2.84   0
   6   8  10   10.01    3.58   0
  -8  -9  10    1.61    7.05   0
   8   9 -10    4.57    3.46   0
   7   9 -10  191.86    9.15   0
  -7  -9  10  202.49   12.73   0
  -6  -9  10  172.82   10.51   0
   6   9 -10  171.96    7.91   0
  -5  -9  10   69.85    7.42   0
   5   9 -10   63.91    4.94   0
  -4  -9  10    3.21    4.08   0
   4   9 -10    9.89    3.58   0
  -3  -9  10   18.30    5.69   0
   3   9 -10   13.60    4.20   0
  -2  -9  10   14.09    3.83   0
   2   9 -10   18.42    3.46   0
  -1  -9  10   27.69    3.83   0
   1   9 -10   34.12    2.47   0
   0  -9 -10   42.15    2.35   0
   0   9  10   50.44    3.09   0
  -1  -9 -10    3.46    1.48   0
   1   9  10   -2.84    1.73   0
  -2  -9 -10   11.37    1.85   0
   2   9  10    3.09    3.58   0
  -3  -9 -10   87.65    4.20   0
   3   9  10   84.19    5.44   0
   4   9  10    1.36    3.96   0
  -4  -9 -10   -0.74    2.97   0
  -5  -9 -10   29.92    3.46   0
   5   9  10   27.07    3.71   0
  -6 -10  10   -2.84    6.80   0
   6  10 -10    4.70    4.20   0
  -5 -10  10   28.19    5.69   0
   5  10 -10   33.62    4.45   0
  -4 -10  10  167.63   10.38   0
   4  10 -10  164.29    8.04   0
  -3 -10  10    2.10    6.06   0
   3  10 -10    3.09    4.08   0
  -2 -10  10   29.17    6.80   0
   2  10 -10   39.06    4.45   0
  -1 -10  10  105.70    8.65   0
   1  10 -10   93.70    6.18   0
   0 -10 -10  107.05    8.65   0
   0  10  10   91.73    5.93   0
  -1 -10 -10   50.31    5.44   0
   1  10  10   49.20    3.83   0
  -2 -10 -10   56.00    6.68   0
   2  10  10   68.98    4.82   0
  -3 -10 -10   72.94    6.30   0
   3  10  10   72.69    5.19   0
  -3 -11  10   13.60    6.80   0
   3  11 -10   11.87    4.57   0
  -2 -11  10   69.72    7.17   0
   2  11 -10   69.35    5.93   0
  -1 -11  10  121.64    8.65   0
   1  11 -10  129.18   11.87   0
   0 -11 -10    3.58    4.45   0
   0  11  10    5.69    6.43   0
  -1 -11 -10   59.34    7.29   0
   1  11  10   45.62    7.29   0
 -12  -1  11  280.37    8.16   0
  12   1 -11  249.22    7.42   0
  11   1 -11   27.32    2.47   0
 -11  -1  11   27.57    2.35   0
  10   1 -11  297.06    6.92   0
 -10  -1  11  309.67    6.92   0
   9   1 -11   17.92    1.36   0
  -9  -1  11    9.89    1.11   0
   8   1 -11  600.55    8.78   0
  -8  -1  11  585.09    8.41   0
  -7  -1  11  369.38    5.56   0
   7   1 -11  374.44    5.81   0
  -6  -1  11  529.71    7.66   0
   6   1 -11  526.50    7.79   0
  -5  -1  11    4.57    0.74   0
   5   1 -11    3.09    0.87   0
  -4  -1  11  630.46    8.78   0
   4   1 -11  639.12   11.00   0
  -3  -1  11 1505.81   21.88   0
   3   1 -11 1505.20   21.88   0
  -2  -1  11   67.74    1.61   0
   2   1 -11   67.74    1.73   0
  -1  -1  11   62.06    1.24   0
   1   1 -11   63.91    1.48   0
   0  -1 -11  496.58    6.55   0
   0   1  11  498.44    7.17   0
  -1  -1 -11    6.92    0.74   0
   1   1  11    7.29    0.87   0
  -2  -1 -11  174.92    2.84   0
   2   1  11  175.91    2.84   0
  -3  -1 -11  425.87    5.81   0
   3   1  11  429.95    6.06   0
  -4  -1 -11  309.67    5.19   0
   4   1  11  302.37    5.93   0
  -5  -1 -11  331.55    6.43   0
   5   1  11  336.49    5.56   0
  -6  -1 -11  509.93   13.47   0
   6   1  11  539.48   10.01   0
  -7  -1 -11   99.02    4.57   0
   7   1  11  101.00    3.58   0
   8   1  11   16.07    2.23   0
  -8  -1 -11   15.95    2.97   0
   9   1  11    4.82    1.73   0
  -9  -1 -11    7.29    2.47   0
 -12  -2  11  153.54    6.68   0
  12   2 -11  163.80    5.81   0
 -11  -2  11    0.87    1.24   0
  11   2 -11    1.11    1.98   0
  10   2 -11    2.72    2.10   0
 -10  -2  11    6.55    1.36   0
   9   2 -11  274.81    5.07   0
  -9  -2  11  268.50    4.57   0
  -8  -2  11  230.06    3.71   0
   8   2 -11  230.18    3.83   0
  -7  -2  11   15.82    0.99   0
   7   2 -11   16.32    1.11   0
  -6  -2  11   40.05    1.24   0
   6   2 -11   42.40    1.48   0
  -5  -2  11  666.68   10.14   0
   5   2 -11  664.09    9.40   0
  -4  -2  11  102.73    2.10   0
   4   2 -11  100.01    2.10   0
  -3  -2  11  127.08    2.23   0
   3   2 -11  125.97    2.60   0
  -2  -2  11   60.20    1.73   0
   2   2 -11   58.97    1.61   0
  -1  -2  11   56.37    1.36   0
   1   2 -11   57.11    1.36   0
   0  -2 -11  149.21    2.35   0
   0   2  11  145.01    2.60   0
  -1  -2 -11    1.36    0.62   0
   1   2  11    2.60    0.74   0
  -2  -2 -11  114.84    2.10   0
   2   2  11  116.33    2.10   0
  -3  -2 -11    5.44    0.87   0
   3   2  11    5.93    0.87   0
  -4  -2 -11   11.13    1.36   0
   4   2  11   10.51    0.99   0
  -5  -2 -11   87.15    2.60   0
   5   2  11   87.77    2.23   0
  -6  -2 -11   11.50    2.47   0
   6   2  11   13.60    1.24   0
  -7  -2 -11   19.41    2.72   0
   7   2  11   20.03    1.48   0
   8   2  11   61.07    3.46   0
  -8  -2 -11   61.69    4.08   0
  -9  -2 -11   -4.45    4.70   0
   9   2  11   -0.49    1.98   0
 -12  -3  11  207.06    8.41   0
  12   3 -11  200.88    6.68   0
 -11  -3  11   26.45    4.20   0
  11   3 -11   24.72    2.72   0
 -10  -3  11   80.23    4.82   0
  10   3 -11   80.11    2.84   0
  -9  -3  11    7.42    0.74   0
   9   3 -11    6.80    1.24   0
  -8  -3  11    0.62    1.24   0
   8   3 -11    1.48    0.99   0
  -7  -3  11    9.89    0.87   0
   7   3 -11   10.38    0.87   0
  -6  -3  11   19.53    1.11   0
   6   3 -11   23.49    1.11   0
  -5  -3  11   31.15    1.24   0
   5   3 -11   31.28    1.11   0
  -4  -3  11  787.58   12.11   0
   4   3 -11  793.89   11.25   0
  -3  -3  11  450.72    7.29   0
   3   3 -11  436.25    6.55   0
  -2  -3  11   23.74    1.11   0
   2   3 -11   23.24    1.11   0
  -1  -3  11  114.22    2.23   0
   1   3 -11  114.84    2.35   0
   0  -3 -11   -2.10    0.99   0
   0   3  11    0.62    0.87   0
  -1  -3 -11    8.90    0.99   0
   1   3  11    6.92    0.99   0
  -2  -3 -11  447.50    7.54   0
   2   3  11  448.25    5.69   0
  -3  -3 -11  755.44   11.74   0
   3   3  11  762.74    9.89   0
  -4  -3 -11  315.23    6.30   0
   4   3  11  303.73    5.44   0
  -5  -3 -11   -2.10    2.23   0
   5   3  11   -1.24    1.11   0
  -6  -3 -11  158.11    6.06   0
   6   3  11  163.80    4.08   0
  -7  -3 -11    1.73    2.60   0
   7   3  11    2.35    1.36   0
   8   3  11   18.42    2.23   0
  -8  -3 -11   17.55    3.09   0
 -11  -4  11  133.88    7.42   0
  11   4 -11  118.80    4.57   0
 -10  -4  11  121.89    4.57   0
  10   4 -11  118.92    3.58   0
   9   4 -11  169.98    4.70   0
  -9  -4  11  182.09    6.06   0
  -8  -4  11  101.86    2.35   0
   8   4 -11   90.24    2.23   0
  -7  -4  11  143.40    4.70   0
   7   4 -11  157.49    2.72   0
  -6  -4  11   66.63    2.60   0
   6   4 -11   64.90    1.73   0
  -5  -4  11  725.15   14.83   0
   5   4 -11  745.06    9.77   0
  -4  -4  11  183.82    3.96   0
   4   4 -11  192.48    3.34   0
  -3  -4  11   56.87    1.98   0
   3   4 -11   57.98    1.48   0
  -2  -4  11  175.42    3.34   0
   2   4 -11  173.81    3.09   0
  -1  -4  11  484.71    7.66   0
   1   4 -11  467.78    6.92   0
   0  -4 -11  634.91   10.01   0
   0   4  11  623.91    9.15   0
  -1  -4 -11  689.68   10.63   0
   1   4  11  676.20    8.78   0
  -2  -4 -11 2002.15   29.42   0
   2   4  11 1956.66   26.33   0
  -3  -4 -11  622.18   12.86   0
   3   4  11  617.61    8.90   0
  -4  -4 -11  317.58    7.54   0
   4   4  11  316.47    5.56   0
  -5  -4 -11    0.62    1.48   0
   5   4  11    0.99    1.24   0
  -6  -4 -11    6.92    2.72   0
   6   4  11    7.66    1.48   0
  -7  -4 -11  350.34   12.36   0
   7   4  11  356.77   10.14   0
  -8  -4 -11   90.37    4.70   0
   8   4  11   83.20    3.58   0
  11   5 -11   10.01    3.21   0
 -10  -5  11   54.39    6.43   0
  10   5 -11   69.10    3.58   0
  -9  -5  11    4.33    3.46   0
   9   5 -11    0.99    1.73   0
   8   5 -11   -1.36    2.35   0
  -8  -5  11    0.74    5.07   0
  -7  -5  11  135.73    3.58   0
   7   5 -11  138.33    2.84   0
  -6  -5  11    4.82    1.36   0
   6   5 -11    2.35    0.74   0
  -5  -5  11   70.83    3.09   0
   5   5 -11   68.73    1.61   0
  -4  -5  11   76.15    2.72   0
   4   5 -11   80.97    1.73   0
  -3  -5  11  216.71    4.94   0
   3   5 -11  221.65    3.83   0
  -2  -5  11  506.10    9.52   0
   2   5 -11  498.68    7.42   0
   1   5 -11   10.14    0.99   0
  -1  -5  11    6.92    0.99   0
   0  -5 -11   -1.48    1.36   0
   0   5  11   -0.62    0.74   0
  -1  -5 -11    9.89    1.24   0
   1   5  11   11.00    0.87   0
  -2  -5 -11   56.62    2.10   0
   2   5  11   54.64    1.73   0
  -3  -5 -11   22.62    1.85   0
   3   5  11   27.07    1.36   0
  -4  -5 -11   49.70    2.84   0
   4   5  11   50.56    1.85   0
  -5  -5 -11    1.85    1.73   0
   5   5  11    3.71    1.36   0
  -6  -5 -11   11.37    2.10   0
   6   5  11   22.25    1.98   0
  -7  -5 -11    8.28    2.35   0
   7   5  11   11.87    2.35   0
  -8  -5 -11   -0.62    3.34   0
   8   5  11    2.35    2.23   0
 -10  -6  11   30.53    7.05   0
  10   6 -11   27.20    3.09   0
  -9  -6  11  115.96    7.79   0
   9   6 -11  105.20    4.33   0
  -8  -6  11  166.02    9.52   0
   8   6 -11  157.74    5.07   0
  -7  -6  11  103.84    2.72   0
   7   6 -11   96.79    3.46   0
  -6  -6  11    1.24    3.34   0
   6   6 -11   -0.12    1.73   0
  -5  -6  11  458.14   11.74   0
   5   6 -11  460.73    7.17   0
  -4  -6  11    8.16    2.10   0
   4   6 -11    8.16    0.74   0
  -3  -6  11  355.90    9.64   0
   3   6 -11  365.05    5.56   0
  -2  -6  11  201.87    5.07   0
   2   6 -11  205.21    4.45   0
  -1  -6  11  203.97    4.33   0
   1   6 -11  209.16    4.45   0
   0  -6 -11  177.89    3.96   0
   0   6  11  176.65    3.34   0
  -1  -6 -11  862.37   15.21   0
   1   6  11  871.52   12.24   0
  -2  -6 -11 1104.17   27.69   0
   2   6  11 1120.24   15.82   0
  -3  -6 -11    5.81    1.85   0
   3   6  11    6.68    1.24   0
  -4  -6 -11   69.10    3.96   0
   4   6  11   70.34    2.10   0
  -5  -6 -11    7.29    2.47   0
   5   6  11    8.28    1.61   0
  -6  -6 -11   60.33    4.33   0
   6   6  11   58.97    2.60   0
  -7  -6 -11   90.98    4.82   0
   7   6  11   90.86    3.71   0
 -10  -7  11   -4.33    4.57   0
  10   7 -11   -1.11    2.60   0
  -9  -7  11   31.28    5.56   0
   9   7 -11   30.29    2.72   0
  -8  -7  11    1.24    4.33   0
   8   7 -11    1.11    2.35   0
  -7  -7  11   20.03    5.93   0
   7   7 -11   13.72    3.96   0
  -6  -7  11   60.20    6.30   0
   6   7 -11   70.59    4.70   0
  -5  -7  11    9.15    2.10   0
   5   7 -11   11.87    2.10   0
  -4  -7  11    2.72    2.35   0
   4   7 -11    0.12    2.72   0
  -3  -7  11   98.40    3.96   0
   3   7 -11   97.54    3.58   0
  -2  -7  11  239.08    7.54   0
   2   7 -11  236.73    4.94   0
  -1  -7  11    2.47    1.11   0
   1   7 -11    3.34    0.74   0
   0  -7 -11  162.81    3.96   0
   0   7  11  168.37    3.34   0
  -1  -7 -11   36.59    2.23   0
   1   7  11   32.64    1.61   0
  -2  -7 -11  116.94    4.70   0
   2   7  11  111.51    2.47   0
  -3  -7 -11  128.07    4.70   0
   3   7  11  128.32    3.09   0
  -4  -7 -11   93.70    3.96   0
   4   7  11   87.52    3.34   0
  -5  -7 -11   98.65    5.07   0
   5   7  11  112.87    4.20   0
  -6  -7 -11  123.62    5.69   0
   6   7  11  116.20    4.70   0
  -9  -8  11  309.67   17.18   0
   9   8 -11  323.64   17.80   0
   8   8 -11  190.37    6.55   0
  -8  -8  11  189.14   11.87   0
  -7  -8  11   96.42    7.79   0
   7   8 -11   90.37    5.69   0
  -6  -8  11   22.87    4.45   0
   6   8 -11   19.16    3.58   0
  -5  -8  11    9.02    5.56   0
   5   8 -11    5.19    3.34   0
  -4  -8  11   63.05    5.56   0
   4   8 -11   63.05    4.33   0
  -3  -8  11  281.98   12.11   0
   3   8 -11  288.78    9.64   0
  -2  -8  11  181.47    6.55   0
   2   8 -11  194.21    5.56   0
  -1  -8  11   18.79    2.84   0
   1   8 -11   18.30    2.10   0
   0  -8 -11   32.88    1.98   0
   0   8  11   36.22    2.35   0
  -1  -8 -11  137.22    4.70   0
   1   8  11  145.01    4.57   0
  -2  -8 -11   13.23    2.23   0
   2   8  11   17.68    2.35   0
  -3  -8 -11   34.98    2.97   0
   3   8  11   24.48    2.84   0
  -4  -8 -11   10.26    2.35   0
   4   8  11    4.45    2.23   0
  -5  -8 -11   15.21    3.71   0
   5   8  11   13.72    2.60   0
  -7  -9  11   38.07    7.54   0
   7   9 -11   40.42    5.44   0
  -6  -9  11   36.47    6.18   0
   6   9 -11   45.24    4.20   0
  -5  -9  11   40.18    7.29   0
   5   9 -11   20.03    4.82   0
  -4  -9  11  159.84    9.27   0
   4   9 -11  143.15    6.68   0
  -3  -9  11    0.00    5.69   0
   3   9 -11    6.80    3.46   0
  -2  -9  11   24.48    4.33   0
   2   9 -11   22.50    3.34   0
  -1  -9  11   87.89    6.18   0
   1   9 -11  102.36    4.08   0
   0  -9 -11   56.74    5.32   0
   0   9  11   55.01    3.21   0
  -1  -9 -11   15.70    2.10   0
   1   9  11   15.21    2.47   0
  -2  -9 -11   24.23    2.84   0
   2   9  11   21.51    3.21   0
  -3  -9 -11   94.94    4.70   0
   3   9  11   85.05    5.32   0
  -4  -9 -11    0.25    2.10   0
   4   9  11    0.87    2.97   0
  -6 -10  11   25.47    7.54   0
   6  10 -11   29.55    5.32   0
  -5 -10  11   13.97    5.44   0
   5  10 -11    8.78    3.58   0
  -4 -10  11   40.05    6.18   0
   4  10 -11   49.08    4.82   0
  -3 -10  11   19.78    6.68   0
   3  10 -11   29.92    4.94   0
  -2 -10  11   10.75    6.43   0
   2  10 -11    8.53    3.96   0
  -1 -10  11   10.88    6.06   0
   1  10 -11   -1.48    4.08   0
   0 -10 -11   24.72    6.18   0
   0  10  11   25.09    7.66   0
  -1 -10 -11    0.62    4.20   0
   1  10  11    0.00    3.21   0
  -2 -10 -11   13.47    5.32   0
   2  10  11   10.14    3.46   0
  -3 -10 -11   51.18    5.81   0
   3  10  11   42.90    4.33   0
  -2 -11  11    4.20    4.57   0
   2  11 -11   -2.60    3.58   0
  -1 -11  11   77.02    7.05   0
   1  11 -11   69.85    8.28   0
  12   0 -12  246.25    7.66   0
  11   0 -12  115.71    5.19   0
  10   0 -12  716.25   14.71   0
   9   0 -12  395.95    6.80   0
   8   0 -12   68.24    1.73   0
   7   0 -12   -0.25    1.24   0
   6   0 -12  402.88    5.81   0
   5   0 -12  735.66   10.26   0
   4   0 -12 1291.83   19.53   0
   3   0 -12 1193.43   17.80   0
   2   0 -12  205.09    3.46   0
   1   0 -12   45.62    1.36   0
   0   0  12  325.00    4.57   0
   1   0  12   40.92    1.24   0
   2   0  12   25.84    0.99   0
   3   0  12  535.89    8.53   0
   4   0  12   21.02    1.24   0
   5   0  12  422.16    7.29   0
   6   0  12    0.00    1.61   0
   7   0  12  136.11    5.07   0
   8   0  12    9.64    3.34   0
 -12  -1  12   25.47    2.35   0
  12   1 -12   20.77    2.47   0
 -11  -1  12    1.11    1.98   0
  11   1 -12    0.49    1.85   0
 -10  -1  12   66.88    2.35   0
  10   1 -12   61.69    2.60   0
   9   1 -12    1.36    1.24   0
  -9  -1  12    0.00    1.48   0
  -8  -1  12  108.41    2.23   0
   8   1 -12  112.74    2.35   0
  -7  -1  12    2.35    0.87   0
   7   1 -12    1.24    0.99   0
  -6  -1  12    3.46    0.87   0
   6   1 -12    2.72    0.87   0
  -5  -1  12  432.18    6.18   0
   5   1 -12  441.32    5.93   0
  -4  -1  12   88.02    1.85   0
   4   1 -12   86.29    2.35   0
  -3  -1  12  172.08    3.21   0
   3   1 -12  182.83    3.34   0
  -2  -1  12   82.58    1.85   0
   2   1 -12   81.34    1.98   0
  -1  -1  12    0.12    0.87   0
   1   1 -12   -1.24    0.99   0
   0   1  12   18.05    1.11   0
   0  -1 -12   17.06    0.74   0
  -1  -1 -12    1.98    0.74   0
   1   1  12    0.62    0.74   0
  -2  -1 -12   64.90    1.48   0
   2   1  12   66.01    1.61   0
  -3  -1 -12   39.81    1.48   0
   3   1  12   38.07    1.48   0
   4   1  12   17.31    1.36   0
  -4  -1 -12   19.04    1.48   0
  -5  -1 -12  132.15    3.46   0
   5   1  12  135.36    3.58   0
  -6  -1 -12    3.96    2.10   0
   6   1  12   -1.48    1.36   0
  -7  -1 -12    2.35    2.10   0
   7   1  12    0.00    2.72   0
  -8  -1 -12    7.42    3.46   0
   8   1  12   14.34    2.84   0
 -12  -2  12  128.32    7.54   0
  12   2 -12  127.33    5.07   0
 -11  -2  12   21.26    1.73   0
  11   2 -12   21.63    2.72   0
  10   2 -12   66.88    2.72   0
 -10  -2  12   68.86    2.97   0
  -9  -2  12  224.12    3.96   0
   9   2 -12  222.52    4.45   0
  -8  -2  12   67.74    1.73   0
   8   2 -12   66.75    1.85   0
  -7  -2  12   57.85    1.48   0
   7   2 -12   57.61    1.73   0
  -6  -2  12  530.58    8.28   0
   6   2 -12  527.61    7.66   0
  -5  -2  12  376.18    5.81   0
   5   2 -12  383.72    6.06   0
  -4  -2  12   -0.12    0.87   0
   4   2 -12    0.00    0.87   0
  -3  -2  12  333.53    5.56   0
   3   2 -12  330.68    5.56   0
  -2  -2  12   73.31    1.98   0
   2   2 -12   75.90    1.85   0
  -1  -2  12   -0.74    0.74   0
   1   2 -12    0.62    0.74   0
   0  -2 -12    2.47    0.49   0
   0   2  12    0.37    0.74   0
  -1  -2 -12  582.62    7.79   0
   1   2  12  589.42    7.91   0
  -2  -2 -12  114.10    2.10   0
   2   2  12  117.81    2.23   0
  -3  -2 -12   53.90    1.73   0
   3   2  12   55.63    1.85   0
  -4  -2 -12  549.37    9.77   0
   4   2  12  560.37    7.91   0
  -5  -2 -12  119.05    3.83   0
   5   2  12  115.46    2.84   0
  -6  -2 -12  162.81    5.56   0
   6   2  12  173.44    4.33   0
  -7  -2 -12  184.81    6.30   0
   7   2  12  195.44    4.45   0
   8   2  12    4.82    1.98   0
  -8  -2 -12    1.61    2.97   0
 -11  -3  12   70.59    5.69   0
  11   3 -12   52.04    3.46   0
 -10  -3  12  144.51    4.20   0
  10   3 -12  131.04    4.08   0
  -9  -3  12   14.96    1.48   0
   9   3 -12   12.98    1.48   0
   8   3 -12   52.04    2.10   0
  -8  -3  12   52.54    1.48   0
  -7  -3  12   47.72    1.36   0
   7   3 -12   46.60    1.48   0
  -6  -3  12   14.34    0.87   0
   6   3 -12   13.85    0.99   0
  -5  -3  12  210.03    3.71   0
   5   3 -12  216.58    4.08   0
  -4  -3  12   87.52    2.23   0
   4   3 -12   87.77    1.98   0
  -3  -3  12   80.35    2.10   0
   3   3 -12   77.88    1.85   0
  -2  -3  12    2.35    0.74   0
   2   3 -12    2.60    0.87   0
  -1  -3  12  366.66    5.69   0
   1   3 -12  366.78    6.30   0
   0  -3 -12  222.02    3.71   0
   0   3  12  221.16    3.83   0
  -1  -3 -12   22.75    1.24   0
   1   3  12   22.25    1.36   0
  -2  -3 -12   19.66    1.24   0
   2   3  12   17.06    1.24   0
  -3  -3 -12   74.30    2.23   0
   3   3  12   74.54    1.73   0
  -4  -3 -12    3.71    1.36   0
   4   3  12   -0.62    1.48   0
  -5  -3 -12   14.46    1.61   0
   5   3  12   13.35    1.61   0
  -6  -3 -12  269.86    8.04   0
   6   3  12  287.29    6.30   0
  -7  -3 -12   45.86    3.34   0
   7   3  12   45.12    2.60   0
  -8  -3 -12    7.05    2.72   0
   8   3  12    9.40    2.23   0
 -11  -4  12    3.58    2.60   0
  11   4 -12    2.72    2.97   0
 -10  -4  12    6.30    2.23   0
  10   4 -12    7.42    1.73   0
  -9  -4  12    1.48    0.37   0
   9   4 -12    0.00    1.98   0
  -8  -4  12    8.16    0.74   0
   8   4 -12    4.70    1.24   0
  -7  -4  12   44.50    1.73   0
   7   4 -12   46.98    1.36   0
  -6  -4  12    0.25    2.23   0
   6   4 -12   -0.99    1.11   0
  -5  -4  12  325.49    9.15   0
   5   4 -12  328.71    5.19   0
  -4  -4  12    2.10    1.11   0
   4   4 -12   -0.25    1.73   0
  -3  -4  12   32.02    1.61   0
   3   4 -12   32.14    1.24   0
  -2  -4  12  414.37    6.92   0
   2   4 -12  404.11    6.18   0
  -1  -4  12    2.60    0.99   0
   1   4 -12    3.09    1.24   0
   0  -4 -12  336.62    5.69   0
   0   4  12  335.01    6.06   0
  -1  -4 -12  835.79   14.59   0
   1   4  12  833.82   14.46   0
  -2  -4 -12  334.39    7.91   0
   2   4  12  334.39    5.19   0
  -3  -4 -12   -2.72    2.10   0
   3   4  12   -2.10    1.24   0
  -4  -4 -12  139.69    4.33   0
   4   4  12  134.99    3.34   0
  -5  -4 -12    1.85    1.98   0
   5   4  12    0.49    1.24   0
  -6  -4 -12   49.82    3.21   0
   6   4  12   48.09    2.23   0
  -7  -4 -12   12.73    2.72   0
   7   4  12   12.73    2.10   0
  -8  -4 -12   -3.21    3.09   0
   8   4  12    0.74    2.10   0
  11   5 -12   11.62    2.84   0
  10   5 -12  162.93    7.42   0
 -10  -5  12  171.09   11.00   0
  -9  -5  12    1.98    3.83   0
   9   5 -12    2.47    1.73   0
  -8  -5  12    8.90    0.74   0
   8   5 -12    6.92    1.85   0
  -7  -5  12   35.85    2.23   0
   7   5 -12   29.92    2.35   0
  -6  -5  12   26.45    1.85   0
   6   5 -12   27.44    1.11   0
  -5  -5  12  174.55    5.69   0
   5   5 -12  169.11    3.34   0
  -4  -5  12   41.04    2.60   0
   4   5 -12   45.37    1.85   0
  -3  -5  12   14.22    1.73   0
   3   5 -12   13.47    1.48   0
  -2  -5  12    6.30    1.48   0
   2   5 -12    7.42    1.48   0
  -1  -5  12  358.37    6.80   0
   1   5 -12  341.56    6.80   0
   0  -5 -12  448.00    8.41   0
   0   5  12  438.85    7.54   0
  -1  -5 -12  214.36    5.19   0
   1   5  12  217.57    3.96   0
   2   5  12   87.52    2.10   0
  -2  -5 -12   88.14    3.46   0
  -3  -5 -12    6.06    2.47   0
   3   5  12    2.10    1.24   0
  -4  -5 -12   31.65    2.84   0
   4   5  12   40.30    1.85   0
  -5  -5 -12   93.33    7.29   0
   5   5  12   98.40    2.84   0
  -6  -5 -12  344.16   16.81   0
   6   5  12  354.91    8.53   0
  -7  -5 -12   19.04    2.84   0
   7   5  12   35.85    3.71   0
  10   6 -12   -1.48    2.35   0
 -10  -6  12   -0.99    4.33   0
   9   6 -12   -3.58    2.35   0
  -9  -6  12   -4.94    3.96   0
   8   6 -12    0.25    2.10   0
  -8  -6  12   -0.37    5.44   0
  -7  -6  12   25.34    1.85   0
   7   6 -12   27.32    3.09   0
  -6  -6  12   88.26    3.58   0
   6   6 -12   78.38    2.84   0
  -5  -6  12    7.91    1.73   0
   5   6 -12   12.36    1.98   0
   4   6 -12  223.88    4.82   0
  -4  -6  12  222.52    6.92   0
  -3  -6  12    2.84    1.98   0
   3   6 -12    1.24    1.24   0
  -2  -6  12  453.19   12.36   0
   2   6 -12  458.01    8.78   0
  -1  -6  12   16.69    1.85   0
   1   6 -12   16.07    1.48   0
   0  -6 -12   31.40    1.73   0
   0   6  12   28.56    1.85   0
  -1  -6 -12   46.36    2.47   0
   1   6  12   41.54    1.36   0
  -2  -6 -12   70.34    3.46   0
   2   6  12   77.02    2.10   0
  -3  -6 -12  147.48    5.07   0
   3   6  12  144.64    3.21   0
   4   6  12   12.98    1.48   0
  -4  -6 -12   11.00    2.35   0
  -5  -6 -12   35.60    2.84   0
   5   6  12   45.49    2.72   0
  -6  -6 -12   45.49    3.34   0
   6   6  12   44.38    2.84   0
  -7  -6 -12  244.77    9.40   0
   7   6  12  221.16    8.78   0
  -9  -7  12   12.36    5.07   0
   9   7 -12   16.69    3.09   0
  -8  -7  12   52.54    5.81   0
   8   7 -12   50.93    3.21   0
  -7  -7  12   45.86    6.55   0
   7   7 -12   49.70    4.57   0
  -6  -7  12    6.18    5.81   0
   6   7 -12    3.96    3.09   0
  -5  -7  12  252.68   12.24   0
   5   7 -12  227.71    8.04   0
  -4  -7  12   36.72    2.97   0
   4   7 -12   31.52    3.58   0
  -3  -7  12   69.47    3.71   0
   3   7 -12   75.41    3.09   0
  -2  -7  12    3.71    2.47   0
   2   7 -12    0.25    1.73   0
  -1  -7  12  150.32    4.33   0
   1   7 -12  146.12    4.45   0
   0  -7 -12   41.17    2.23   0
   0   7  12   42.03    2.60   0
  -1  -7 -12  299.16    8.53   0
   1   7  12  307.57    7.54   0
  -2  -7 -12   46.23    2.84   0
   2   7  12   42.90    2.23   0
  -3  -7 -12   42.53    2.97   0
   3   7  12   47.84    2.60   0
  -4  -7 -12   -1.61    3.09   0
   4   7  12    1.24    2.60   0
  -5  -7 -12   99.39    5.07   0
   5   7  12   95.43    4.20   0
  -6  -7 -12  110.27    5.32   0
   6   7  12   89.13    4.57   0
  -8  -8  12    2.23    4.70   0
   8   8 -12    1.98    3.09   0
  -7  -8  12    7.29    4.94   0
   7   8 -12   -0.12    2.84   0
  -6  -8  12   95.56    7.54   0
   6   8 -12   83.32    5.07   0
  -5  -8  12   15.45    5.93   0
   5   8 -12   14.34    4.20   0
  -4  -8  12    9.15    3.83   0
   4   8 -12   12.49    3.09   0
  -3  -8  12    1.85    3.83   0
   3   8 -12    5.69    2.84   0
  -2  -8  12  173.69    6.30   0
   2   8 -12  185.43    5.56   0
  -1  -8  12   92.47    4.94   0
   1   8 -12   91.36    3.58   0
   0  -8 -12   11.37    1.85   0
   0   8  12   13.35    2.47   0
  -1  -8 -12  101.74    4.08   0
   1   8  12   93.95    4.08   0
  -2  -8 -12   -0.25    2.23   0
   2   8  12    0.49    1.98   0
  -3  -8 -12  116.20    5.56   0
   3   8  12  105.32    4.45   0
  -4  -8 -12    7.05    2.72   0
   4   8  12   10.38    2.47   0
  -5  -8 -12  189.76    7.17   0
   5   8  12  187.53    6.43   0
  -7  -9  12   35.11    5.44   0
   7   9 -12   40.55    4.94   0
  -6  -9  12    8.04    5.19   0
   6   9 -12   17.80    3.83   0
  -5  -9  12  173.81   11.99   0
   5   9 -12  162.19    7.91   0
  -4  -9  12   25.22    5.44   0
   4   9 -12   33.50    4.20   0
  -3  -9  12   10.38    6.06   0
   3   9 -12    1.85    4.20   0
  -2  -9  12   53.40    5.69   0
   2   9 -12   48.71    4.45   0
  -1  -9  12   -2.72    3.58   0
   1   9 -12   -1.73    2.84   0
   0  -9 -12    2.23    3.83   0
   0   9  12    3.71    2.23   0
  -1  -9 -12   96.67    7.05   0
   1   9  12   92.47    4.20   0
  -2  -9 -12    0.62    1.36   0
   2   9  12    6.06    2.72   0
  -3  -9 -12   55.13    3.46   0
   3   9  12   53.40    4.57   0
  -4  -9 -12   19.90    3.71   0
   4   9  12   20.27    3.96   0
  -5 -10  12   -4.20    4.57   0
   5  10 -12    2.47    4.20   0
  -4 -10  12    5.93    5.07   0
   4  10 -12    6.92    3.71   0
  -3 -10  12   67.50    8.41   0
   3  10 -12   63.79    5.44   0
  -2 -10  12  185.06   11.87   0
   2  10 -12  149.95    7.79   0
  -1 -10  12   13.35    6.43   0
   1  10 -12    4.57    4.82   0
   0 -10 -12  126.46    9.77   0
   0  10  12  109.53    9.15   0
  -1 -10 -12   65.15    6.18   0
   1  10  12   80.97    8.28   0
  -2 -10 -12    6.55    6.06   0
   2  10  12    0.87    3.96   0
 -12  -1  13   20.77    2.35   0
  12   1 -13   26.08    3.09   0
 -11  -1  13   71.33    3.71   0
  11   1 -13   66.14    4.08   0
  10   1 -13   11.62    1.73   0
 -10  -1  13   14.83    1.61   0
   9   1 -13   10.75    1.24   0
  -9  -1  13    9.64    1.24   0
  -8  -1  13   54.02    1.61   0
   8   1 -13   54.89    1.73   0
  -7  -1  13   89.01    1.98   0
   7   1 -13   78.38    1.73   0
  -6  -1  13  707.11   10.01   0
   6   1 -13  698.33    9.15   0
  -5  -1  13 1784.45   23.86   0
   5   1 -13 1799.17   22.13   0
  -4  -1  13  250.58    4.08   0
   4   1 -13  250.58    4.45   0
  -3  -1  13  317.46    4.82   0
   3   1 -13  316.22    5.81   0
  -2  -1  13   78.87    1.61   0
   2   1 -13   73.18    1.85   0
  -1  -1  13   13.85    0.74   0
   1   1 -13   16.07    1.11   0
   0  -1 -13    2.35    0.62   0
   0   1  13    1.61    0.74   0
  -1  -1 -13  199.15    3.21   0
   1   1  13  200.02    3.09   0
  -2  -1 -13   29.67    1.36   0
   2   1  13   28.43    1.24   0
  -3  -1 -13    2.84    1.11   0
   3   1  13    4.94    1.11   0
  -4  -1 -13  726.14   11.74   0
   4   1  13  720.58   12.98   0
  -5  -1 -13   16.81    1.73   0
   5   1  13   16.81    1.61   0
  -6  -1 -13   83.57    3.83   0
   6   1  13   87.52    3.46   0
  -7  -1 -13   11.50    2.35   0
   7   1  13   11.13    3.09   0
  -8  -1 -13  231.79    8.90   0
   8   1  13  210.77    8.65   0
 -11  -2  13    3.71    1.61   0
  11   2 -13    5.44    2.23   0
 -10  -2  13   66.38    2.97   0
  10   2 -13   58.84    2.72   0
   9   2 -13    7.91    1.48   0
  -9  -2  13   13.60    1.24   0
  -8  -2  13    7.42    0.99   0
   8   2 -13    3.46    1.36   0
  -7  -2  13  197.92    3.46   0
   7   2 -13  194.70    3.46   0
  -6  -2  13   30.29    1.24   0
   6   2 -13   30.04    1.24   0
  -5  -2  13   66.01    1.61   0
   5   2 -13   65.52    1.73   0
  -4  -2  13  256.88    4.08   0
   4   2 -13  252.68    4.08   0
  -3  -2  13  501.03    7.91   0
   3   2 -13  501.40    8.04   0
  -2  -2  13    1.73    0.99   0
   2   2 -13    3.58    1.11   0
  -1  -2  13  234.14    3.83   0
   1   2 -13  228.70    3.83   0
   0  -2 -13   67.25    1.48   0
   0   2  13   65.27    1.85   0
  -1  -2 -13   92.84    1.85   0
   1   2  13   91.11    1.98   0
  -2  -2 -13  118.43    2.47   0
   2   2  13  114.97    2.35   0
  -3  -2 -13    0.49    1.11   0
   3   2  13   -0.37    1.48   0
  -4  -2 -13   -1.11    1.48   0
   4   2  13   -1.24    1.24   0
  -5  -2 -13   25.22    1.85   0
   5   2  13   25.84    2.10   0
  -6  -2 -13   26.70    2.60   0
   6   2  13   22.62    1.85   0
  -7  -2 -13   47.10    3.71   0
   7   2  13   40.30    4.08   0
  -8  -2 -13   28.93    3.96   0
   8   2  13   36.84    3.58   0
 -11  -3  13   30.78    4.33   0
  11   3 -13   28.56    2.60   0
  10   3 -13   11.62    2.35   0
 -10  -3  13   12.98    1.48   0
  -9  -3  13    2.84    1.36   0
   9   3 -13    1.48    1.61   0
  -8  -3  13    3.71    0.99   0
   8   3 -13    3.46    1.48   0
  -7  -3  13  266.28    4.82   0
   7   3 -13  256.88    4.08   0
  -6  -3  13   34.37    1.36   0
   6   3 -13   31.03    1.36   0
  -5  -3  13   61.19    2.10   0
   5   3 -13   62.43    1.73   0
  -4  -3  13    2.23    1.11   0
   4   3 -13    1.48    0.99   0
  -3  -3  13    2.23    1.24   0
   3   3 -13   -0.62    1.11   0
  -2  -3  13    0.25    0.99   0
   2   3 -13    0.37    0.99   0
  -1  -3  13  187.28    3.58   0
   1   3 -13  186.05    3.34   0
   0  -3 -13  150.45    2.84   0
   0   3  13  150.94    2.84   0
  -1  -3 -13    0.99    1.24   0
   1   3  13    2.23    1.11   0
  -2  -3 -13   55.51    2.47   0
   2   3  13   61.32    1.85   0
  -3  -3 -13    2.84    1.11   0
   3   3  13    4.45    1.61   0
  -4  -3 -13  562.35   10.51   0
   4   3  13  575.20   11.00   0
  -5  -3 -13  113.98    3.96   0
   5   3  13  108.66    2.97   0
  -6  -3 -13   72.56    4.45   0
   6   3  13   69.85    2.60   0
  -7  -3 -13    1.61    2.84   0
   7   3  13   -0.25    2.60   0
 -11  -4  13    5.32    3.46   0
  11   4 -13   10.51    3.34   0
  10   4 -13   39.43    3.21   0
 -10  -4  13   48.71    4.33   0
  -9  -4  13  152.67    4.08   0
   9   4 -13  149.46    4.57   0
  -8  -4  13    4.20    1.73   0
   8   4 -13    6.80    1.85   0
  -7  -4  13  290.14    6.55   0
   7   4 -13  282.35    6.68   0
  -6  -4  13  190.13    5.81   0
   6   4 -13  189.01    3.71   0
  -5  -4  13   85.42    3.34   0
   5   4 -13   78.50    2.23   0
  -4  -4  13  233.39    5.81   0
   4   4 -13  233.27    4.45   0
  -3  -4  13 1298.01   24.97   0
   3   4 -13 1283.42   19.16   0
  -2  -4  13   37.58    1.61   0
   2   4 -13   34.00    1.73   0
  -1  -4  13  941.98   14.59   0
   1   4 -13  967.45   19.16   0
   0  -4 -13 1499.02   24.72   0
   0   4  13 1541.05   30.16   0
  -1  -4 -13  645.42   13.60   0
   1   4  13  637.63   11.25   0
  -2  -4 -13  110.02    3.58   0
   2   4  13  106.93    3.09   0
  -3  -4 -13  181.72    5.32   0
   3   4  13  177.89    4.08   0
  -4  -4 -13  132.52    5.07   0
   4   4  13  135.24    3.34   0
  -5  -4 -13   49.82    3.46   0
   5   4  13   45.74    2.10   0
  -6  -4 -13  401.52   14.22   0
   6   4  13  436.01   10.26   0
  -7  -4 -13   16.69    2.97   0
   7   4  13   18.05    1.98   0
  10   5 -13    0.00    2.47   0
 -10  -5  13   -1.36    4.82   0
   9   5 -13    4.94    2.72   0
  -9  -5  13   -0.12    5.56   0
  -8  -5  13   -1.85    2.35   0
   8   5 -13   -2.60    1.98   0
  -7  -5  13   12.24    1.73   0
   7   5 -13    5.69    2.84   0
  -6  -5  13   50.93    2.72   0
   6   5 -13   56.49    2.47   0
  -5  -5  13    2.10    1.48   0
   5   5 -13    1.48    1.11   0
  -4  -5  13  283.34    7.91   0
   4   5 -13  291.87    5.81   0
  -3  -5  13   50.44    2.84   0
   3   5 -13   52.91    1.98   0
  -2  -5  13  127.95    4.57   0
   2   5 -13  129.06    3.21   0
  -1  -5  13    1.24    1.24   0
   1   5 -13    1.98    1.24   0
   0  -5 -13   26.83    1.73   0
   0   5  13   27.07    1.73   0
  -1  -5 -13   -2.35    3.46   0
   1   5  13   -3.21    1.11   0
  -2  -5 -13   -1.24    2.23   0
   2   5  13   -0.49    1.48   0
  -3  -5 -13   14.59    2.10   0
   3   5  13   12.98    1.24   0
   4   5  13   99.51    2.84   0
  -4  -5 -13   82.58    4.20   0
  -5  -5 -13   46.23    5.07   0
   5   5  13   36.10    2.72   0
  -6  -5 -13   -1.36    4.33   0
   6   5  13    1.36    2.35   0
  -7  -5 -13   30.04    3.09   0
   7   5  13   48.83    4.70   0
  10   6 -13   93.83    4.20   0
 -10  -6  13   79.36    7.42   0
  -9  -6  13  113.98    8.41   0
   9   6 -13  107.05    4.45   0
  -8  -6  13   14.46    5.69   0
   8   6 -13   16.19    3.09   0
  -7  -6  13   54.39    5.44   0
   7   6 -13   56.62    4.20   0
  -6  -6  13   32.64    4.08   0
   6   6 -13   29.42    3.21   0
  -5  -6  13   19.16    2.47   0
   5   6 -13   16.07    3.21   0
  -4  -6  13    5.93    2.47   0
   4   6 -13    7.05    1.73   0
  -3  -6  13  169.85    5.69   0
   3   6 -13  175.29    4.20   0
  -2  -6  13   17.43    2.97   0
   2   6 -13   24.11    1.85   0
  -1  -6  13  638.62   13.10   0
   1   6 -13  652.71   11.87   0
   0  -6 -13  541.21   11.50   0
   0   6  13  550.23   10.26   0
  -1  -6 -13  288.65    8.41   0
   1   6  13  296.94    5.56   0
  -2  -6 -13   46.36    2.97   0
   2   6  13   44.01    2.10   0
  -3  -6 -13  240.32    7.79   0
   3   6  13  221.77    5.93   0
  -4  -6 -13  251.32    7.91   0
   4   6  13  260.71    6.55   0
  -5  -6 -13    0.00    3.83   0
   5   6  13   -0.62    2.10   0
  -6  -6 -13  352.44   12.61   0
   6   6  13  316.84    9.40   0
  -9  -7  13    8.65    4.57   0
   9   7 -13   10.51    2.97   0
  -8  -7  13   80.35    7.17   0
   8   7 -13   76.15    3.96   0
  -7  -7  13   41.66    6.80   0
   7   7 -13   28.43    4.08   0
  -6  -7  13   32.26    6.18   0
   6   7 -13   20.15    4.08   0
  -5  -7  13  -11.13    5.32   0
   5   7 -13    3.21    2.97   0
  -4  -7  13   33.62    4.45   0
   4   7 -13   39.93    4.33   0
  -3  -7  13   53.90    3.34   0
   3   7 -13   56.87    2.84   0
  -2  -7  13   63.91    3.83   0
   2   7 -13   60.57    2.84   0
  -1  -7  13   -1.73    1.73   0
   1   7 -13   -0.25    2.10   0
   0  -7 -13    0.00    1.85   0
   0   7  13    2.23    2.10   0
  -1  -7 -13  170.97    5.56   0
   1   7  13  165.03    4.82   0
  -2  -7 -13    4.08    2.10   0
   2   7  13    3.71    1.61   0
  -3  -7 -13   33.87    2.97   0
   3   7  13   38.57    2.60   0
  -4  -7 -13   42.28    3.21   0
   4   7  13   33.75    2.72   0
  -5  -7 -13  122.26    5.81   0
   5   7  13  126.96    4.94   0
  -8  -8  13   -3.58    5.44   0
   8   8 -13    0.12    2.84   0
  -7  -8  13   23.12    5.44   0
   7   8 -13   24.11    3.96   0
  -6  -8  13   42.77    7.42   0
   6   8 -13   36.84    5.19   0
  -5  -8  13    9.52    5.81   0
   5   8 -13   12.73    3.58   0
  -4  -8  13    8.78    4.08   0
   4   8 -13    3.34    3.58   0
  -3  -8  13  142.53    9.02   0
   3   8 -13  130.67    6.30   0
  -2  -8  13   16.32    4.45   0
   2   8 -13   16.19    2.10   0
  -1  -8  13  147.11    8.78   0
   1   8 -13  147.48    4.94   0
   0  -8 -13   25.09    2.47   0
   0   8  13   20.77    2.35   0
  -1  -8 -13    4.45    2.35   0
   1   8  13    5.93    2.23   0
  -2  -8 -13   61.93    3.96   0
   2   8  13   57.73    4.33   0
  -3  -8 -13   83.32    4.20   0
   3   8  13   82.83    3.83   0
  -4  -8 -13  310.66   11.62   0
   4   8  13  285.81    8.65   0
  -7  -9  13   -2.47    5.07   0
   7   9 -13    8.65    3.71   0
  -6  -9  13  120.78    9.77   0
   6   9 -13  103.96    6.30   0
  -5  -9  13   45.37    8.90   0
   5   9 -13   34.00    4.82   0
  -4  -9  13   80.11    7.17   0
   4   9 -13   67.62    5.07   0
  -3  -9  13   -1.73    6.18   0
   3   9 -13   -1.48    4.33   0
  -2  -9  13   59.21    7.42   0
   2   9 -13   58.10    4.57   0
  -1  -9  13   -3.34    3.71   0
   1   9 -13    3.96    3.46   0
   0  -9 -13   35.23    5.19   0
   0   9  13   32.26    3.09   0
  -1  -9 -13   94.32    7.79   0
   1   9  13  107.30    5.81   0
  -2  -9 -13   18.54    5.93   0
   2   9  13    9.52    3.34   0
  -3  -9 -13   77.76    6.80   0
   3   9  13   79.86    5.07   0
  -4 -10  13   12.61    4.94   0
   4  10 -13   16.57    4.57   0
  -3 -10  13   29.92    6.06   0
   3  10 -13   26.33    4.82   0
  -2 -10  13   81.96    7.54   0
   2  10 -13   79.24    5.93   0
  -1 -10  13    1.11    4.70   0
   1  10 -13   -5.07    4.45   0
   0 -10 -13   43.02    5.56   0
   0  10  13   30.90    6.80   0
  11   0 -14  320.05   11.25   0
  10   0 -14   19.53    2.23   0
   9   0 -14   -1.24    1.98   0
   8   0 -14  111.88    2.60   0
   7   0 -14  645.79    9.52   0
   6   0 -14   22.50    1.48   0
   5   0 -14   14.46    1.11   0
   4   0 -14 1910.79   25.84   0
   3   0 -14  154.90    3.21   0
   2   0 -14  638.25    9.27   0
   1   0 -14  130.79    2.35   0
   0   0  14  162.56    2.84   0
   1   0  14   87.40    2.10   0
   2   0  14  563.46    8.65   0
   3   0  14  402.88    6.92   0
   4   0  14   90.86    2.47   0
   5   0  14  655.19   14.46   0
   6   0  14    6.06    2.35   0
   7   0  14   -1.61    2.23   0
 -11  -1  14    4.70    2.35   0
  11   1 -14    0.00    2.97   0
 -10  -1  14   27.44    1.98   0
  10   1 -14   27.81    2.47   0
  -9  -1  14    8.28    1.61   0
   9   1 -14    7.05    1.73   0
  -8  -1  14   15.08    1.11   0
   8   1 -14   16.44    1.36   0
  -7  -1  14   76.52    2.10   0
   7   1 -14   77.14    1.98   0
  -6  -1  14  132.64    2.84   0
   6   1 -14  135.24    2.47   0
  -5  -1  14   75.53    1.85   0
   5   1 -14   81.59    2.10   0
  -4  -1  14   52.54    1.48   0
   4   1 -14   51.43    1.85   0
  -3  -1  14   77.02    1.73   0
   3   1 -14   79.36    2.47   0
  -2  -1  14  285.07    4.20   0
   2   1 -14  288.53    5.69   0
  -1  -1  14   45.99    1.24   0
   1   1 -14   40.92    1.48   0
   0  -1 -14   19.16    0.87   0
   0   1  14   18.54    0.99   0
  -1  -1 -14   76.15    1.98   0
   1   1  14   80.48    1.98   0
  -2  -1 -14    7.17    0.99   0
   2   1  14    5.56    1.11   0
  -3  -1 -14    0.37    1.11   0
   3   1  14   -0.62    0.99   0
  -4  -1 -14   18.42    1.36   0
   4   1  14   21.39    2.10   0
  -5  -1 -14   45.37    2.84   0
   5   1  14   47.72    2.72   0
  -6  -1 -14   55.51    3.71   0
   6   1  14   60.08    2.84   0
  -7  -1 -14   -4.08    4.33   0
   7   1  14   -1.11    3.21   0
 -11  -2  14  126.09    4.94   0
  11   2 -14  141.30    6.30   0
  10   2 -14    6.06    2.10   0
 -10  -2  14    4.94    1.48   0
  -9  -2  14   35.97    1.98   0
   9   2 -14   35.73    2.23   0
  -8  -2  14  102.98    2.47   0
   8   2 -14  102.48    3.09   0
  -7  -2  14  274.68    4.94   0
   7   2 -14  264.92    4.33   0
  -6  -2  14  182.46    3.71   0
   6   2 -14  178.75    3.09   0
  -5  -2  14   26.70    1.24   0
   5   2 -14   29.67    1.36   0
  -4  -2  14  219.30    3.96   0
   4   2 -14  230.30    3.96   0
  -3  -2  14  457.89    7.54   0
   3   2 -14  471.24    7.79   0
  -2  -2  14  685.47    9.89   0
   2   2 -14  694.87   10.75   0
  -1  -2  14   90.49    2.10   0
   1   2 -14   91.36    2.10   0
   0  -2 -14  239.70    3.83   0
   0   2  14  238.83    4.33   0
  -1  -2 -14   52.29    1.61   0
   1   2  14   54.39    1.73   0
  -2  -2 -14  925.67   14.22   0
   2   2  14  908.85   15.95   0
  -3  -2 -14  268.50    5.07   0
   3   2  14  262.94    5.44   0
  -4  -2 -14   45.12    2.10   0
   4   2  14   48.21    2.47   0
  -5  -2 -14  569.64   15.21   0
   5   2  14  577.43   12.86   0
  -6  -2 -14   25.09    3.71   0
   6   2  14   29.79    2.60   0
  -7  -2 -14   23.61    3.21   0
   7   2  14   17.68    3.96   0
 -11  -3  14   88.26    5.56   0
  11   3 -14  101.86    5.32   0
 -10  -3  14   -1.36    1.61   0
  10   3 -14   -1.24    2.84   0
  -9  -3  14   15.08    1.48   0
   9   3 -14   14.71    2.23   0
  -8  -3  14  110.02    2.97   0
   8   3 -14  105.45    3.21   0
  -7  -3  14   -1.24    1.36   0
   7   3 -14    0.00    1.11   0
  -6  -3  14  116.82    2.84   0
   6   3 -14  108.04    3.09   0
  -5  -3  14   27.69    1.85   0
   5   3 -14   21.88    1.36   0
  -4  -3  14   -2.84    1.36   0
   4   3 -14    0.25    1.48   0
  -3  -3  14 1176.12   22.50   0
   3   3 -14 1161.66   17.68   0
  -2  -3  14  487.19    8.78   0
   2   3 -14  486.07    8.78   0
  -1  -3  14  231.54    5.44   0
   1   3 -14  230.43    4.94   0
   0  -3 -14   22.75    1.48   0
   0   3  14   23.61    1.85   0
  -1  -3 -14   41.66    2.35   0
   1   3  14   38.07    1.73   0
  -2  -3 -14   52.66    2.97   0
   2   3  14   55.51    2.10   0
  -3  -3 -14    9.52    1.48   0
   3   3  14    7.79    1.98   0
  -4  -3 -14  195.94    5.44   0
   4   3  14  216.71    5.69   0
  -5  -3 -14   62.80    3.34   0
   5   3  14   62.68    3.09   0
  -6  -3 -14   26.70    2.84   0
   6   3  14   27.07    2.47   0
  -7  -3 -14   80.23    4.82   0
   7   3  14   66.88    4.33   0
 -11  -4  14   62.55    4.57   0
  11   4 -14   67.13    4.33   0
 -10  -4  14    6.80    2.10   0
  10   4 -14    9.27    2.47   0
  -9  -4  14    4.57    1.36   0
   9   4 -14    9.02    2.10   0
  -8  -4  14    0.25    1.85   0
   8   4 -14    1.36    1.85   0
  -7  -4  14   39.81    2.47   0
   7   4 -14   41.17    1.98   0
  -6  -4  14   56.37    2.72   0
   6   4 -14   51.67    2.35   0
  -5  -4  14   79.12    2.97   0
   5   4 -14   90.00    2.97   0
  -4  -4  14   -1.73    1.48   0
   4   4 -14   -0.99    1.61   0
  -3  -4  14   20.52    1.85   0
   3   4 -14   16.69    1.48   0
  -2  -4  14  207.31    4.45   0
   2   4 -14  212.26    5.32   0
  -1  -4  14   15.82    1.61   0
   1   4 -14   14.34    1.73   0
   0  -4 -14    7.05    1.73   0
   0   4  14    8.28    1.61   0
  -1  -4 -14   -4.57    2.23   0
   1   4  14   -3.58    1.11   0
  -2  -4 -14  267.27    8.04   0
   2   4  14  270.23    6.55   0
  -3  -4 -14  324.87    9.77   0
   3   4  14  306.58    7.29   0
  -4  -4 -14   44.38    3.09   0
   4   4  14   39.06    1.61   0
  -5  -4 -14   29.17    3.58   0
   5   4  14   21.26    2.10   0
  -6  -4 -14   19.90    3.34   0
   6   4  14   20.52    2.35   0
  -7  -4 -14   25.34    3.71   0
   7   4  14   11.87    3.34   0
  10   5 -14    3.46    2.23   0
  -9  -5  14  120.90    9.27   0
   9   5 -14  106.81    4.45   0
  -8  -5  14  239.70    7.29   0
   8   5 -14  230.30    6.18   0
  -7  -5  14   50.07    6.43   0
   7   5 -14   54.52    4.45   0
  -6  -5  14    0.74    1.85   0
   6   5 -14    4.08    2.35   0
  -5  -5  14   54.15    3.09   0
   5   5 -14   53.77    2.23   0
  -4  -5  14    6.30    1.85   0
   4   5 -14    4.57    1.36   0
  -3  -5  14  331.18    9.15   0
   3   5 -14  342.18    6.68   0
  -2  -5  14  675.71   16.69   0
   2   5 -14  677.07   11.87   0
  -1  -5  14  139.07    4.08   0
   1   5 -14  136.35    3.46   0
   0  -5 -14    7.91    1.61   0
   0   5  14    6.68    1.36   0
  -1  -5 -14  228.20    6.80   0
   1   5  14  222.39    5.81   0
  -2  -5 -14   14.34    1.98   0
   2   5  14   14.09    1.85   0
  -3  -5 -14   67.37    3.71   0
   3   5  14   71.58    3.21   0
  -4  -5 -14  653.83   27.07   0
   4   5  14  653.33   13.97   0
  -5  -5 -14    7.42    2.72   0
   5   5  14    5.81    2.35   0
  -6  -5 -14   23.12    2.97   0
   6   5  14   20.40    2.35   0
  -9  -6  14    2.84    4.57   0
   9   6 -14    3.58    2.35   0
  -8  -6  14   -1.98    4.33   0
   8   6 -14    0.37    2.35   0
  -7  -6  14   25.34    4.70   0
   7   6 -14   13.35    2.84   0
  -6  -6  14   16.44    4.45   0
   6   6 -14   17.31    3.09   0
  -5  -6  14    1.61    1.73   0
   5   6 -14    7.54    3.71   0
  -4  -6  14   -2.35    3.21   0
   4   6 -14   -2.35    2.97   0
  -3  -6  14   40.92    3.09   0
   3   6 -14   37.70    2.47   0
  -2  -6  14    8.16    2.10   0
   2   6 -14   10.26    2.10   0
  -1  -6  14    0.49    1.61   0
   1   6 -14    3.34    1.61   0
   0  -6 -14  199.28    6.18   0
   0   6  14  196.18    4.70   0
  -1  -6 -14  187.53    6.30   0
   1   6  14  183.82    4.70   0
  -2  -6 -14   33.13    2.84   0
   2   6  14   27.69    2.10   0
  -3  -6 -14   -4.82    1.85   0
   3   6  14    0.87    1.85   0
  -4  -6 -14   -3.34    2.47   0
   4   6  14   -3.46    1.85   0
  -5  -6 -14  227.96    8.90   0
   5   6  14  225.61    7.17   0
  -9  -7  14  123.00    9.15   0
   9   7 -14  100.50    4.82   0
  -8  -7  14  203.35   11.99   0
   8   7 -14  204.47    6.92   0
  -7  -7  14   91.60    7.42   0
   7   7 -14   94.82    5.69   0
  -6  -7  14  129.06    8.41   0
   6   7 -14  125.47    6.06   0
  -5  -7  14  116.57    7.54   0
   5   7 -14  101.62    5.19   0
  -4  -7  14   25.59    4.45   0
   4   7 -14   15.08    3.21   0
  -3  -7  14   53.77    5.44   0
   3   7 -14   53.77    2.97   0
  -2  -7  14  140.43    5.56   0
   2   7 -14  143.40    4.82   0
  -1  -7  14   34.12    2.35   0
   1   7 -14   29.30    2.60   0
   0  -7 -14  159.72    5.44   0
   0   7  14  161.57    4.94   0
  -1  -7 -14  227.21    7.42   0
   1   7  14  218.19    6.06   0
  -2  -7 -14    9.89    2.10   0
   2   7  14    6.80    1.98   0
  -3  -7 -14   68.49    4.20   0
   3   7  14   70.83    4.33   0
  -4  -7 -14   81.96    5.19   0
   4   7  14   86.53    4.08   0
  -5  -7 -14   19.90    3.96   0
   5   7  14   16.94    2.97   0
  -7  -8  14   44.26    8.04   0
   7   8 -14   52.79    4.94   0
  -6  -8  14   17.06    6.80   0
   6   8 -14   13.60    5.07   0
  -5  -8  14    8.16    4.82   0
   5   8 -14    7.17    3.21   0
  -4  -8  14   98.03    7.66   0
   4   8 -14   91.85    5.56   0
  -3  -8  14   -1.73    5.69   0
   3   8 -14    4.33    3.71   0
  -2  -8  14    3.71    3.96   0
   2   8 -14   -0.37    2.97   0
  -1  -8  14   57.24    5.81   0
   1   8 -14   54.27    3.21   0
   0  -8 -14   -2.97    1.24   0
   0   8  14    3.21    2.97   0
  -1  -8 -14  128.56    6.06   0
   1   8  14  107.30    4.94   0
  -2  -8 -14   82.45    4.33   0
   2   8  14   94.94    5.44   0
  -3  -8 -14   93.21    5.19   0
   3   8  14   82.08    3.83   0
  -6  -9  14   87.89    8.53   0
   6   9 -14   75.90    5.32   0
  -5  -9  14  135.98    9.77   0
   5   9 -14  151.93    7.66   0
  -4  -9  14   58.10    6.80   0
   4   9 -14   45.24    4.94   0
  -3  -9  14    1.11    4.45   0
   3   9 -14    1.61    3.46   0
  -2  -9  14    4.57    6.43   0
   2   9 -14   10.63    4.70   0
  -1  -9  14   15.70    6.06   0
   1   9 -14    9.15    4.08   0
   0  -9 -14   27.44    6.18   0
   0   9  14   30.41    4.57   0
  -1  -9 -14   19.16    6.43   0
   1   9  14   20.89    3.34   0
  -2  -9 -14    0.49    4.20   0
   2   9  14    0.99    3.71   0
  -2 -10  14   98.15    8.53   0
   2  10 -14   90.12    6.06   0
 -11  -1  15   43.76    3.34   0
  11   1 -15   39.81    3.09   0
  10   1 -15   20.40    2.23   0
 -10  -1  15   18.67    1.85   0
  -9  -1  15   94.20    3.34   0
   9   1 -15   87.03    3.34   0
  -8  -1  15   84.43    2.23   0
   8   1 -15   83.07    2.60   0
  -7  -1  15  366.78    6.18   0
   7   1 -15  379.27    6.55   0
  -6  -1  15  647.89   11.13   0
   6   1 -15  635.04   10.14   0
  -5  -1  15  337.36    6.30   0
   5   1 -15  345.77    6.06   0
  -4  -1  15 1434.98   24.23   0
   4   1 -15 1396.91   23.36   0
  -3  -1  15  187.66    3.83   0
   3   1 -15  197.42    4.33   0
  -2  -1  15  109.65    2.35   0
   2   1 -15  113.36    3.21   0
  -1  -1  15   -0.37    0.99   0
   1   1 -15    1.85    1.11   0
   0  -1 -15  144.88    2.97   0
   0   1  15  143.77    3.34   0
  -1  -1 -15  238.46    4.82   0
   1   1  15  222.52    4.57   0
  -2  -1 -15  318.45    6.06   0
   2   1  15  306.82    6.06   0
  -3  -1 -15   73.92    2.47   0
   3   1  15   71.45    2.35   0
  -4  -1 -15   59.71    2.23   0
   4   1  15   62.43    2.72   0
  -5  -1 -15  134.62    5.44   0
   5   1  15  136.11    4.33   0
  -6  -1 -15   19.16    3.71   0
   6   1  15   16.19    2.47   0
  -7  -1 -15   89.38    5.19   0
   7   1  15   95.43    5.56   0
 -11  -2  15  118.43    4.82   0
  11   2 -15  102.73    5.19   0
  10   2 -15   25.09    2.47   0
 -10  -2  15   27.57    1.85   0
  -9  -2  15   17.18    1.48   0
   9   2 -15   18.79    2.10   0
  -8  -2  15  163.80    3.83   0
   8   2 -15  145.38    3.83   0
  -7  -2  15   20.27    1.24   0
   7   2 -15   19.16    1.36   0
  -6  -2  15   54.52    1.73   0
   6   2 -15   54.02    1.73   0
  -5  -2  15  183.70    3.96   0
   5   2 -15  179.87    3.71   0
  -4  -2  15   69.23    2.60   0
   4   2 -15   67.62    2.23   0
  -3  -2  15  376.92    8.28   0
   3   2 -15  382.60    7.17   0
  -2  -2  15  166.52    3.83   0
   2   2 -15  176.16    3.83   0
  -1  -2  15  458.63    8.41   0
   1   2 -15  462.59    8.65   0
   0  -2 -15  106.56    2.35   0
   0   2  15  101.12    2.72   0
  -1  -2 -15  141.42    3.34   0
   1   2  15  140.19    3.34   0
  -2  -2 -15    8.28    1.36   0
   2   2  15    8.65    1.48   0
  -3  -2 -15   56.25    2.23   0
   3   2  15   56.87    2.84   0
  -4  -2 -15    5.32    1.48   0
   4   2  15    7.29    1.85   0
  -5  -2 -15   10.01    2.84   0
   5   2  15   11.13    2.23   0
  -6  -2 -15  119.17    5.81   0
   6   2  15  126.34    4.82   0
  -7  -2 -15   71.82    4.70   0
   7   2  15   69.60    4.33   0
 -11  -3  15   54.02    4.20   0
  11   3 -15   61.69    5.07   0
 -10  -3  15   67.87    3.34   0
  10   3 -15   79.61    3.71   0
  -9  -3  15   86.78    2.60   0
   9   3 -15   81.47    3.46   0
  -8  -3  15    7.66    1.36   0
   8   3 -15    8.04    2.23   0
  -7  -3  15    2.60    0.99   0
   7   3 -15    1.24    1.61   0
  -6  -3  15   62.80    1.98   0
   6   3 -15   61.19    2.10   0
  -5  -3  15  103.35    3.34   0
   5   3 -15   97.78    2.60   0
  -4  -3  15  451.09    9.52   0
   4   3 -15  461.72    8.65   0
  -3  -3  15   97.04    3.09   0
   3   3 -15   91.73    3.09   0
  -2  -3  15   -1.36    1.24   0
   2   3 -15   -1.61    2.47   0
  -1  -3  15  334.52    7.66   0
   1   3 -15  321.66    6.43   0
   0  -3 -15    1.85    1.36   0
   0   3  15    1.98    1.36   0
  -1  -3 -15   63.05    2.72   0
   1   3  15   56.74    2.10   0
  -2  -3 -15  125.97    5.07   0
   2   3  15  131.53    4.20   0
  -3  -3 -15  310.29    7.54   0
   3   3  15  326.23    7.79   0
  -4  -3 -15  171.71    6.06   0
   4   3  15  167.13    4.82   0
  -5  -3 -15   18.17    3.09   0
   5   3  15   20.27    2.47   0
  -6  -3 -15    1.98    4.20   0
   6   3  15    1.98    1.85   0
  10   4 -15   94.94    4.20   0
  -9  -4  15   52.17    3.46   0
   9   4 -15   51.18    3.46   0
  -8  -4  15  230.18    7.42   0
   8   4 -15  205.95    5.93   0
  -7  -4  15   52.29    5.32   0
   7   4 -15   51.67    2.97   0
  -6  -4  15    1.85    1.61   0
   6   4 -15   -1.24    1.98   0
  -5  -4  15  368.63    8.53   0
   5   4 -15  349.97    6.92   0
  -4  -4  15    3.21    1.48   0
   4   4 -15    3.83    1.24   0
  -3  -4  15  108.91    3.46   0
   3   4 -15  109.90    3.09   0
  -2  -4  15  254.78    5.32   0
   2   4 -15  270.36    5.56   0
  -1  -4  15  164.79    4.08   0
   1   4 -15  170.47    4.57   0
   0  -4 -15   37.70    3.09   0
   0   4  15   27.32    1.98   0
  -1  -4 -15  968.19   33.13   0
   1   4  15  900.94   18.17   0
  -2  -4 -15   11.99    2.10   0
   2   4  15   10.51    1.98   0
  -3  -4 -15   39.43    2.97   0
   3   4  15   45.99    2.72   0
  -4  -4 -15   11.87    2.35   0
   4   4  15    9.15    1.98   0
  -5  -4 -15    2.72    2.23   0
   5   4  15   -0.99    1.98   0
  -6  -4 -15   26.58    3.58   0
   6   4  15   28.68    2.60   0
  10   5 -15    3.96    2.47   0
  -9  -5  15   15.58    6.43   0
   9   5 -15    7.17    2.47   0
  -8  -5  15   28.31    2.60   0
   8   5 -15   36.10    2.84   0
  -7  -5  15   20.52    5.56   0
   7   5 -15    6.18    3.09   0
  -6  -5  15   16.69    3.71   0
   6   5 -15   22.13    2.97   0
  -5  -5  15    7.79    2.23   0
   5   5 -15    3.34    1.73   0
  -4  -5  15  361.71   10.63   0
   4   5 -15  368.39    7.29   0
  -3  -5  15   24.23    2.72   0
   3   5 -15   25.34    1.85   0
  -2  -5  15    0.12    2.84   0
   2   5 -15    5.19    1.61   0
  -1  -5  15   31.40    2.10   0
   1   5 -15   29.05    2.10   0
   0  -5 -15    8.41    2.10   0
   0   5  15    9.52    1.61   0
  -1  -5 -15   42.65    2.97   0
   1   5  15   45.37    2.60   0
  -2  -5 -15  260.96    8.28   0
   2   5  15  271.22    6.92   0
  -3  -5 -15    1.85    1.98   0
   3   5  15    5.19    1.98   0
  -4  -5 -15    2.10    2.60   0
   4   5  15    2.10    2.23   0
  -5  -5 -15    5.07    2.47   0
   5   5  15    5.81    2.10   0
  -9  -6  15   83.57    7.66   0
   9   6 -15   91.60    5.32   0
  -8  -6  15  402.63   13.35   0
   8   6 -15  366.78   10.51   0
  -7  -6  15   -6.18    3.96   0
   7   6 -15   -4.20    2.72   0
  -6  -6  15    1.48    3.96   0
   6   6 -15    3.71    3.09   0
  -5  -6  15   27.69    4.45   0
   5   6 -15   28.19    3.21   0
  -4  -6  15   43.39    3.21   0
   4   6 -15   49.70    2.72   0
  -3  -6  15  125.23    4.94   0
   3   6 -15  135.98    4.33   0
  -2  -6  15   98.28    4.70   0
   2   6 -15   97.54    3.71   0
  -1  -6  15  182.22    5.19   0
   1   6 -15  188.27    5.32   0
   0   6  15  183.33    5.56   0
   0  -6 -15  187.16    6.30   0
  -1  -6 -15  329.08    9.64   0
   1   6  15  324.38    8.41   0
  -2  -6 -15   63.17    3.58   0
   2   6  15   58.84    2.72   0
  -3  -6 -15   51.55    3.58   0
   3   6  15   43.27    3.09   0
  -4  -6 -15  138.45    6.30   0
   4   6  15  133.14    5.07   0
  -5  -6 -15  117.56    6.06   0
   5   6  15  116.82    4.57   0
  -8  -7  15   20.40    5.44   0
   8   7 -15   15.33    3.09   0
  -7  -7  15   15.95    4.82   0
   7   7 -15   13.60    3.71   0
  -6  -7  15   -6.18    3.96   0
   6   7 -15    0.99    3.21   0
  -5  -7  15    0.74    3.96   0
   5   7 -15    2.35    2.72   0
  -4  -7  15    5.44    3.83   0
   4   7 -15    2.60    3.34   0
  -3  -7  15    4.94    5.19   0
   3   7 -15   -1.36    3.71   0
  -2  -7  15   34.49    4.57   0
   2   7 -15   35.97    2.72   0
  -1  -7  15    8.28    2.35   0
   1   7 -15   12.86    2.47   0
   0  -7 -15   14.96    2.23   0
   0   7  15   12.98    2.60   0
  -1  -7 -15   12.86    2.23   0
   1   7  15   10.26    2.35   0
  -2  -7 -15   20.03    2.84   0
   2   7  15   17.68    2.35   0
  -3  -7 -15   44.75    6.30   0
   3   7  15   42.90    3.21   0
  -4  -7 -15   68.36    4.57   0
   4   7  15   63.17    5.32   0
  -7  -8  15   18.91    7.79   0
   7   8 -15   37.09    5.56   0
  -6  -8  15    9.27    5.07   0
   6   8 -15    8.04    3.58   0
  -5  -8  15  147.85    9.77   0
   5   8 -15  131.90    6.92   0
  -4  -8  15    5.69    6.06   0
   4   8 -15    3.83    4.57   0
  -3  -8  15   44.38    5.69   0
   3   8 -15   49.08    4.82   0
  -2  -8  15  259.35   14.34   0
   2   8 -15  242.67    9.77   0
  -1  -8  15   27.44    4.57   0
   1   8 -15   30.90    2.84   0
   0  -8 -15   64.28    3.58   0
   0   8  15   51.18    3.34   0
  -1  -8 -15  192.97    7.66   0
   1   8  15  190.99    6.43   0
  -2  -8 -15   49.20    4.08   0
   2   8  15   34.98    4.57   0
  -3  -8 -15   42.77    3.46   0
   3   8  15   37.58    2.97   0
  -5  -9  15   35.85    6.06   0
   5   9 -15   19.90    4.45   0
  -4  -9  15   23.24    7.05   0
   4   9 -15   25.47    4.70   0
  -3  -9  15   33.87    6.06   0
   3   9 -15   38.82    4.57   0
  -2  -9  15   -3.71    4.45   0
   2   9 -15   -0.25    3.34   0
  -1  -9  15   32.76    5.32   0
   1   9 -15   28.06    4.45   0
   0  -9 -15   48.83    5.56   0
   0   9  15   52.91    4.70   0
  -1  -9 -15   41.29    5.93   0
   1   9  15   45.86    4.82   0
  11   0 -16   25.59    3.09   0
  10   0 -16   56.37    3.09   0
   9   0 -16  276.54    6.55   0
   8   0 -16  421.91    8.04   0
   7   0 -16   18.17    1.36   0
   6   0 -16  514.38    8.53   0
   5   0 -16  147.11    3.46   0
   4   0 -16  603.51   10.75   0
   3   0 -16  181.60    4.82   0
   2   0 -16  327.35    6.43   0
   1   0 -16   99.02    2.47   0
   0   0  16  794.63   13.60   0
   1   0  16   45.74    1.85   0
   2   0  16   -3.21    1.85   0
   3   0  16  689.68   12.49   0
   4   0  16  373.33    8.53   0
   5   0  16    2.10    2.10   0
   6   0  16   13.10    3.21   0
 -11  -1  16   11.37    2.47   0
  11   1 -16   12.36    2.84   0
 -10  -1  16    1.73    1.61   0
  10   1 -16    2.84    1.73   0
  -9  -1  16    8.16    1.61   0
   9   1 -16    4.57    1.73   0
  -8  -1  16   13.10    1.48   0
   8   1 -16    7.66    1.48   0
  -7  -1  16    3.09    1.11   0
   7   1 -16    2.84    1.11   0
  -6  -1  16    5.07    1.24   0
   6   1 -16    4.70    1.11   0
  -5  -1  16  115.83    2.72   0
   5   1 -16  114.60    3.46   0
  -4  -1  16  190.99    3.83   0
   4   1 -16  179.37    4.82   0
  -3  -1  16   15.95    0.99   0
   3   1 -16   10.88    1.98   0
  -2  -1  16   25.84    1.11   0
   2   1 -16   25.84    2.23   0
  -1  -1  16  230.67    4.08   0
   1   1 -16  230.30    4.82   0
   0  -1 -16   43.76    1.73   0
   0   1  16   43.02    1.73   0
  -1  -1 -16   40.30    1.73   0
   1   1  16   35.36    1.61   0
  -2  -1 -16   13.23    1.36   0
   2   1  16   11.62    1.48   0
  -3  -1 -16   70.59    2.35   0
   3   1  16   68.49    2.35   0
  -4  -1 -16   42.65    2.72   0
   4   1  16   54.15    2.72   0
  -5  -1 -16   -2.97    3.71   0
   5   1  16   -1.98    2.47   0
  -6  -1 -16    8.04    3.21   0
   6   1  16    6.68    2.72   0
 -11  -2  16    1.61    2.23   0
  11   2 -16    0.25    2.84   0
 -10  -2  16   55.38    2.72   0
  10   2 -16   52.17    3.09   0
  -9  -2  16   91.23    3.09   0
   9   2 -16   88.14    3.34   0
  -8  -2  16   75.53    2.47   0
   8   2 -16   78.38    3.21   0
  -7  -2  16    3.83    1.11   0
   7   2 -16    1.61    1.36   0
  -6  -2  16  216.95    4.57   0
   6   2 -16  215.59    4.20   0
  -5  -2  16  456.28    8.41   0
   5   2 -16  435.27    8.65   0
  -4  -2  16  824.55   16.32   0
   4   2 -16  811.07   16.44   0
  -3  -2  16  132.52    4.08   0
   3   2 -16  128.19    3.83   0
  -2  -2  16   13.97    1.48   0
   2   2 -16   13.97    1.85   0
  -1  -2  16    9.15    1.48   0
   1   2 -16    8.04    1.85   0
   0  -2 -16  217.45    4.45   0
   0   2  16  220.79    4.70   0
  -1  -2 -16  279.38    5.44   0
   1   2  16  277.16    5.56   0
  -2  -2 -16    1.48    1.24   0
   2   2  16    2.47    1.48   0
  -3  -2 -16  275.18    5.81   0
   3   2  16  288.16    7.05   0
  -4  -2 -16   38.82    3.34   0
   4   2  16   33.87    2.60   0
  -5  -2 -16    1.36    2.23   0
   5   2  16    3.09    2.60   0
  -6  -2 -16   11.50    2.72   0
   6   2  16    9.52    2.84   0
 -10  -3  16   91.36    4.08   0
  10   3 -16   95.56    4.20   0
  -9  -3  16   28.68    1.85   0
   9   3 -16   35.97    2.97   0
  -8  -3  16   30.04    1.61   0
   8   3 -16   31.89    2.60   0
  -7  -3  16   17.06    1.36   0
   7   3 -16   15.33    2.23   0
  -6  -3  16    3.96    1.98   0
   6   3 -16    4.70    1.61   0
  -5  -3  16  305.84    7.17   0
   5   3 -16  317.09    6.43   0
  -4  -3  16  334.14    7.54   0
   4   3 -16  355.53    6.92   0
  -3  -3  16  209.78    5.32   0
   3   3 -16  216.71    5.44   0
  -2  -3  16   82.83    2.72   0
   2   3 -16   84.19    3.21   0
  -1  -3  16  466.17   10.26   0
   1   3 -16  451.34    9.64   0
   0   3  16  204.84    5.32   0
   0  -3 -16  198.41    5.19   0
  -1  -3 -16   29.55    2.23   0
   1   3  16   29.42    1.98   0
  -2  -3 -16    4.33    1.98   0
   2   3  16    1.24    1.98   0
  -3  -3 -16    9.52    2.35   0
   3   3  16    8.65    2.10   0
  -4  -3 -16   11.99    2.72   0
   4   3  16   12.36    1.98   0
  -5  -3 -16   50.31    3.96   0
   5   3  16   49.82    3.09   0
  -6  -3 -16   47.47    3.83   0
   6   3  16   42.03    3.71   0
  10   4 -16   56.25    3.58   0
  -9  -4  16    4.33    2.47   0
   9   4 -16    3.46    2.47   0
  -8  -4  16    4.33    1.98   0
   8   4 -16    2.97    2.35   0
  -7  -4  16    1.61    3.58   0
   7   4 -16    1.48    2.10   0
  -6  -4  16  113.48    5.07   0
   6   4 -16  115.09    5.56   0
  -5  -4  16   36.34    2.47   0
   5   4 -16   29.42    1.85   0
  -4  -4  16   13.97    1.85   0
   4   4 -16   19.28    1.98   0
  -3  -4  16  148.71    4.45   0
   3   4 -16  154.40    3.96   0
  -2  -4  16  133.39    3.58   0
   2   4 -16  130.91    3.96   0
  -1  -4  16    9.64    1.48   0
   1   4 -16   11.62    2.47   0
   0  -4 -16   86.53    3.96   0
   0   4  16   73.80    2.97   0
  -1  -4 -16  151.68    8.53   0
   1   4  16  136.23    4.08   0
  -2  -4 -16    0.99    2.10   0
   2   4  16    1.48    1.85   0
  -3  -4 -16    4.33    2.23   0
   3   4  16    1.48    1.98   0
  -4  -4 -16    2.84    3.34   0
   4   4  16    2.72    1.98   0
  -5  -4 -16    3.58    2.97   0
   5   4  16    0.37    2.10   0
  -9  -5  16   37.21    2.84   0
   9   5 -16   28.80    2.84   0
  -8  -5  16   86.90    4.45   0
   8   5 -16   81.09    3.83   0
  -7  -5  16    6.43    3.96   0
   7   5 -16    6.06    2.72   0
  -6  -5  16    9.27    5.44   0
   6   5 -16    7.05    3.58   0
  -5  -5  16  196.93    9.52   0
   5   5 -16  189.26    9.40   0
  -4  -5  16  335.50   10.26   0
   4   5 -16  331.55    9.40   0
  -3  -5  16   83.07    3.96   0
   3   5 -16   98.77    3.34   0
  -2  -5  16    3.21    2.47   0
   2   5 -16    8.04    1.98   0
  -1  -5  16  253.92    8.04   0
   1   5 -16  237.10    6.30   0
   0  -5 -16    0.99    1.73   0
   0   5  16    0.62    2.60   0
  -1  -5 -16   27.32    2.60   0
   1   5  16   31.77    2.60   0
  -2  -5 -16  121.15    4.57   0
   2   5  16  113.61    4.08   0
  -3  -5 -16   61.19    3.83   0
   3   5  16   54.27    3.21   0
  -4  -5 -16   30.16    3.71   0
   4   5  16   20.40    2.60   0
  -5  -5 -16   33.01    4.20   0
   5   5  16   41.66    3.09   0
  -9  -6  16   18.17    5.69   0
   9   6 -16   19.04    2.84   0
  -8  -6  16    5.44    2.47   0
   8   6 -16    0.12    2.47   0
  -7  -6  16    2.97    5.93   0
   7   6 -16    1.73    3.46   0
  -6  -6  16   -2.72    4.20   0
   6   6 -16   -0.62    2.97   0
  -5  -6  16    7.66    4.20   0
   5   6 -16   -1.36    2.97   0
  -4  -6  16    9.15    5.32   0
   4   6 -16    4.45    2.84   0
  -3  -6  16    0.37    4.94   0
   3   6 -16   -3.21    3.09   0
  -2  -6  16    5.93    3.58   0
   2   6 -16    8.28    1.85   0
  -1  -6  16   22.75    2.84   0
   1   6 -16   12.73    2.60   0
   0  -6 -16    4.45    2.35   0
   0   6  16   -0.99    1.61   0
  -1  -6 -16    1.36    2.47   0
   1   6  16    3.09    1.73   0
  -2  -6 -16    0.99    2.47   0
   2   6  16   -0.37    2.35   0
  -3  -6 -16   12.11    3.58   0
   3   6  16    9.02    2.47   0
  -4  -6 -16   53.03    3.83   0
   4   6  16   61.32    3.83   0
  -8  -7  16   40.42    6.68   0
   8   7 -16   33.01    3.34   0
  -7  -7  16  154.90    9.89   0
   7   7 -16  127.08    6.55   0
  -6  -7  16   27.57    5.32   0
   6   7 -16   16.32    4.08   0
  -5  -7  16   99.88    8.78   0
   5   7 -16   78.62    5.32   0
  -4  -7  16  151.31   10.26   0
   4   7 -16  143.52    7.17   0
  -3  -7  16   -1.48    3.71   0
   3   7 -16    0.25    3.09   0
  -2  -7  16   12.49    5.56   0
   2   7 -16   10.38    2.60   0
  -1  -7  16   92.59    3.96   0
   1   7 -16   95.43    3.96   0
   0  -7 -16    5.44    2.47   0
   0   7  16    1.98    2.10   0
  -1  -7 -16   14.46    2.47   0
   1   7  16    7.66    2.23   0
  -2  -7 -16   16.94    2.97   0
   2   7  16   14.96    2.35   0
  -3  -7 -16    2.72    2.72   0
   3   7  16    4.45    2.23   0
  -6  -8  16   16.44    5.44   0
   6   8 -16   11.74    3.71   0
  -5  -8  16   26.21    7.05   0
   5   8 -16   30.41    4.20   0
  -4  -8  16   36.59    5.69   0
   4   8 -16   41.66    4.45   0
  -3  -8  16    3.34    4.33   0
   3   8 -16    2.60    3.34   0
  -2  -8  16   14.34    4.94   0
   2   8 -16   14.83    3.71   0
  -1  -8  16   29.92    4.82   0
   1   8 -16   35.23    4.08   0
   0  -8 -16  223.26   12.98   0
   0   8  16  216.46    7.54   0
  -1  -8 -16    1.85    2.72   0
   1   8  16   -0.49    3.58   0
  -2  -8 -16   25.71    3.09   0
   2   8  16   20.64    3.46   0
  -3  -9  16   33.87    7.66   0
   3   9 -16   29.92    4.94   0
  -2  -9  16    7.29    6.80   0
   2   9 -16    9.15    5.44   0
  -1  -9  16   90.12    8.78   0
   1   9 -16   82.70    5.69   0
 -10  -1  17    7.17    1.98   0
  10   1 -17   12.36    2.35   0
  -9  -1  17    1.73    1.61   0
   9   1 -17    2.47    1.48   0
  -8  -1  17   13.10    1.61   0
   8   1 -17   11.50    2.10   0
  -7  -1  17  156.26    3.46   0
   7   1 -17  165.03    3.58   0
  -6  -1  17   60.70    1.98   0
   6   1 -17   61.44    2.10   0
  -5  -1  17  283.21    5.56   0
   5   1 -17  270.11    5.69   0
  -4  -1  17   20.03    1.24   0
   4   1 -17   21.26    1.98   0
  -3  -1  17   51.30    1.36   0
   3   1 -17   44.63    2.72   0
  -2  -1  17  171.09    3.71   0
   2   1 -17  158.23    5.69   0
  -1  -1  17  269.86    5.32   0
   1   1 -17  262.57    5.44   0
   0  -1 -17    2.72    0.99   0
   0   1  17   -0.99    1.24   0
  -1  -1 -17   52.66    1.98   0
   1   1  17   44.01    1.85   0
  -2  -1 -17  445.90    8.78   0
   2   1  17  451.21    8.41   0
  -3  -1 -17    1.11    1.98   0
   3   1  17    2.60    1.85   0
  -4  -1 -17   13.97    2.47   0
   4   1  17   15.58    2.60   0
  -5  -1 -17  195.57    8.04   0
   5   1  17  198.53    6.80   0
  -6  -1 -17   41.66    3.71   0
   6   1  17   41.29    3.46   0
 -10  -2  17    5.07    1.73   0
  10   2 -17    4.70    2.72   0
  -9  -2  17   13.10    1.73   0
   9   2 -17   12.11    1.98   0
  -8  -2  17   16.19    1.73   0
   8   2 -17   19.41    1.98   0
  -7  -2  17    9.27    1.24   0
   7   2 -17    6.80    1.61   0
  -6  -2  17   18.42    1.11   0
   6   2 -17   20.15    1.73   0
  -5  -2  17   46.60    1.36   0
   5   2 -17   42.40    2.60   0
  -4  -2  17   25.09    2.60   0
   4   2 -17   30.53    2.60   0
  -3  -2  17  319.56    7.54   0
   3   2 -17  338.97    9.64   0
  -2  -2  17   85.05    2.72   0
   2   2 -17   84.56    3.71   0
  -1  -2  17  156.75    4.57   0
   1   2 -17  152.67    4.45   0
   0  -2 -17  166.15    3.58   0
   0   2  17  159.59    3.83   0
  -1  -2 -17   44.13    1.85   0
   1   2  17   45.62    2.10   0
  -2  -2 -17   -6.92    2.84   0
   2   2  17    2.35    1.85   0
  -3  -2 -17   75.90    3.34   0
   3   2  17   78.00    3.46   0
  -4  -2 -17    2.47    2.35   0
   4   2  17   -0.99    1.73   0
  -5  -2 -17    3.09    2.47   0
   5   2  17   -1.61    2.72   0
 -10  -3  17   28.43    3.71   0
  10   3 -17   21.88    2.84   0
  -9  -3  17   -0.74    2.35   0
   9   3 -17   -2.84    2.97   0
  -8  -3  17   49.70    2.60   0
   8   3 -17   55.38    3.21   0
  -7  -3  17   61.44    3.83   0
   7   3 -17   64.28    3.34   0
  -6  -3  17   71.08    3.09   0
   6   3 -17   77.76    3.21   0
  -5  -3  17   17.18    1.98   0
   5   3 -17   12.73    2.23   0
  -4  -3  17    6.06    1.61   0
   4   3 -17    5.56    1.85   0
  -3  -3  17  102.48    3.58   0
   3   3 -17  109.90    4.45   0
  -2  -3  17   20.64    1.98   0
   2   3 -17   16.69    2.35   0
  -1  -3  17   26.08    2.23   0
   1   3 -17   21.88    1.98   0
   0  -3 -17   -0.37    1.48   0
   0   3  17   -1.48    1.24   0
  -1  -3 -17   -0.87    2.23   0
   1   3  17    0.62    1.85   0
  -2  -3 -17  150.45    5.56   0
   2   3  17  143.40    4.57   0
  -3  -3 -17    6.06    3.09   0
   3   3  17    7.17    2.35   0
  -4  -3 -17    3.21    2.47   0
   4   3  17    5.56    1.98   0
  -5  -3 -17  159.47    7.17   0
   5   3  17  155.51    5.69   0
  10   4 -17    1.85    2.47   0
  -9  -4  17    5.81    2.72   0
   9   4 -17   -3.21    3.34   0
  -8  -4  17    9.89    2.10   0
   8   4 -17   10.63    2.47   0
  -7  -4  17    8.04    2.72   0
   7   4 -17   14.71    2.35   0
  -6  -4  17  101.99    5.19   0
   6   4 -17   93.95    4.94   0
  -5  -4  17   -0.25    2.60   0
   5   4 -17    3.21    2.10   0
  -4  -4  17   18.42    1.98   0
   4   4 -17   18.17    1.98   0
  -3  -4  17   38.69    2.47   0
   3   4 -17   43.51    2.60   0
  -2  -4  17   59.71    2.72   0
   2   4 -17   59.71    3.34   0
  -1  -4  17  321.54    7.91   0
   1   4 -17  314.12    9.40   0
   0  -4 -17   25.09    2.60   0
   0   4  17   24.85    2.35   0
  -1  -4 -17  473.84   18.67   0
   1   4  17  438.97   10.14   0
  -2  -4 -17    2.47    2.23   0
   2   4  17    2.23    1.98   0
  -3  -4 -17   -2.97    2.23   0
   3   4  17   -0.62    1.73   0
  -4  -4 -17    0.74    2.60   0
   4   4  17    3.21    2.84   0
  -5  -4 -17    1.36    3.71   0
   5   4  17   -2.84    2.97   0
  -9  -5  17   12.98    2.47   0
   9   5 -17    9.64    2.47   0
  -8  -5  17   -4.45    4.33   0
   8   5 -17   -1.24    3.71   0
  -7  -5  17   35.11    5.32   0
   7   5 -17   34.12    3.96   0
  -6  -5  17   19.53    4.33   0
   6   5 -17   25.22    3.71   0
  -5  -5  17   14.96    5.44   0
   5   5 -17   15.95    4.20   0
  -4  -5  17    0.12    4.82   0
   4   5 -17    0.49    2.10   0
  -3  -5  17    2.47    2.72   0
   3   5 -17    8.65    2.35   0
  -2  -5  17   15.95    3.83   0
   2   5 -17   18.30    2.35   0
  -1  -5  17    3.83    2.23   0
   1   5 -17   -2.47    2.97   0
   0  -5 -17    3.34    2.35   0
   0   5  17    3.21    2.97   0
  -1  -5 -17   43.14    3.09   0
   1   5  17   41.29    3.09   0
  -2  -5 -17    0.99    2.60   0
   2   5  17   -0.49    1.85   0
  -3  -5 -17  101.86    5.69   0
   3   5  17   90.00    4.33   0
  -4  -5 -17    1.73    2.72   0
   4   5  17    0.00    2.10   0
  -8  -6  17   11.00    2.60   0
   8   6 -17    6.06    2.47   0
  -7  -6  17  216.46   12.24   0
   7   6 -17  214.98   12.98   0
  -6  -6  17   65.15    7.66   0
   6   6 -17   38.32    4.33   0
  -5  -6  17   -5.32    5.69   0
   5   6 -17   -5.81    4.20   0
  -4  -6  17   17.18    4.33   0
   4   6 -17   20.40    3.83   0
  -3  -6  17   20.52    4.33   0
   3   6 -17   14.09    2.97   0
  -2  -6  17   10.63    5.44   0
   2   6 -17    6.18    2.23   0
  -1  -6  17  137.59    5.19   0
   1   6 -17  130.54    4.57   0
   0  -6 -17  106.31    5.07   0
   0   6  17   89.01    4.08   0
  -1  -6 -17   13.23    2.97   0
   1   6  17   14.22    2.23   0
  -2  -6 -17    2.72    2.23   0
   2   6  17    1.85    2.23   0
  -3  -6 -17   71.33    4.70   0
   3   6  17   71.95    3.83   0
  -7  -7  17    3.46    7.05   0
   7   7 -17   -1.24    4.94   0
  -6  -7  17   55.01    7.79   0
   6   7 -17   55.51    5.81   0
  -5  -7  17   16.44    5.19   0
   5   7 -17   17.55    4.33   0
  -4  -7  17    0.99    4.33   0
   4   7 -17    1.11    3.34   0
  -3  -7  17   14.46    6.18   0
   3   7 -17   13.10    4.70   0
  -2  -7  17   -3.46    3.83   0
   2   7 -17    0.99    3.09   0
  -1  -7  17   -2.97    2.72   0
   1   7 -17   -2.23    2.60   0
   0  -7 -17   50.07    4.08   0
   0   7  17   30.29    2.97   0
  -1  -7 -17   16.07    3.58   0
   1   7  17   18.05    3.46   0
  -2  -7 -17   58.72    4.33   0
   2   7  17   48.83    3.21   0
  -5  -8  17    2.47    5.07   0
   5   8 -17    2.10    3.83   0
  -4  -8  17   38.32    6.18   0
   4   8 -17   30.90    4.20   0
  -3  -8  17   64.04    6.68   0
   3   8 -17   56.37    5.19   0
  -2  -8  17   87.77    9.15   0
   2   8 -17   74.05    6.06   0
  -1  -8  17   58.23    7.54   0
   1   8 -17   50.68    4.57   0
   0  -8 -17   12.98    6.55   0
   0   8  17   12.86    3.83   0
  10   0 -18  176.16    5.69   0
   9   0 -18  148.34    4.94   0
   8   0 -18    9.64    1.73   0
   7   0 -18  377.41    7.29   0
   6   0 -18    1.73    1.36   0
   5   0 -18   29.92    1.73   0
   4   0 -18  230.55    5.56   0
   3   0 -18  155.14    5.81   0
   2   0 -18  231.17    5.69   0
   1   0 -18    0.00    1.36   0
   0   0  18  273.45    5.44   0
   1   0  18  171.21    5.07   0
   2   0  18 1326.32   26.45   0
   3   0  18  161.69    4.82   0
   4   0  18   22.87    2.47   0
   5   0  18   12.36    3.21   0
 -10  -1  18   -0.62    2.23   0
  10   1 -18    3.21    2.60   0
  -9  -1  18    4.33    1.85   0
   9   1 -18   -1.24    1.98   0
  -8  -1  18   -1.85    2.35   0
   8   1 -18    2.23    2.23   0
  -7  -1  18    2.10    1.36   0
   7   1 -18   -2.60    2.23   0
  -6  -1  18    1.36    1.11   0
   6   1 -18    2.35    1.61   0
  -5  -1  18   22.13    1.24   0
   5   1 -18   17.43    1.85   0
  -4  -1  18    1.24    0.74   0
   4   1 -18   -2.10    2.60   0
  -3  -1  18   92.84    2.10   0
   3   1 -18   90.49    4.08   0
  -2  -1  18  101.49    2.60   0
   2   1 -18   91.23    4.20   0
  -1  -1  18   27.94    1.36   0
   1   1 -18   32.88    1.73   0
   0  -1 -18    8.53    1.24   0
   0   1  18    9.52    1.48   0
  -1  -1 -18   14.34    2.47   0
   1   1  18   11.87    1.73   0
  -2  -1 -18   25.09    2.47   0
   2   1  18   21.26    2.35   0
  -3  -1 -18    5.19    2.84   0
   3   1  18    7.66    2.10   0
  -4  -1 -18   27.07    2.60   0
   4   1  18   29.17    2.72   0
  -5  -1 -18   -0.62    2.72   0
   5   1  18   -2.84    2.97   0
 -10  -2  18   12.73    2.47   0
  10   2 -18   10.75    2.60   0
  -9  -2  18   46.11    3.09   0
   9   2 -18   42.03    2.84   0
  -8  -2  18   13.47    2.47   0
   8   2 -18   14.71    2.35   0
  -7  -2  18  247.73    7.91   0
   7   2 -18  256.51    6.55   0
  -6  -2  18   19.53    2.35   0
   6   2 -18   25.96    1.85   0
  -5  -2  18   37.70    2.35   0
   5   2 -18   34.24    2.60   0
  -4  -2  18  111.26    3.96   0
   4   2 -18  124.36    5.07   0
  -3  -2  18   38.45    2.84   0
   3   2 -18   49.32    3.34   0
  -2  -2  18    2.35    1.98   0
   2   2 -18    9.40    2.23   0
  -1  -2  18   17.92    2.23   0
   1   2 -18   15.70    1.48   0
   0  -2 -18   56.74    2.72   0
   0   2  18   54.39    2.23   0
  -1  -2 -18   16.44    2.35   0
   1   2  18   12.73    2.47   0
  -2  -2 -18  551.35   11.99   0
   2   2  18  554.06   11.87   0
  -3  -2 -18   13.60    2.35   0
   3   2  18   11.37    2.35   0
  -4  -2 -18    6.30    3.09   0
   4   2  18    8.41    2.60   0
  -5  -2 -18   19.28    4.20   0
   5   2  18   10.51    2.47   0
  -9  -3  18   39.81    3.46   0
   9   3 -18   48.34    3.34   0
  -8  -3  18    5.93    2.35   0
   8   3 -18    7.42    2.47   0
  -7  -3  18   12.36    2.60   0
   7   3 -18   14.96    2.35   0
  -6  -3  18   63.29    4.45   0
   6   3 -18   58.84    3.96   0
  -5  -3  18    3.46    1.73   0
   5   3 -18    5.07    2.23   0
  -4  -3  18    0.74    2.10   0
   4   3 -18   -1.98    3.09   0
  -3  -3  18  333.65    7.91   0
   3   3 -18  355.90   10.14   0
  -2  -3  18  619.83   13.47   0
   2   3 -18  618.72   15.95   0
  -1  -3  18   45.12    3.34   0
   1   3 -18   52.04    3.21   0
   0  -3 -18   -0.37    1.61   0
   0   3  18   -0.87    1.48   0
  -1  -3 -18   94.32    3.96   0
   1   3  18   89.38    3.58   0
  -2  -3 -18    3.34    3.21   0
   2   3  18    1.11    1.98   0
  -3  -3 -18    8.16    2.97   0
   3   3  18    7.05    2.35   0
  -4  -3 -18  167.26    7.42   0
   4   3  18  164.79    5.81   0
  -9  -4  18    3.58    2.72   0
   9   4 -18   -2.60    2.47   0
  -8  -4  18   34.74    3.46   0
   8   4 -18   28.31    2.97   0
  -7  -4  18  172.82    7.66   0
   7   4 -18  190.99    6.55   0
  -6  -4  18   32.14    3.46   0
   6   4 -18   34.98    3.83   0
  -5  -4  18   17.92    2.60   0
   5   4 -18   15.33    3.34   0
  -4  -4  18   -2.72    1.73   0
   4   4 -18    2.35    1.98   0
  -3  -4  18   36.72    3.21   0
   3   4 -18   39.31    2.72   0
  -2  -4  18    0.74    2.35   0
   2   4 -18   -0.62    1.85   0
  -1  -4  18    1.85    1.73   0
   1   4 -18   -1.11    2.72   0
   0  -4 -18   84.43    4.33   0
   0   4  18   76.15    3.46   0
  -1  -4 -18    8.53    2.60   0
   1   4  18   11.87    2.10   0
  -2  -4 -18   21.02    2.97   0
   2   4  18   19.28    3.09   0
  -3  -4 -18    7.17    3.58   0
   3   4  18   10.01    2.47   0
  -4  -4 -18    1.61    2.72   0
   4   4  18    5.93    2.72   0
  -8  -5  18   50.93    3.96   0
   8   5 -18   52.04    3.34   0
  -7  -5  18   96.30    8.90   0
   7   5 -18   79.73    5.44   0
  -6  -5  18   20.64    5.07   0
   6   5 -18   21.02    3.34   0
   5   5 -18   41.41    4.20   0
  -5  -5  18   42.28    4.94   0
  -4  -5  18   18.30    4.20   0
   4   5 -18   16.32    3.83   0
  -3  -5  18  286.06   12.49   0
   3   5 -18  273.82    7.29   0
  -2  -5  18  356.27   14.22   0
   2   5 -18  360.85    8.53   0
  -1  -5  18   39.81    3.58   0
   1   5 -18   37.46    2.60   0
   0  -5 -18   14.83    2.97   0
   0   5  18   14.22    2.72   0
  -1  -5 -18   -4.20    1.98   0
   1   5  18    0.74    1.98   0
  -2  -5 -18   28.43    3.46   0
   2   5  18   27.69    2.84   0
  -3  -5 -18   23.74    4.08   0
   3   5  18   18.91    2.72   0
  -7  -6  18    2.97    5.07   0
   7   6 -18   -2.47    3.21   0
  -6  -6  18   11.62    5.19   0
   6   6 -18   16.57    3.71   0
  -5  -6  18    2.72    4.20   0
   5   6 -18    2.10    3.46   0
  -4  -6  18   31.28    6.68   0
   4   6 -18   30.29    4.20   0
  -3  -6  18   -1.98    3.96   0
   3   6 -18    0.62    3.09   0
  -2  -6  18   39.43    5.19   0
   2   6 -18   37.46    3.46   0
  -1  -6  18   -1.61    2.60   0
   1   6 -18   -0.62    2.47   0
   0  -6 -18   24.23    2.84   0
   0   6  18   23.12    2.97   0
  -1  -6 -18   14.46    3.21   0
   1   6  18    0.99    2.72   0
  -2  -6 -18   10.75    2.72   0
   2   6  18    3.83    2.10   0
  -6  -7  18   52.54    6.68   0
   6   7 -18   27.44    4.20   0
  -5  -7  18  137.71    9.52   0
   5   7 -18  140.19    9.64   0
  -4  -7  18  116.08   10.14   0
   4   7 -18   97.17    9.40   0
  -3  -7  18   75.04    6.92   0
   3   7 -18   73.06    7.29   0
  -2  -7  18  214.48   12.36   0
   2   7 -18  176.53   12.24   0
  -1  -7  18    8.28    2.60   0
   1   7 -18    5.32    2.97   0
   0  -7 -18   13.97    3.58   0
   0   7  18   10.88    3.58   0
  -1  -7 -18   58.10    4.33   0
   1   7  18   49.94    4.08   0
  -3  -8  18   33.50    7.66   0
   3   8 -18   30.16    4.94   0
  -2  -8  18  119.54    8.65   0
   2   8 -18  104.71    6.43   0
  -9  -1  19   75.41    4.20   0
   9   1 -19   89.13    3.83   0
  -8  -1  19   71.58    4.45   0
   8   1 -19   75.16    3.34   0
  -7  -1  19  102.73    3.71   0
   7   1 -19  105.08    3.83   0
  -6  -1  19  233.64    5.69   0
   6   1 -19  227.58    5.32   0
  -5  -1  19   72.81    2.72   0
   5   1 -19   66.63    2.84   0
  -4  -1  19   57.85    1.98   0
   4   1 -19   56.99    3.46   0
  -3  -1  19  167.01    6.06   0
   3   1 -19  155.51    5.81   0
  -2  -1  19   25.09    1.11   0
   2   1 -19   21.76    1.61   0
  -1  -1  19   98.40    3.58   0
   1   1 -19  100.50    3.58   0
   0  -1 -19 1079.94   21.39   0
   0   1  19 1066.47   21.14   0
  -1  -1 -19  185.92    5.19   0
   1   1  19  196.06    5.81   0
  -2  -1 -19   30.16    2.84   0
   2   1  19   31.28    2.97   0
  -3  -1 -19  279.75    8.53   0
   3   1  19  270.85    8.28   0
  -4  -1 -19   52.04    3.34   0
   4   1  19   53.16    3.46   0
  -9  -2  19    4.57    2.84   0
   9   2 -19    6.80    2.23   0
  -8  -2  19    0.25    2.10   0
   8   2 -19    1.98    2.60   0
  -7  -2  19   42.40    3.34   0
   7   2 -19   44.26    3.09   0
  -6  -2  19    7.17    2.72   0
   6   2 -19    8.65    1.61   0
  -5  -2  19   42.15    3.58   0
   5   2 -19   44.01    3.09   0
  -4  -2  19  161.32    6.30   0
   4   2 -19  170.97    6.06   0
  -3  -2  19   11.74    2.72   0
   3   2 -19   12.61    3.21   0
  -2  -2  19  128.69    5.44   0
   2   2 -19  130.30    5.44   0
  -1  -2  19   27.07    2.97   0
   1   2 -19   30.29    1.98   0
   0  -2 -19   22.13    2.84   0
   0   2  19   25.09    3.09   0
  -1  -2 -19  291.00    7.54   0
   1   2  19  302.99    7.79   0
  -2  -2 -19   60.57    3.71   0
   2   2  19   57.48    3.58   0
  -3  -2 -19   12.36    2.35   0
   3   2  19   15.45    2.35   0
  -4  -2 -19   16.19    4.08   0
   4   2  19   13.23    2.84   0
  -9  -3  19   67.00    4.33   0
   9   3 -19   64.53    3.71   0
  -8  -3  19   23.61    2.47   0
   8   3 -19   23.49    2.35   0
  -7  -3  19   65.27    4.45   0
   7   3 -19   68.11    3.58   0
  -6  -3  19   63.79    3.96   0
   6   3 -19   54.39    3.96   0
  -5  -3  19    2.10    2.72   0
   5   3 -19    1.73    2.10   0
  -4  -3  19  151.93    5.81   0
   4   3 -19  152.18    5.07   0
  -3  -3  19   54.39    4.57   0
   3   3 -19   52.04    3.58   0
  -2  -3  19   34.98    3.09   0
   2   3 -19   31.77    3.21   0
  -1  -3  19   27.07    2.60   0
   1   3 -19   34.37    3.09   0
   0  -3 -19  124.11    4.20   0
   0   3  19  117.81    4.08   0
  -1  -3 -19    1.73    2.35   0
   1   3  19    4.57    2.35   0
  -2  -3 -19  121.77    5.93   0
   2   3  19  131.28    5.07   0
  -3  -3 -19  123.50    6.43   0
   3   3  19  118.18    4.82   0
  -8  -4  19  110.15    5.81   0
   8   4 -19   90.98    4.20   0
  -7  -4  19   73.31    4.45   0
   7   4 -19   67.50    3.46   0
  -6  -4  19   -1.36    2.84   0
   6   4 -19    1.61    2.97   0
  -5  -4  19   18.67    3.09   0
   5   4 -19   18.54    3.71   0
  -4  -4  19  368.02   11.00   0
   4   4 -19  361.84    9.02   0
  -3  -4  19   90.61    4.82   0
   3   4 -19   90.49    3.83   0
  -2  -4  19  102.11    4.82   0
   2   4 -19  103.35    4.94   0
  -1  -4  19  155.14    4.94   0
   1   4 -19  138.21    5.93   0
   0  -4 -19   -3.09    2.23   0
   0   4  19   -1.48    1.85   0
  -1  -4 -19   -3.09    3.21   0
   1   4  19    2.72    2.60   0
  -2  -4 -19   51.92    4.45   0
   2   4  19   61.44    3.58   0
  -3  -4 -19    0.74    2.97   0
   3   4  19    1.11    2.84   0
  -8  -5  19    8.28    2.60   0
   8   5 -19    8.65    2.47   0
  -7  -5  19    3.83    4.94   0
   7   5 -19    1.48    3.21   0
  -6  -5  19   12.11    4.20   0
   6   5 -19   15.08    3.46   0
  -5  -5  19    0.12    4.08   0
   5   5 -19    5.19    3.34   0
  -4  -5  19   25.71    4.70   0
   4   5 -19   31.65    4.08   0
  -3  -5  19    0.49    4.20   0
   3   5 -19    2.84    2.47   0
  -2  -5  19   91.48    8.41   0
   2   5 -19   94.07    4.57   0
  -1  -5  19   63.66    3.83   0
   1   5 -19   54.64    3.34   0
   0  -5 -19    0.74    2.47   0
   0   5  19    1.36    2.72   0
  -1  -5 -19   22.38    3.34   0
   1   5  19   18.42    2.60   0
  -2  -5 -19    7.17    3.83   0
   2   5  19    9.02    2.72   0
  -6  -6  19    5.81    6.80   0
   6   6 -19    0.25    4.33   0
  -5  -6  19   98.15    7.79   0
   5   6 -19   86.66    5.69   0
  -4  -6  19  195.57   11.99   0
   4   6 -19  183.82    8.28   0
  -3  -6  19   31.52    6.92   0
   3   6 -19   38.45    5.44   0
  -2  -6  19  113.36    8.04   0
   2   6 -19  111.38    4.94   0
  -1  -6  19    3.46    2.47   0
   1   6 -19    3.96    2.60   0
   0  -6 -19    7.17    2.47   0
   0   6  19   10.88    3.58   0
  -1  -6 -19   64.90    4.57   0
   1   6  19   63.54    4.08   0
  -5  -7  19   11.25    5.69   0
   5   7 -19   13.60    3.83   0
  -4  -7  19    0.49    4.94   0
   4   7 -19    0.12    3.58   0
  -3  -7  19   53.03    6.18   0
   3   7 -19   43.64    4.45   0
  -2  -7  19   14.96    6.92   0
   2   7 -19    9.89    5.44   0
  -1  -7  19   46.23    5.93   0
   1   7 -19   39.31    4.33   0
   9   0 -20   48.21    4.45   0
   8   0 -20  135.24    6.06   0
   7   0 -20  148.96    6.68   0
   6   0 -20  128.94    4.20   0
   5   0 -20   46.36    2.23   0
   4   0 -20   80.48    2.72   0
   3   0 -20    4.57    2.60   0
   2   0 -20    6.43    2.47   0
   1   0 -20   45.00    2.84   0
   0   0  20  244.03    6.92   0
   1   0  20  581.14   15.45   0
   2   0  20    9.15    2.84   0
   3   0  20    0.74    2.23   0
  -9  -1  20    6.92    3.21   0
   9   1 -20   10.38    3.46   0
  -8  -1  20    2.60    2.60   0
   8   1 -20   -0.99    3.09   0
  -7  -1  20    2.72    2.84   0
   7   1 -20    3.83    1.85   0
  -6  -1  20   -0.99    2.23   0
   6   1 -20   -1.48    1.98   0
  -5  -1  20   10.63    2.84   0
   5   1 -20    7.91    1.85   0
  -4  -1  20   22.00    2.84   0
   4   1 -20   24.97    2.97   0
  -3  -1  20   16.81    2.60   0
   3   1 -20   20.40    2.72   0
  -2  -1  20    5.56    3.21   0
   2   1 -20    5.69    2.47   0
  -1  -1  20   90.49    3.96   0
   1   1 -20   83.94    3.96   0
   0  -1 -20   40.55    2.97   0
   0   1  20   40.79    3.09   0
  -1  -1 -20   -3.83    2.10   0
   1   1  20   -3.71    1.98   0
  -2  -1 -20   -4.33    1.98   0
   2   1  20   -1.73    2.84   0
  -3  -1 -20   35.11    3.46   0
   3   1  20   30.16    2.97   0
  -9  -2  20   22.75    3.46   0
   9   2 -20   24.97    2.84   0
  -8  -2  20  196.43    7.79   0
   8   2 -20  202.37    6.68   0
  -7  -2  20   11.25    3.21   0
   7   2 -20   11.13    2.10   0
  -6  -2  20  118.80    5.93   0
   6   2 -20  127.95    4.57   0
  -5  -2  20   27.81    3.96   0
   5   2 -20   18.17    2.47   0
  -4  -2  20    1.36    3.58   0
   4   2 -20   -3.09    2.84   0
  -3  -2  20   50.68    4.08   0
   3   2 -20   56.25    3.58   0
  -2  -2  20    1.73    3.34   0
   2   2 -20    1.85    2.47   0
  -1  -2  20   53.03    2.84   0
   1   2 -20   54.64    3.09   0
   0  -2 -20  319.06    9.52   0
   0   2  20  314.49    9.27   0
  -1  -2 -20   19.16    2.84   0
   1   2  20   18.91    2.72   0
  -2  -2 -20   50.56    3.71   0
   2   2  20   50.93    3.21   0
  -3  -2 -20   17.55    2.97   0
   3   2  20   16.19    2.60   0
  -8  -3  20    2.97    2.72   0
   8   3 -20    2.23    2.23   0
  -7  -3  20   26.45    3.46   0
   7   3 -20   20.52    2.47   0
  -6  -3  20    2.60    3.09   0
   6   3 -20    1.73    1.98   0
  -5  -3  20  108.66    6.30   0
   5   3 -20   88.02    5.44   0
  -4  -3  20  192.35    7.29   0
   4   3 -20  192.72    5.93   0
  -3  -3  20   13.35    3.34   0
   3   3 -20   17.31    3.21   0
  -2  -3  20   -1.36    2.47   0
   2   3 -20    0.37    2.97   0
  -1  -3  20   42.15    2.97   0
   1   3 -20   38.20    3.34   0
   0  -3 -20   94.32    4.20   0
   0   3  20   92.22    3.83   0
  -1  -3 -20    7.42    2.23   0
   1   3  20   10.63    2.72   0
  -2  -3 -20   66.88    5.19   0
   2   3  20   70.71    3.83   0
  -8  -4  20   18.54    3.46   0
   8   4 -20   19.66    2.60   0
  -7  -4  20   13.47    3.09   0
   7   4 -20   19.16    2.47   0
  -6  -4  20  250.21   10.14   0
   6   4 -20  232.28    9.64   0
  -5  -4  20   16.44    4.33   0
   5   4 -20   29.79    5.07   0
  -4  -4  20    7.54    4.08   0
   4   4 -20   -4.70    4.57   0
  -3  -4  20   -1.73    2.72   0
   3   4 -20    0.37    2.72   0
  -2  -4  20    2.97    2.72   0
   2   4 -20    1.85    2.72   0
  -1  -4  20   -1.73    2.60   0
   1   4 -20    0.87    3.09   0
   0  -4 -20   16.07    3.34   0
   0   4  20   10.75    2.35   0
  -1  -4 -20    4.08    3.21   0
   1   4  20   -0.99    2.35   0
  -2  -4 -20    1.73    3.21   0
   2   4  20    0.37    2.60   0
  -7  -5  20  168.25   12.61   0
   7   5 -20  146.74    7.79   0
  -6  -5  20   39.06    7.42   0
   6   5 -20   29.30    4.70   0
  -5  -5  20  163.80   11.13   0
   5   5 -20  139.44    7.29   0
  -4  -5  20  453.07   22.75   0
   4   5 -20  423.77   14.83   0
  -3  -5  20   24.72    4.82   0
   3   5 -20   22.13    3.83   0
  -2  -5  20   12.86    5.81   0
   2   5 -20   12.24    3.09   0
  -1  -5  20    5.32    2.60   0
   1   5 -20    4.08    2.60   0
   0  -5 -20   32.64    3.34   0
   0   5  20   31.89    4.08   0
  -1  -5 -20  114.35    5.93   0
   1   5  20  105.57    4.70   0
  -5  -6  20   -0.25    7.05   0
   5   6 -20    3.21    4.33   0
  -4  -6  20   -1.61    4.45   0
   4   6 -20    5.69    4.08   0
  -3  -6  20    6.55    4.33   0
   3   6 -20   -0.87    3.71   0
  -2  -6  20    1.36    4.45   0
   2   6 -20   -1.36    3.83   0
  -1  -6  20   -1.98    2.97   0
   1   6 -20   -4.45    3.34   0
  -8  -1  21  250.21    9.89   0
   8   1 -21  241.06    9.77   0
  -7  -1  21   53.28    4.45   0
   7   1 -21   71.70    5.56   0
  -6  -1  21   19.90    3.58   0
   6   1 -21   13.47    3.09   0
  -5  -1  21   31.52    3.71   0
   5   1 -21   35.36    5.07   0
  -4  -1  21    7.42    3.71   0
   4   1 -21    5.56    2.97   0
  -3  -1  21   47.59    4.57   0
   3   1 -21   56.00    4.57   0
  -2  -1  21  112.74    5.69   0
   2   1 -21  109.90    5.44   0
  -1  -1  21  257.50    8.04   0
   1   1 -21  271.84    8.41   0
   0  -1 -21    2.10    2.47   0
   0   1  21    1.48    2.23   0
  -1  -1 -21  174.43    6.18   0
   1   1  21  172.45    6.06   0
  -2  -1 -21   56.25    3.96   0
   2   1  21   63.42    4.08   0
  -8  -2  21    3.58    3.21   0
   8   2 -21    1.61    3.21   0
  -7  -2  21   -0.74    2.72   0
   7   2 -21    8.41    3.46   0
  -6  -2  21   21.76    3.71   0
   6   2 -21   24.97    2.35   0
  -5  -2  21    7.17    3.21   0
   5   2 -21    8.78    2.35   0
  -4  -2  21   19.28    3.58   0
   4   2 -21   24.11    3.09   0
  -3  -2  21   -3.34    3.34   0
   3   2 -21   -1.36    2.35   0
  -2  -2  21   13.35    2.72   0
   2   2 -21   16.19    3.09   0
  -1  -2  21   19.53    2.97   0
   1   2 -21   11.99    3.83   0
   0  -2 -21   23.36    3.58   0
   0   2  21   29.67    3.21   0
  -1  -2 -21   35.36    3.34   0
   1   2  21   32.39    3.09   0
  -2  -2 -21    3.09    3.09   0
   2   2  21    5.81    2.72   0
  -7  -3  21   17.18    3.83   0
   7   3 -21   25.96    2.84   0
  -6  -3  21  197.30    8.53   0
   6   3 -21  199.65    6.92   0
  -5  -3  21  108.91    6.06   0
   5   3 -21  106.44    6.80   0
  -4  -3  21    0.25    3.09   0
   4   3 -21   -1.11    3.71   0
  -3  -3  21   -1.11    3.71   0
   3   3 -21   -0.74    2.35   0
  -2  -3  21   14.71    3.46   0
   2   3 -21   20.27    3.58   0
  -1  -3  21   11.13    2.47   0
   1   3 -21    6.55    3.21   0
   0  -3 -21    1.36    2.35   0
   0   3  21    2.84    2.84   0
  -1  -3 -21  178.51    6.68   0
   1   3  21  173.56    6.18   0
  -7  -4  21  113.36    6.30   0
   7   4 -21  104.46    5.56   0
  -6  -4  21   94.94    5.81   0
   6   4 -21   95.68    5.69   0
  -5  -4  21   58.97    5.19   0
   5   4 -21   59.58    4.94   0
  -4  -4  21   14.71    4.33   0
   4   4 -21   19.78    4.33   0
  -3  -4  21   83.32    5.07   0
   3   4 -21   70.83    4.08   0
  -2  -4  21    4.20    3.34   0
   2   4 -21    6.18    3.21   0
  -1  -4  21   75.16    4.45   0
   1   4 -21   59.83    5.19   0
   0  -4 -21   66.38    4.82   0
   0   4  21   63.54    4.94   0
  -5  -5  21   -7.29    4.57   0
   5   5 -21   -2.72    3.58   0
  -4  -5  21   22.50    6.92   0
   4   5 -21   24.97    4.82   0
  -3  -5  21   16.94    4.94   0
   3   5 -21   31.40    4.94   0
  -2  -5  21    1.24    5.81   0
   2   5 -21    3.58    2.97   0
  -1  -5  21   26.33    4.33   0
   1   5 -21   18.17    3.21   0
   7   0 -22   12.86    3.21   0
   6   0 -22   24.48    4.20   0
   5   0 -22    0.25    3.09   0
   4   0 -22    6.30    2.97   0
   3   0 -22  189.26    7.91   0
   2   0 -22   31.40    3.71   0
   1   0 -22  209.29    6.92   0
   0   0  22   21.26    2.84   0
   1   0  22    6.18    2.47   0
  -7  -1  22    5.07    3.58   0
   7   1 -22    2.23    4.33   0
  -6  -1  22    0.62    2.84   0
   6   1 -22   -3.34    3.09   0
  -5  -1  22    0.74    3.34   0
   5   1 -22    1.48    2.60   0
  -4  -1  22   -0.49    3.58   0
   4   1 -22   -1.98    2.60   0
  -3  -1  22   -1.85    2.35   0
   3   1 -22   -3.71    2.35   0
  -2  -1  22   45.49    3.96   0
   2   1 -22   43.64    4.20   0
  -1  -1  22   12.98    3.09   0
   1   1 -22   11.25    3.58   0
   0  -1 -22   -4.82    3.09   0
   0   1  22    5.69    2.97   0
  -1  -1 -22    1.36    2.84   0
   1   1  22    4.20    2.72   0
  -7  -2  22   57.85    6.30   0
   7   2 -22   61.32    4.70   0
  -6  -2  22   -0.25    4.08   0
   6   2 -22    8.04    4.08   0
  -5  -2  22    6.43    4.08   0
   5   2 -22    1.24    3.71   0
  -4  -2  22   12.98    4.33   0
   4   2 -22   11.37    2.97   0
  -3  -2  22  100.26    5.44   0
   3   2 -22  103.59    5.81   0
  -2  -2  22    5.69    2.97   0
   2   2 -22   10.75    4.20   0
  -1  -2  22  116.45    5.07   0
   1   2 -22  130.05    6.30   0
   0  -2 -22   89.38    4.20   0
   0   2  22   89.62    4.57   0
  -6  -3  22   11.13    3.83   0
   6   3 -22    8.28    3.96   0
  -5  -3  22   40.67    4.45   0
   5   3 -22   35.48    5.19   0
  -4  -3  22    9.64    3.58   0
   4   3 -22    2.10    3.71   0
  -3  -3  22    5.81    3.58   0
   3   3 -22    0.49    2.84   0
  -2  -3  22  150.69    7.05   0
   2   3 -22  156.13    7.17   0
  -1  -3  22   -0.87    2.47   0
   1   3 -22    2.72    3.21   0
   0  -3 -22   -1.98    2.35   0
   0   3  22    3.09    3.09   0
  -5  -4  22    2.47    3.96   0
   5   4 -22   -2.47    3.34   0
  -4  -4  22    0.62    3.58   0
   4   4 -22    4.08    4.20   0
  -3  -4  22   10.14    3.34   0
   3   4 -22    3.96    3.34   0
  -2  -4  22   -1.98    4.20   0
   2   4 -22   -7.17    3.83   0
  -5  -1  23    9.77    3.58   0
   5   1 -23   10.75    5.32   0
  -4  -1  23    0.37    3.34   0
   4   1 -23   -3.34    3.71   0
  -3  -1  23   20.64    3.34   0
   3   1 -23   34.12    4.20   0
  -2  -1  23   20.27    4.70   0
   2   1 -23   20.52    3.58   0
  -1  -1  23   10.26    2.97   0
   1   1 -23   11.87    4.45   0
  -5  -2  23    7.42    3.71   0
   5   2 -23    0.87    4.70   0
  -4  -2  23   26.70    3.71   0
   4   2 -23   25.34    3.71   0
  -3  -2  23   15.95    3.58   0
   3   2 -23   17.92    3.34   0
  -2  -2  23    3.96    3.71   0
   2   2 -23   -1.73    4.08   0
;
_shelx_hkl_checksum              31062
_shelx_res_file
;
C:\Crystal\x-step32\jtfeb12d.res created by SHELXL-2014/7
TITL  GUAMORPHSO4  (MONOKLINIC, P21/C)
CELL  0.71073  9.71940  9.47370 17.94160 90.00000 105.38600 90.00000
ZERR 4  0.00030  0.00030  0.00080  0.00000  0.00100  0.00000
LATT 1
SYMM -X, Y+ 0.50000, -Z+ 0.50000
SFAC C N O S H
UNIT 40 24 24 4 96
PLAN 20
FMAP 2
L.S. 5
TEMP -173
BOND $H
ACTA
CONF
RIGU N3B > C5B N6B > C10B
WGHT    0.045000    0.549800
EXTI    0.016940
FVAR       0.79614   0.84864   0.68429
S1    4    0.341092    0.046997    0.131724    11.00000    0.01160    0.01619 =
         0.02146   -0.00071    0.00249    0.00006
O1    3    0.312891    0.151199    0.186234    11.00000    0.02193    0.02873 =
         0.03136   -0.01083   -0.00010    0.00777
O2    3    0.207026   -0.015401    0.085102    11.00000    0.01407    0.03340 =
         0.02019   -0.00352    0.00324   -0.00530
O3    3    0.433840   -0.065761    0.175027    11.00000    0.02529    0.01752 =
         0.02547   -0.00126   -0.00255    0.00432
O4    3    0.416048    0.116151    0.079734    11.00000    0.02448    0.03024 =
         0.03272    0.00626    0.00851   -0.00817
N1    2    0.090342    0.439558    0.429105    11.00000    0.01303    0.02899 =
         0.01960   -0.00209    0.00262   -0.00166
H11   5   -0.001681    0.442631    0.409911    11.00000    0.03392
H12   5    0.126472    0.446442    0.480047    11.00000    0.02909
N2    2    0.317988    0.464061    0.419517    11.00000    0.01390    0.03626 =
         0.03293    0.00810    0.00673    0.00194
H21   5    0.343377    0.437262    0.469752    11.00000    0.03430
H22   5    0.380992    0.499796    0.397611    11.00000    0.04842
C1    1    0.177857    0.470503    0.385651    11.00000    0.01577    0.02357 =
         0.02897    0.00442    0.00700    0.00262
PART 1
N3A   2    0.125852    0.497257    0.308995    21.00000    0.01457    0.04343 =
         0.02456    0.00902    0.00622    0.00270
C2A   1   -0.024917    0.529300    0.271789    21.00000    0.01504    0.04594 =
         0.02376    0.00798    0.00255   -0.00006
AFIX  23
H2A1  5   -0.083676    0.507770    0.307769    21.00000   -1.20000
H2A2  5   -0.059246    0.470232    0.225017    21.00000   -1.20000
AFIX   0
C3A   1   -0.039360    0.682625    0.249994    21.00000    0.01847    0.04973 =
         0.02919    0.01520    0.00576    0.00207
AFIX  23
H3A1  5   -0.140172    0.703622    0.223287    21.00000   -1.20000
H3A2  5   -0.011936    0.741109    0.297363    21.00000   -1.20000
AFIX   0
O5A   3    0.049184    0.718131    0.200385    21.00000    0.02243    0.06999 =
         0.03655    0.02904    0.00827    0.00322
C4A   1    0.195746    0.688785    0.237979    21.00000    0.02010    0.06359 =
         0.03589    0.02038    0.00940   -0.00103
AFIX  23
H4A1  5    0.226307    0.746162    0.285639    21.00000   -1.20000
H4A2  5    0.255748    0.715366    0.203411    21.00000   -1.20000
AFIX   0
C5A   1    0.216789    0.535013    0.258230    21.00000    0.02172    0.05737 =
         0.03112    0.01135    0.01449    0.00474
AFIX  23
H5A1  5    0.190743    0.477113    0.210612    21.00000   -1.20000
H5A2  5    0.318154    0.516689    0.284966    21.00000   -1.20000
AFIX   0
PART 2
SAME N3A > C5A
N3B   2    0.138530    0.541668    0.324819   -21.00000    0.00612    0.02159 =
         0.02091    0.00332    0.00364   -0.00015
C2B   1   -0.006135    0.605299    0.299201   -21.00000    0.01148    0.02106 =
         0.02577    0.00508    0.00486    0.00263
AFIX  23
H2B1  5   -0.003617    0.702488    0.319795   -21.00000   -1.20000
H2B2  5   -0.073692    0.549388    0.319954   -21.00000   -1.20000
AFIX   0
C3B   1   -0.056905    0.608928    0.212182   -21.00000    0.01661    0.01987 =
         0.02382    0.00184    0.00424   -0.00172
AFIX  23
H3B1  5   -0.060828    0.512255    0.190766   -21.00000   -1.20000
H3B2  5   -0.153356    0.651182    0.195306   -21.00000   -1.20000
AFIX   0
O5B   3    0.045936    0.694886    0.185840   -21.00000    0.01501    0.02317 =
         0.04464    0.02021    0.01151    0.00417
C4B   1    0.174182    0.609091    0.199196   -21.00000    0.01987    0.03838 =
         0.02123    0.00588    0.00560    0.00597
AFIX  23
H4B1  5    0.241852    0.650997    0.172785   -21.00000   -1.20000
H4B2  5    0.149959    0.512498    0.178884   -21.00000   -1.20000
AFIX   0
C5B   1    0.239914    0.604685    0.285180   -21.00000    0.01633    0.02193 =
         0.02834    0.00285    0.01105   -0.00044
AFIX  23
H5B1  5    0.328595    0.547955    0.296529   -21.00000   -1.20000
H5B2  5    0.265028    0.701582    0.304752   -21.00000   -1.20000
PART 0
AFIX   0
N4    2    0.506598    0.650213    0.164921    11.00000    0.03122    0.01618 =
         0.02096    0.00086    0.00226    0.00258
H41   5    0.563007    0.638499    0.212160    11.00000    0.03433
H42   5    0.475168    0.729465    0.150387    11.00000    0.03328
N5    2    0.489098    0.410749    0.158197    11.00000    0.03291    0.01624 =
         0.02984    0.00094   -0.00290    0.00090
H51   5    0.524572    0.413443    0.207329    11.00000    0.03782
H52   5    0.448397    0.334655    0.136661    11.00000    0.05131
C6    1    0.450578    0.536228    0.125720    11.00000    0.03045    0.01819 =
         0.02652   -0.00058    0.00094    0.00237
PART 1
N6A   2    0.373374    0.548485    0.050652    31.00000    0.04911    0.01473 =
         0.02300   -0.00016    0.00112    0.00083
C7A   1    0.311108    0.428033    0.001010    31.00000    0.05595    0.01710 =
         0.02315   -0.00444    0.00187    0.00120
AFIX  23
H7A1  5    0.337805    0.338768    0.029919    31.00000   -1.20000
H7A2  5    0.349418    0.425562   -0.044891    31.00000   -1.20000
AFIX   0
C8A   1    0.151039    0.441242   -0.024449    31.00000    0.05612    0.01927 =
         0.04446   -0.00635    0.00012   -0.00035
AFIX  23
H8A1  5    0.111034    0.362051   -0.059518    31.00000   -1.20000
H8A2  5    0.112626    0.434584    0.021312    31.00000   -1.20000
AFIX   0
O6A   3    0.106929    0.572033   -0.063367    31.00000    0.05150    0.02421 =
         0.05123   -0.00651   -0.01125    0.00395
C9A   1    0.164461    0.687036   -0.012917    31.00000    0.06095    0.01813 =
         0.04072   -0.00270   -0.00579    0.00590
AFIX  23
H9A1  5    0.127693    0.682437    0.033471    31.00000   -1.20000
H9A2  5    0.132319    0.777302   -0.039698    31.00000   -1.20000
AFIX   0
C10A  1    0.325806    0.683485    0.011760    31.00000    0.06218    0.01601 =
         0.02545    0.00369    0.00099    0.00019
AFIX  23
H10A  5    0.363629    0.693689   -0.034043    31.00000   -1.20000
H10B  5    0.362427    0.762806    0.047431    31.00000   -1.20000
AFIX   0
PART 2
SAME N6A > C10A
N6B   2    0.340223    0.543233    0.062965   -31.00000    0.02933    0.01150 =
         0.01667    0.00130   -0.00219    0.00149
C7B   1    0.250950    0.421337    0.030550   -31.00000    0.03091    0.01833 =
         0.02360   -0.00019   -0.00216   -0.00287
AFIX  23
H7B1  5    0.168290    0.416168    0.052923   -31.00000   -1.20000
H7B2  5    0.306980    0.333358    0.044095   -31.00000   -1.20000
AFIX   0
C8B   1    0.199423    0.434565   -0.055258   -31.00000    0.03485    0.02031 =
         0.02609   -0.00242    0.00261    0.00073
AFIX  23
H8B1  5    0.281583    0.424607   -0.077735   -31.00000   -1.20000
H8B2  5    0.131957    0.356721   -0.075608   -31.00000   -1.20000
AFIX   0
O6B   3    0.131100    0.564480   -0.079036   -31.00000    0.05998    0.02039 =
         0.01514    0.00011   -0.00707    0.00806
C9B   1    0.221984    0.678474   -0.051484   -31.00000    0.07742    0.02048 =
         0.02983    0.00456   -0.01903   -0.00420
AFIX  23
H9B1  5    0.169284    0.767395   -0.068139   -31.00000   -1.20000
H9B2  5    0.302929    0.675145   -0.075264   -31.00000   -1.20000
AFIX   0
C10B  1    0.279268    0.680509    0.034071   -31.00000    0.07993    0.01667 =
         0.02527    0.00030   -0.02335    0.01180
AFIX  23
H10C  5    0.353764    0.754200    0.048865   -31.00000   -1.20000
H10D  5    0.201604    0.704460    0.058112   -31.00000   -1.20000
PART 0
AFIX   0
HKLF 4
REM   GUAMORPHSO4  (MONOKLINIC, P21/C)
REM R1 =  0.0310 for    3284 Fo > 4sig(Fo)  and  0.0383 for all    3791 data
REM    351 parameters refined using     96 restraints
END
WGHT      0.0450      0.5498
REM Highest difference peak  0.240,  deepest hole -0.446,  1-sigma level  0.045
Q1    1   0.1366  0.4435  0.4035  11.00000  0.05    0.24
Q2    1   0.4017  0.5437  0.0881  11.00000  0.05    0.22
Q3    1   0.4187  0.0587  0.0622  11.00000  0.05    0.20
Q4    1   0.4750 -0.0449  0.1598  11.00000  0.05    0.20
Q5    1   0.0640  0.5240  0.2959  11.00000  0.05    0.20
Q6    1   0.1528  0.4775  0.3466  11.00000  0.05    0.19
Q7    1   0.4516  0.1415  0.0957  11.00000  0.05    0.18
Q8    1   0.2019  0.0567  0.0817  11.00000  0.05    0.18
Q9    1   0.3576  0.1522  0.0693  11.00000  0.05    0.17
Q10   1   0.3979  0.0789  0.1029  11.00000  0.05    0.17
Q11   1   0.3742 -0.0419  0.1682  11.00000  0.05    0.17
Q12   1   0.3403  0.4853  0.0257  11.00000  0.05    0.16
Q13   1   0.3571  0.6144  0.0335  11.00000  0.05    0.16
Q14   1   0.2946  0.7630  0.0522  11.00000  0.05    0.16
Q15   1   0.3005  0.4776  0.2666  11.00000  0.05    0.16
Q16   1   0.4893  0.5931  0.1386  11.00000  0.05    0.16
Q17   1   0.1068  0.4435  0.2882  11.00000  0.05    0.16
Q18   1   0.1591  0.5205  0.2962  11.00000  0.05    0.15
Q19   1   0.1175  0.5030 -0.0322  11.00000  0.05    0.15
Q20   1   0.3383  0.1456  0.1595  11.00000  0.05    0.15
;
_shelx_res_checksum              82445
loop_
_symmetry_equiv_pos_as_xyz
'x, y, z'
'-x, 1/2+y, 1/2-z'
'-x, -y, -z'
'x, 1/2-y, 1/2+z'
loop_
_atom_site_type_symbol
_atom_site_label
_atom_site_fract_x
_atom_site_fract_y
_atom_site_fract_z
_atom_site_U_iso_or_equiv
_atom_site_adp_type
_atom_site_calc_flag
_atom_site_occupancy
_atom_site_disorder_assembly
_atom_site_disorder_group
S S1 0.34109(3) 0.04700(3) 0.13172(2) 0.01678(10) Uani d 1 . .
O O1 0.31289(9) 0.15120(10) 0.18623(5) 0.0287(2) Uani d 1 . .
O O2 0.20703(8) -0.01540(10) 0.08510(5) 0.0228(2) Uani d 1 . .
O O3 0.43384(9) -0.06576(9) 0.17503(5) 0.0245(2) Uani d 1 . .
O O4 0.41605(9) 0.11615(11) 0.07973(5) 0.0290(2) Uani d 1 . .
N N1 0.09034(11) 0.43956(12) 0.42911(6) 0.0209(2) Uani d 1 . .
H H11 -0.0017(19) 0.4426(18) 0.4099(10) 0.034(4) Uiso d 1 . .
H H12 0.1265(17) 0.4464(17) 0.4800(10) 0.029(4) Uiso d 1 . .
N N2 0.31799(11) 0.46406(13) 0.41952(7) 0.0276(3) Uani d 1 . .
H H21 0.3434(18) 0.4373(18) 0.4698(11) 0.034(4) Uiso d 1 . .
H H22 0.381(2) 0.500(2) 0.3976(11) 0.048(5) Uiso d 1 . .
C C1 0.17786(12) 0.47050(14) 0.38565(8) 0.0226(3) Uani d 1 . .
N N3A 0.1259(2) 0.4973(3) 0.30900(13) 0.0273(5) Uani d 0.849(3) A 1
C C2A -0.02492(16) 0.5293(2) 0.27179(10) 0.0287(4) Uani d 0.849(3) A 1
H H2A1 -0.0837 0.5078 0.3078 0.034 Uiso calc 0.849(3) A 1
H H2A2 -0.0592 0.4702 0.2250 0.034 Uiso calc 0.849(3) A 1
C C3A -0.03936(16) 0.6826(2) 0.24999(10) 0.0326(5) Uani d 0.849(3) A 1
H H3A1 -0.1402 0.7036 0.2233 0.039 Uiso calc 0.849(3) A 1
H H3A2 -0.0119 0.7411 0.2974 0.039 Uiso calc 0.849(3) A 1
O O5A 0.0492(3) 0.7181(5) 0.2004(2) 0.0429(11) Uani d 0.849(3) A 1
C C4A 0.19575(17) 0.6888(2) 0.23798(12) 0.0395(5) Uani d 0.849(3) A 1
H H4A1 0.2263 0.7462 0.2856 0.047 Uiso calc 0.849(3) A 1
H H4A2 0.2557 0.7154 0.2034 0.047 Uiso calc 0.849(3) A 1
C C5A 0.21679(19) 0.5350(3) 0.25823(12) 0.0353(5) Uani d 0.849(3) A 1
H H5A1 0.1907 0.4771 0.2106 0.042 Uiso calc 0.849(3) A 1
H H5A2 0.3182 0.5167 0.2850 0.042 Uiso calc 0.849(3) A 1
N N3B 0.1385(11) 0.5417(12) 0.3248(7) 0.016(2) Uani d 0.151(3) A 2
C C2B -0.0061(8) 0.6053(10) 0.2992(5) 0.0194(19) Uani d 0.151(3) A 2
H H2B1 -0.0036 0.7025 0.3198 0.023 Uiso calc 0.151(3) A 2
H H2B2 -0.0737 0.5494 0.3200 0.023 Uiso calc 0.151(3) A 2
C C3B -0.0569(8) 0.6089(9) 0.2122(5) 0.0203(18) Uani d 0.151(3) A 2
H H3B1 -0.0608 0.5123 0.1908 0.024 Uiso calc 0.151(3) A 2
H H3B2 -0.1534 0.6512 0.1953 0.024 Uiso calc 0.151(3) A 2
O O5B 0.0459(16) 0.695(2) 0.1858(13) 0.027(3) Uani d 0.151(3) A 2
C C4B 0.1742(8) 0.6091(11) 0.1992(5) 0.026(2) Uani d 0.151(3) A 2
H H4B1 0.2419 0.6510 0.1728 0.032 Uiso calc 0.151(3) A 2
H H4B2 0.1500 0.5125 0.1789 0.032 Uiso calc 0.151(3) A 2
C C5B 0.2399(8) 0.6047(11) 0.2852(5) 0.0212(19) Uani d 0.151(3) A 2
H H5B1 0.3286 0.5480 0.2965 0.025 Uiso calc 0.151(3) A 2
H H5B2 0.2650 0.7016 0.3048 0.025 Uiso calc 0.151(3) A 2
N N4 0.50660(12) 0.65021(12) 0.16492(6) 0.0237(2) Uani d 1 . .
H H41 0.5630(18) 0.6385(18) 0.2122(10) 0.034(4) Uiso d 1 . .
H H42 0.4752(17) 0.729(2) 0.1504(10) 0.033(4) Uiso d 1 . .
N N5 0.48910(13) 0.41075(12) 0.15820(7) 0.0285(3) Uani d 1 . .
H H51 0.5246(19) 0.4134(19) 0.2073(11) 0.038(5) Uiso d 1 . .
H H52 0.448(2) 0.335(2) 0.1367(12) 0.051(5) Uiso d 1 . .
C C6 0.45058(14) 0.53623(14) 0.12572(8) 0.0263(3) Uani d 1 . .
N N6A 0.3734(5) 0.5485(5) 0.0507(3) 0.0306(9) Uani d 0.684(4) B 1
C C7A 0.3111(3) 0.4280(2) 0.00101(13) 0.0337(6) Uani d 0.684(4) B 1
H H7A1 0.3378 0.3388 0.0299 0.040 Uiso calc 0.684(4) B 1
H H7A2 0.3494 0.4256 -0.0449 0.040 Uiso calc 0.684(4) B 1
C C8A 0.1510(3) 0.4412(2) -0.02445(18) 0.0425(7) Uani d 0.684(4) B 1
H H8A1 0.1110 0.3621 -0.0595 0.051 Uiso calc 0.684(4) B 1
H H8A2 0.1126 0.4346 0.0213 0.051 Uiso calc 0.684(4) B 1
O O6A 0.1069(6) 0.5720(5) -0.0634(3) 0.0470(12) Uani d 0.684(4) B 1
C C9A 0.1645(3) 0.6870(2) -0.01292(18) 0.0436(7) Uani d 0.684(4) B 1
H H9A1 0.1277 0.6824 0.0335 0.052 Uiso calc 0.684(4) B 1
H H9A2 0.1323 0.7773 -0.0397 0.052 Uiso calc 0.684(4) B 1
C C10A 0.3258(4) 0.6835(3) 0.01176(19) 0.0366(7) Uani d 0.684(4) B 1
H H10A 0.3636 0.6937 -0.0340 0.044 Uiso calc 0.684(4) B 1
H H10B 0.3624 0.7628 0.0474 0.044 Uiso calc 0.684(4) B 1
N N6B 0.3402(9) 0.5432(9) 0.0630(5) 0.0207(15) Uani d 0.316(4) B 2
C C7B 0.2509(5) 0.4213(4) 0.0306(3) 0.0261(11) Uani d 0.316(4) B 2
H H7B1 0.1683 0.4162 0.0529 0.031 Uiso calc 0.316(4) B 2
H H7B2 0.3070 0.3334 0.0441 0.031 Uiso calc 0.316(4) B 2
C C8B 0.1994(6) 0.4346(5) -0.0553(3) 0.0281(11) Uani d 0.316(4) B 2
H H8B1 0.2816 0.4246 -0.0777 0.034 Uiso calc 0.316(4) B 2
H H8B2 0.1320 0.3567 -0.0756 0.034 Uiso calc 0.316(4) B 2
O O6B 0.1311(12) 0.5645(10) -0.0790(5) 0.0351(19) Uani d 0.316(4) B 2
C C9B 0.2220(8) 0.6785(5) -0.0515(3) 0.0489(19) Uani d 0.316(4) B 2
H H9B1 0.1693 0.7674 -0.0681 0.059 Uiso calc 0.316(4) B 2
H H9B2 0.3029 0.6751 -0.0753 0.059 Uiso calc 0.316(4) B 2
C C10B 0.2793(10) 0.6805(7) 0.0341(4) 0.048(2) Uani d 0.316(4) B 2
H H10C 0.3538 0.7542 0.0489 0.057 Uiso calc 0.316(4) B 2
H H10D 0.2016 0.7045 0.0581 0.057 Uiso calc 0.316(4) B 2
loop_
_atom_site_aniso_label
_atom_site_aniso_U_11
_atom_site_aniso_U_22
_atom_site_aniso_U_33
_atom_site_aniso_U_12
_atom_site_aniso_U_13
_atom_site_aniso_U_23
S1 0.01160(14) 0.01619(16) 0.02146(16) 0.00006(10) 0.00249(10) -0.00071(10)
O1 0.0219(4) 0.0287(5) 0.0314(5) 0.0078(4) -0.0001(4) -0.0108(4)
O2 0.0141(4) 0.0334(5) 0.0202(4) -0.0053(3) 0.0032(3) -0.0035(4)
O3 0.0253(4) 0.0175(4) 0.0255(4) 0.0043(3) -0.0025(3) -0.0013(3)
O4 0.0245(4) 0.0302(5) 0.0327(5) -0.0082(4) 0.0085(4) 0.0063(4)
N1 0.0130(5) 0.0290(6) 0.0196(5) -0.0017(4) 0.0026(4) -0.0021(4)
N2 0.0139(5) 0.0363(7) 0.0329(6) 0.0019(4) 0.0067(4) 0.0081(5)
C1 0.0158(5) 0.0236(6) 0.0290(6) 0.0026(4) 0.0070(5) 0.0044(5)
N3A 0.0146(7) 0.0434(15) 0.0246(10) 0.0027(8) 0.0062(7) 0.0090(9)
C2A 0.0150(7) 0.0459(12) 0.0238(8) -0.0001(7) 0.0025(6) 0.0080(8)
C3A 0.0185(7) 0.0497(12) 0.0292(9) 0.0021(7) 0.0058(6) 0.0152(9)
O5A 0.0224(9) 0.070(2) 0.0365(13) 0.0032(10) 0.0083(7) 0.0290(15)
C4A 0.0201(8) 0.0636(14) 0.0359(10) -0.0010(8) 0.0094(7) 0.0204(10)
C5A 0.0217(8) 0.0574(14) 0.0311(9) 0.0047(9) 0.0145(7) 0.0114(9)
N3B 0.006(3) 0.022(5) 0.021(5) 0.000(3) 0.004(3) 0.003(4)
C2B 0.011(3) 0.021(4) 0.026(4) 0.003(3) 0.005(3) 0.005(3)
C3B 0.017(3) 0.020(4) 0.024(4) -0.002(3) 0.004(3) 0.002(3)
O5B 0.015(4) 0.023(4) 0.045(8) 0.004(3) 0.012(4) 0.020(5)
C4B 0.020(3) 0.038(5) 0.021(4) 0.006(3) 0.006(3) 0.006(4)
C5B 0.016(3) 0.022(4) 0.028(4) 0.000(3) 0.011(3) 0.003(3)
N4 0.0312(6) 0.0162(5) 0.0210(5) 0.0026(4) 0.0023(4) 0.0009(4)
N5 0.0329(6) 0.0162(5) 0.0298(6) 0.0009(5) -0.0029(5) 0.0009(5)
C6 0.0304(7) 0.0182(6) 0.0265(6) 0.0024(5) 0.0009(5) -0.0006(5)
N6A 0.049(2) 0.0147(11) 0.0230(15) 0.0008(13) 0.0011(12) -0.0002(9)
C7A 0.0560(15) 0.0171(10) 0.0232(10) 0.0012(9) 0.0019(10) -0.0044(8)
C8A 0.0561(17) 0.0193(11) 0.0445(16) -0.0003(10) 0.0001(13) -0.0064(10)
O6A 0.0515(17) 0.0242(12) 0.051(3) 0.0039(11) -0.0113(16) -0.0065(14)
C9A 0.0610(16) 0.0181(10) 0.0407(15) 0.0059(10) -0.0058(12) -0.0027(10)
C10A 0.0622(19) 0.0160(11) 0.0255(14) 0.0002(11) 0.0010(11) 0.0037(10)
N6B 0.029(3) 0.012(2) 0.017(3) 0.0015(19) -0.002(2) 0.0013(18)
C7B 0.031(2) 0.0183(19) 0.024(2) -0.0029(16) -0.0022(17) -0.0002(16)
C8B 0.035(2) 0.020(2) 0.026(2) 0.0007(17) 0.0026(18) -0.0024(17)
O6B 0.060(4) 0.020(2) 0.015(2) 0.008(2) -0.007(2) 0.0001(16)
C9B 0.077(4) 0.020(2) 0.030(3) -0.004(2) -0.019(3) 0.0046(19)
C10B 0.080(6) 0.017(2) 0.025(3) 0.012(3) -0.023(3) 0.000(2)
loop_
_atom_type_symbol
_atom_type_description
_atom_type_scat_dispersion_real
_atom_type_scat_dispersion_imag
_atom_type_scat_source
C C 0.0033 0.0016 'International Tables Vol C Tables 4.2.6.8 and 6.1.1.4'
N N 0.0061 0.0033 'International Tables Vol C Tables 4.2.6.8 and 6.1.1.4'
O O 0.0106 0.0060 'International Tables Vol C Tables 4.2.6.8 and 6.1.1.4'
S S 0.1246 0.1234 'International Tables Vol C Tables 4.2.6.8 and 6.1.1.4'
H H 0.0000 0.0000 'International Tables Vol C Tables 4.2.6.8 and 6.1.1.4'
loop_
_geom_angle_atom_site_label_1
_geom_angle_atom_site_label_2
_geom_angle_atom_site_label_3
_geom_angle
O1 S1 O2 110.82(5)
O1 S1 O3 109.38(5)
O2 S1 O3 109.43(5)
O1 S1 O4 109.44(6)
O2 S1 O4 109.21(5)
O3 S1 O4 108.52(6)
C1 N1 H11 120.7(11)
C1 N1 H12 116.5(10)
H11 N1 H12 119.2(15)
C1 N2 H21 116.2(11)
C1 N2 H22 121.7(12)
H21 N2 H22 121.0(16)
N3B C1 N1 122.3(5)
N3B C1 N2 117.3(5)
N1 C1 N2 117.14(12)
N1 C1 N3A 120.73(14)
N2 C1 N3A 121.97(14)
C1 N3A C5A 123.31(18)
C1 N3A C2A 123.81(18)
C5A N3A C2A 111.00(18)
N3A C2A C3A 109.32(16)
N3A C2A H2A1 109.8
C3A C2A H2A1 109.8
N3A C2A H2A2 109.8
C3A C2A H2A2 109.8
H2A1 C2A H2A2 108.3
O5A C3A C2A 111.0(2)
O5A C3A H3A1 109.4
C2A C3A H3A1 109.4
O5A C3A H3A2 109.4
C2A C3A H3A2 109.4
H3A1 C3A H3A2 108.0
C4A O5A C3A 110.4(2)
O5A C4A C5A 110.9(2)
O5A C4A H4A1 109.5
C5A C4A H4A1 109.5
O5A C4A H4A2 109.5
C5A C4A H4A2 109.5
H4A1 C4A H4A2 108.0
N3A C5A C4A 108.65(17)
N3A C5A H5A1 110.0
C4A C5A H5A1 110.0
N3A C5A H5A2 110.0
C4A C5A H5A2 110.0
H5A1 C5A H5A2 108.3
C1 N3B C5B 123.1(8)
C1 N3B C2B 122.2(9)
C5B N3B C2B 112.5(9)
N3B C2B C3B 110.6(7)
N3B C2B H2B1 109.5
C3B C2B H2B1 109.5
N3B C2B H2B2 109.5
C3B C2B H2B2 109.5
H2B1 C2B H2B2 108.1
O5B C3B C2B 106.5(11)
O5B C3B H3B1 110.4
C2B C3B H3B1 110.4
O5B C3B H3B2 110.4
C2B C3B H3B2 110.4
H3B1 C3B H3B2 108.6
C4B O5B C3B 105.4(11)
O5B C4B C5B 107.3(11)
O5B C4B H4B1 110.3
C5B C4B H4B1 110.3
O5B C4B H4B2 110.3
C5B C4B H4B2 110.3
H4B1 C4B H4B2 108.5
N3B C5B C4B 110.3(8)
N3B C5B H5B1 109.6
C4B C5B H5B1 109.6
N3B C5B H5B2 109.6
C4B C5B H5B2 109.6
H5B1 C5B H5B2 108.1
C6 N4 H41 118.0(11)
C6 N4 H42 120.5(12)
H41 N4 H42 119.9(16)
C6 N5 H51 114.4(12)
C6 N5 H52 120.5(13)
H51 N5 H52 119.8(18)
N4 C6 N5 117.82(12)
N4 C6 N6B 122.2(4)
N5 C6 N6B 118.9(4)
N4 C6 N6A 119.8(2)
N5 C6 N6A 121.7(2)
C6 N6A C10A 124.4(4)
C6 N6A C7A 124.2(3)
C10A N6A C7A 111.0(4)
N6A C7A C8A 110.1(2)
N6A C7A H7A1 109.6
C8A C7A H7A1 109.6
N6A C7A H7A2 109.6
C8A C7A H7A2 109.6
H7A1 C7A H7A2 108.1
O6A C8A C7A 111.8(3)
O6A C8A H8A1 109.3
C7A C8A H8A1 109.3
O6A C8A H8A2 109.3
C7A C8A H8A2 109.3
H8A1 C8A H8A2 107.9
C8A O6A C9A 109.5(3)
O6A C9A C10A 111.6(3)
O6A C9A H9A1 109.3
C10A C9A H9A1 109.3
O6A C9A H9A2 109.3
C10A C9A H9A2 109.3
H9A1 C9A H9A2 108.0
N6A C10A C9A 109.2(3)
N6A C10A H10A 109.8
C9A C10A H10A 109.8
N6A C10A H10B 109.8
C9A C10A H10B 109.8
H10A C10A H10B 108.3
C6 N6B C10B 120.1(7)
C6 N6B C7B 123.6(7)
C10B N6B C7B 114.6(7)
N6B C7B C8B 110.1(5)
N6B C7B H7B1 109.6
C8B C7B H7B1 109.6
N6B C7B H7B2 109.6
C8B C7B H7B2 109.6
H7B1 C7B H7B2 108.2
O6B C8B C7B 112.8(5)
O6B C8B H8B1 109.0
C7B C8B H8B1 109.0
O6B C8B H8B2 109.0
C7B C8B H8B2 109.0
H8B1 C8B H8B2 107.8
C9B O6B C8B 111.4(8)
O6B C9B C10B 113.8(7)
O6B C9B H9B1 108.8
C10B C9B H9B1 108.8
O6B C9B H9B2 108.8
C10B C9B H9B2 108.8
H9B1 C9B H9B2 107.7
N6B C10B C9B 111.0(6)
N6B C10B H10C 109.4
C9B C10B H10C 109.4
N6B C10B H10D 109.4
C9B C10B H10D 109.4
H10C C10B H10D 108.0
loop_
_geom_bond_atom_site_label_1
_geom_bond_atom_site_label_2
_geom_bond_distance
S1 O1 1.4657(9)
S1 O2 1.4726(8)
S1 O3 1.4784(9)
S1 O4 1.4801(9)
N1 C1 1.3301(16)
N1 H11 0.869(18)
N1 H12 0.890(17)
N2 C1 1.3375(15)
N2 H21 0.905(18)
N2 H22 0.88(2)
C1 N3B 1.253(12)
C1 N3A 1.357(3)
N3A C5A 1.472(3)
N3A C2A 1.472(3)
C2A C3A 1.501(3)
C2A H2A1 0.9900
C2A H2A2 0.9900
C3A O5A 1.433(3)
C3A H3A1 0.9900
C3A H3A2 0.9900
O5A C4A 1.432(4)
C4A C5A 1.502(3)
C4A H4A1 0.9900
C4A H4A2 0.9900
C5A H5A1 0.9900
C5A H5A2 0.9900
N3B C5B 1.485(12)
N3B C2B 1.486(12)
C2B C3B 1.508(11)
C2B H2B1 0.9900
C2B H2B2 0.9900
C3B O5B 1.462(15)
C3B H3B1 0.9900
C3B H3B2 0.9900
O5B C4B 1.454(15)
C4B C5B 1.506(11)
C4B H4B1 0.9900
C4B H4B2 0.9900
C5B H5B1 0.9900
C5B H5B2 0.9900
N4 C6 1.3244(16)
N4 H41 0.886(17)
N4 H42 0.826(18)
N5 C6 1.3331(17)
N5 H51 0.857(18)
N5 H52 0.86(2)
C6 N6B 1.335(9)
C6 N6A 1.362(5)
N6A C10A 1.471(5)
N6A C7A 1.475(5)
C7A C8A 1.506(4)
C7A H7A1 0.9900
C7A H7A2 0.9900
C8A O6A 1.431(5)
C8A H8A1 0.9900
C8A H8A2 0.9900
O6A C9A 1.432(5)
C9A C10A 1.513(4)
C9A H9A1 0.9900
C9A H9A2 0.9900
C10A H10A 0.9900
C10A H10B 0.9900
N6B C10B 1.466(9)
N6B C7B 1.469(9)
C7B C8B 1.492(7)
C7B H7B1 0.9900
C7B H7B2 0.9900
C8B O6B 1.410(9)
C8B H8B1 0.9900
C8B H8B2 0.9900
O6B C9B 1.400(11)
C9B C10B 1.488(8)
C9B H9B1 0.9900
C9B H9B2 0.9900
C10B H10C 0.9900
C10B H10D 0.9900
loop_
_geom_hbond_atom_site_label_D
_geom_hbond_atom_site_label_H
_geom_hbond_atom_site_label_A
_geom_hbond_site_symmetry_A
_geom_hbond_distance_DH
_geom_hbond_distance_HA
_geom_hbond_distance_DA
_geom_hbond_angle_DHA
_geom_hbond_publ_flag
N1 H11 O2 2_555 0.87(2) 2.07(2) 2.866(2) 153(2) y
N1 H12 O2 4_555 0.89(2) 1.95(2) 2.820(2) 164(2) y
N2 H21 O4 4_555 0.91(2) 1.99(2) 2.881(2) 174(2) y
N2 H22 O3 2_655 0.88(2) 2.56(2) 3.309(2) 144(2) y
N2 H22 O4 2_655 0.88(2) 2.21(2) 2.956(2) 143(2) y
N4 H41 O1 2_655 0.89(2) 1.89(2) 2.779(2) 170(2) y
N4 H42 O3 1_565 0.83(2) 2.06(2) 2.799(2) 150(2) y
N5 H51 O3 2_655 0.86(2) 2.04(2) 2.894(2) 168(2) y
N5 H52 O1 . 0.86(2) 2.48(2) 3.113(2) 131(2) y
N5 H52 O4 . 0.86(2) 2.28(2) 3.121(2) 159(2) y
loop_
_geom_torsion_atom_site_label_1
_geom_torsion_atom_site_label_2
_geom_torsion_atom_site_label_3
_geom_torsion_atom_site_label_4
_geom_torsion
N1 C1 N3A C5A 178.66(18)
N2 C1 N3A C5A -6.2(3)
N1 C1 N3A C2A 15.7(3)
N2 C1 N3A C2A -169.13(17)
C1 N3A C2A C3A 108.2(2)
C5A N3A C2A C3A -56.6(2)
N3A C2A C3A O5A 57.1(3)
C2A C3A O5A C4A -59.2(4)
C3A O5A C4A C5A 60.1(4)
C1 N3A C5A C4A -107.7(2)
C2A N3A C5A C4A 57.2(2)
O5A C4A C5A N3A -58.6(3)
N1 C1 N3B C5B 165.8(7)
N2 C1 N3B C5B 6.7(11)
N1 C1 N3B C2B 4.2(11)
N2 C1 N3B C2B -154.8(7)
C1 N3B C2B C3B -147.3(9)
C5B N3B C2B C3B 49.3(11)
N3B C2B C3B O5B -60.2(12)
C2B C3B O5B C4B 71.8(16)
C3B O5B C4B C5B -72.0(17)
C1 N3B C5B C4B 148.0(9)
C2B N3B C5B C4B -48.9(11)
O5B C4B C5B N3B 60.0(13)
N4 C6 N6A C10A -10.6(4)
N5 C6 N6A C10A 179.1(3)
N4 C6 N6A C7A 177.6(2)
N5 C6 N6A C7A 7.3(4)
C6 N6A C7A C8A 118.2(4)
C10A N6A C7A C8A -54.5(4)
N6A C7A C8A O6A 56.5(4)
C7A C8A O6A C9A -58.9(4)
C8A O6A C9A C10A 60.0(4)
C6 N6A C10A C9A -117.7(4)
C7A N6A C10A C9A 55.0(4)
O6A C9A C10A N6A -58.2(4)
N4 C6 N6B C10B 1.6(8)
N5 C6 N6B C10B 169.1(6)
N4 C6 N6B C7B -162.7(5)
N5 C6 N6B C7B 4.8(8)
C6 N6B C7B C8B -147.4(6)
C10B N6B C7B C8B 47.6(8)
N6B C7B C8B O6B -53.2(8)
C7B C8B O6B C9B 58.5(9)
C8B O6B C9B C10B -56.9(11)
C6 N6B C10B C9B 148.3(8)
C7B N6B C10B C9B -46.1(10)
O6B C9B C10B N6B 50.2(11)
