#------------------------------------------------------------------------------
#$Date: 2016-03-31 05:02:53 +0300 (Thu, 31 Mar 2016) $
#$Revision: 180627 $
#$URL: svn://www.crystallography.net/cod/cif/1/54/29/1542975.cif $
#------------------------------------------------------------------------------
#
# This file is available in the Crystallography Open Database (COD),
# http://www.crystallography.net/
#
# All data on this site have been placed in the public domain by the
# contributors.
#
data_1542975
loop_
_publ_author_name
'Bharti, Akhilesh'
'Nath, Paras'
'Bharati, Pooja'
'Gupta, Sushil K.'
'Bharty, Manoj K.'
_publ_section_title
;
 Bis[4-(5-anilino-1,3,4-thiadiazol-2-yl)pyridinium] sulfate
;
_journal_coeditor_code           SJ4013
_journal_issue                   3
_journal_name_full               IUCrData
_journal_page_first              x160446
_journal_paper_doi               10.1107/S2414314616004466
_journal_volume                  1
_journal_year                    2016
_chemical_formula_iupac          '2C13 H11 N4 S +, S O4 2-'
_chemical_formula_moiety         '2(C13 H11 N4 S +), O4 S 2-'
_chemical_formula_sum            'C26 H22 N8 O4 S3'
_chemical_formula_weight         606.69
_chemical_melting_point_gt       497
_chemical_melting_point_lt       499
_chemical_name_systematic
;
Bis[4-(5-anilino-1,3,4-thiadiazol-2-yl)pyridinium] sulfate
;
_space_group_crystal_system      triclinic
_space_group_IT_number           2
_space_group_name_Hall           '-P 1'
_space_group_name_H-M_alt        'P -1'
_symmetry_space_group_name_Hall  '-P 1'
_symmetry_space_group_name_H-M   'P -1'
_atom_sites_solution_hydrogens   geom
_atom_sites_solution_primary     direct
_atom_sites_solution_secondary   difmap
_cell_angle_alpha                90.605(6)
_cell_angle_beta                 99.245(5)
_cell_angle_gamma                105.408(6)
_cell_formula_units_Z            2
_cell_length_a                   7.4551(8)
_cell_length_b                   11.9212(13)
_cell_length_c                   15.1931(16)
_cell_measurement_reflns_used    6650
_cell_measurement_temperature    100(2)
_cell_measurement_theta_max      34.096
_cell_measurement_theta_min      2.876
_cell_volume                     1282.8(2)
_computing_cell_refinement
;
SMART (Bruker, 2012)
;
_computing_data_collection
;
SMART (Bruker, 2012)
;
_computing_data_reduction
;
SAINT (Bruker, 2012)
;
_computing_molecular_graphics
;
SHELXTL (Sheldrick, 2008)
;
_computing_publication_material
;
SHELXTL (Sheldrick, 2008)
;
_computing_structure_refinement
;
SHELXL2014/7 (Sheldrick, 2015)
;
_computing_structure_solution
;
SHELXS2013 (Sheldrick, 2008)
;
_diffrn_ambient_temperature      100(2)
_diffrn_detector_area_resol_mean 8
_diffrn_measured_fraction_theta_full 0.998
_diffrn_measured_fraction_theta_max 0.998
_diffrn_measurement_device_type  'Bruker SMART APEX CCD area-detector'
_diffrn_measurement_method       '\w and \f scans'
_diffrn_radiation_type           MoK\a
_diffrn_radiation_wavelength     0.71073
_diffrn_reflns_av_R_equivalents  0.0300
_diffrn_reflns_limit_h_max       8
_diffrn_reflns_limit_h_min       -8
_diffrn_reflns_limit_k_max       14
_diffrn_reflns_limit_k_min       -14
_diffrn_reflns_limit_l_max       18
_diffrn_reflns_limit_l_min       -18
_diffrn_reflns_number            13929
_diffrn_reflns_theta_full        25.025
_diffrn_reflns_theta_max         25.025
_diffrn_reflns_theta_min         2.296
_exptl_absorpt_coefficient_mu    0.342
_exptl_absorpt_correction_T_max  0.7469
_exptl_absorpt_correction_T_min  0.6750
_exptl_absorpt_correction_type   multi-scan
_exptl_absorpt_process_details
;
(SADABS; Bruker, 2008)
;
_exptl_crystal_colour            yellow
_exptl_crystal_density_diffrn    1.571
_exptl_crystal_density_method    'not measured'
_exptl_crystal_description       block
_exptl_crystal_F_000             628
_exptl_crystal_size_max          0.2
_exptl_crystal_size_mid          0.2
_exptl_crystal_size_min          0.2
_refine_diff_density_max         0.286
_refine_diff_density_min         -0.393
_refine_ls_extinction_method     none
_refine_ls_goodness_of_fit_ref   1.073
_refine_ls_hydrogen_treatment    constr
_refine_ls_matrix_type           full
_refine_ls_number_parameters     370
_refine_ls_number_reflns         4529
_refine_ls_number_restraints     0
_refine_ls_restrained_S_all      1.073
_refine_ls_R_factor_all          0.0356
_refine_ls_R_factor_gt           0.0301
_refine_ls_shift/su_max          0.001
_refine_ls_shift/su_mean         0.000
_refine_ls_structure_factor_coef Fsqd
_refine_ls_weighting_details
'w=1/[\s^2^(Fo^2^)+(0.0311P)^2^+0.7088P] where P=(Fo^2^+2Fc^2^)/3'
_refine_ls_weighting_scheme      calc
_refine_ls_wR_factor_gt          0.0711
_refine_ls_wR_factor_ref         0.0742
_reflns_number_gt                3975
_reflns_number_total             4529
_reflns_threshold_expression     'I > 2\s(I)'
_cod_data_source_file            sj4013sup1.cif
_cod_data_source_block           I
_cod_database_code               1542975
_shelx_space_group_comment
;
The symmetry employed for this shelxl refinement is uniquely defined
by the following loop, which should always be used as a source of
symmetry information in preference to the above space-group names.
They are only intended as comments.
;
_shelx_hkl_file
;
  -1   0   0   81.16    2.73
  -2   0   0  113.28    3.97
   2   0   0  114.82    2.11
  -3   0   0   10.64    0.48
  -3   0   0   11.78    0.83
   3   0   0   11.06    0.29
  -4   0   0   34.91    1.07
  -4   0   0   33.98    0.76
  -4   0   0   33.69    1.77
   4   0   0   34.22    0.76
  -5   0   0   20.34    0.84
  -5   0   0   21.99    1.46
   5   0   0   19.77    0.55
  -6   0   0   13.59    1.31
  -6   0   0   14.75    0.77
   6   0   0   13.34    0.46
  -7   0   0   11.34    0.75
  -7   0   0   13.17    1.43
   7   0   0   12.12    0.47
  -8   0   0    3.36    0.52
  -8   0   0    3.10    1.02
  -8   1   0    0.42    0.73
  -8   1   0    0.99    0.33
   7  -1   0    3.53    0.25
  -7   1   0    3.89    0.97
  -7   1   0    3.55    0.47
   6  -1   0    0.37    0.11
  -6   1   0    0.77    0.55
  -6   1   0    0.28    0.09
  -6   1   0    0.41    0.20
   5  -1   0   -0.01    0.07
  -5   1   0    0.21    0.14
  -5   1   0   -0.16    0.34
   4  -1   0    6.36    0.23
  -4   1   0    6.15    0.41
  -4   1   0    6.98    0.71
   3  -1   0  147.35    2.73
  -3   1   0  144.94    3.15
  -3   1   0  146.07    5.09
   2  -1   0    0.09    0.05
  -2   1   0    0.10    0.09
  -2   1   0    0.09    0.24
   1  -1   0    4.42    0.14
  -1  -1   0   16.46    0.75
  -2  -1   0  539.24   17.20
  -3  -1   0   43.56    1.99
  -3  -1   0   41.60    1.16
   3   1   0   42.86    0.91
  -4  -1   0  245.78    4.65
  -4  -1   0  249.54    8.64
  -4  -1   0  247.55    5.28
   4   1   0  250.73    4.65
  -5  -1   0    1.66    0.63
  -5  -1   0    1.41    0.27
  -5  -1   0    1.45    0.16
   5   1   0    1.66    0.17
  -6  -1   0    5.48    0.29
  -6  -1   0    5.44    0.49
  -6  -1   0    6.86    1.21
   6   1   0    5.53    0.29
  -7  -1   0    3.57    0.50
  -7  -1   0    2.50    0.94
   7   1   0    3.14    0.26
  -8  -1   0    2.20    1.01
  -8  -1   0    2.63    0.49
  -8   2   0    0.02    0.23
  -8   2   0    0.26    0.72
   7  -2   0    1.08    0.16
  -7   2   0    0.00    0.58
  -7   2   0    1.55    0.35
   6  -2   0    1.03    0.15
  -6   2   0    1.61    0.65
  -6   2   0    0.75    0.12
  -6   2   0    0.97    0.26
   5  -2   0   63.09    1.36
  -5   2   0   61.46    1.74
  -5   2   0   61.51    1.35
  -5   2   0   68.73    2.91
   4  -2   0  110.77    2.09
  -4   2   0   97.44    3.99
  -4   2   0  107.06    2.10
  -4   2   0  108.86    2.50
   3  -2   0   21.83    0.53
  -3   2   0   19.38    0.69
  -3   2   0   22.56    1.14
  -3   2   0   22.00    0.63
   2  -2   0   69.17    1.37
  -2   2   0   69.11    1.43
   1  -2   0    3.28    0.16
   0  -2   0   45.33    0.94
  -1  -2   0  120.71    4.06
  -2  -2   0    1.69    0.38
  -3  -2   0   16.80    0.48
  -3  -2   0   18.19    1.15
  -3  -2   0   17.06    0.65
  -4  -2   0   76.26    3.40
  -4  -2   0   79.55    1.64
  -4  -2   0   79.77    2.02
   4   2   0   79.15    1.65
  -5  -2   0   10.64    1.08
  -5  -2   0    9.86    0.39
  -5  -2   0   10.29    0.62
   5   2   0   10.98    0.41
  -6  -2   0   96.19    4.26
  -6  -2   0   90.91    2.49
  -6  -2   0   90.23    1.91
   6   2   0   88.87    1.95
  -7  -2   0    1.92    0.89
  -7  -2   0    2.26    0.44
   7   2   0    2.31    0.26
  -8  -2   0    8.33    0.73
  -8  -2   0    7.66    1.64
   8  -3   0   13.83    0.55
  -8   3   0   14.99    0.92
   7  -3   0   18.42    0.61
  -7   3   0   18.65    0.95
   6  -3   0   65.43    1.44
  -6   3   0   62.19    1.41
  -6   3   0   63.46    1.88
   5  -3   0    1.12    0.15
  -5   3   0    0.65    0.44
  -5   3   0    1.37    0.26
  -5   3   0    1.30    0.16
   4  -3   0   41.85    0.96
  -4   3   0   40.61    1.07
  -4   3   0   40.67    0.96
  -4   3   0   42.41    1.22
   3  -3   0    3.53    0.20
  -3   3   0    3.80    0.29
  -3   3   0    3.07    0.22
   2  -3   0   23.11    0.59
  -2   3   0   22.45    0.57
   1  -3   0   15.17    0.44
   0  -3   0  130.72    2.55
  -1  -3   0    0.12    0.20
  -2  -3   0    2.03    0.44
  -2  -3   0    1.77    0.22
  -2  -3   0    1.77    0.18
  -3  -3   0    3.43    0.64
  -3  -3   0    2.83    0.22
  -3  -3   0    3.16    0.32
  -4  -3   0    2.53    0.33
  -4  -3   0    1.97    0.20
  -4  -3   0    2.76    0.71
   4   3   0    1.88    0.19
   4   3   0    2.45    0.23
  -5  -3   0    0.54    0.13
  -5  -3   0    0.78    0.56
  -5  -3   0    0.55    0.22
   5   3   0    0.45    0.13
  -6  -3   0   27.76    0.80
  -6  -3   0   28.72    1.16
  -6  -3   0   26.37    2.01
   6   3   0   28.73    0.84
  -7  -3   0   10.06    0.76
  -7  -3   0   10.49    1.41
   7   3   0   10.41    0.49
   8  -4   0    5.49    0.36
  -8   4   0    5.79    0.67
   7  -4   0    1.00    0.18
  -7   4   0    0.96    0.30
  -7   4   0    1.22    0.18
   6  -4   0    0.69    0.16
  -6   4   0    0.76    0.25
  -6   4   0    0.71    0.14
   5  -4   0    8.06    0.35
   5  -4   0    8.01    0.36
  -5   4   0    8.09    0.52
  -5   4   0    7.54    0.36
  -5   4   0    7.59    0.42
   4  -4   0   10.86    0.40
   4  -4   0   10.60    0.41
  -4   4   0   11.63    0.56
  -4   4   0   10.59    0.45
  -4   4   0   11.49    0.43
   3  -4   0   19.02    0.55
   3  -4   0   18.97    0.37
   3  -4   0   19.81    0.57
  -3   4   0   18.85    0.56
  -3   4   0   18.47    0.57
   2  -4   0   49.24    1.13
   2  -4   0   49.52    1.11
  -2   4   0   49.97    1.09
   1  -4   0   72.61    1.56
   0  -4   0    3.61    0.24
  -1  -4   0    0.52    0.13
  -1  -4   0    0.61    0.29
  -2  -4   0   14.94    0.98
  -2  -4   0   15.20    0.59
  -2  -4   0   15.33    0.52
  -3  -4   0    0.82    0.19
  -3  -4   0    0.57    0.15
  -3  -4   0    0.73    0.41
  -4  -4   0   12.74    0.50
  -4  -4   0   12.40    1.17
  -4  -4   0   13.80    0.67
   4   4   0   14.36    0.53
  -5  -4   0   45.24    2.52
  -5  -4   0   41.32    1.09
  -5  -4   0   40.88    1.41
   5   4   0   41.61    1.12
  -6  -4   0    4.29    0.53
  -6  -4   0    4.08    0.35
  -6  -4   0    6.21    1.32
   6   4   0    4.23    0.32
  -7  -4   0    0.72    0.82
  -7  -4   0    1.42    0.39
   7   4   0    1.20    0.23
   8  -5   0   12.49    0.56
  -8   5   0   11.56    0.83
   7  -5   0    9.46    0.48
  -7   5   0    9.32    0.70
  -7   5   0   10.41    0.47
   6  -5   0    4.42    0.32
  -6   5   0    4.61    0.51
  -6   5   0    4.21    0.31
   5  -5   0    6.81    0.36
   5  -5   0    6.54    0.34
  -5   5   0    5.86    0.35
  -5   5   0    5.70    0.36
   4  -5   0    5.92    0.33
   4  -5   0    6.37    0.33
   4  -5   0    5.79    0.18
  -4   5   0    6.07    0.34
  -4   5   0    6.36    0.34
   3  -5   0   14.13    0.36
   3  -5   0   14.42    0.52
   3  -5   0   14.35    0.50
  -3   5   0   14.18    0.48
  -3   5   0   14.44    0.52
   2  -5   0    8.12    0.36
   2  -5   0    8.45    0.38
  -2   5   0    8.23    0.38
   1  -5   0  124.64    2.56
   1  -5   0  123.68    2.50
   0  -5   0   11.61    0.45
   0  -5   0   11.36    0.46
   0  -5   0   11.62    0.44
  -1  -5   0    3.90    0.58
  -1  -5   0    3.24    0.24
  -1  -5   0    2.68    0.26
  -2  -5   0  116.40    2.29
  -2  -5   0  110.62    4.22
  -2  -5   0  112.01    2.58
  -2  -5   0  111.19    2.39
  -3  -5   0    0.83    0.18
  -3  -5   0    0.74    0.43
  -3  -5   0    0.61    0.19
  -4  -5   0    0.15    0.17
  -4  -5   0    0.12    0.12
  -4  -5   0   -0.11    0.40
   4   5   0   -0.01    0.10
  -5  -5   0   40.36    1.10
  -5  -5   0   39.39    2.42
  -5  -5   0   38.65    1.37
   5   5   0   38.83    1.12
  -6  -5   0    4.13    0.37
  -6  -5   0    5.20    1.22
  -6  -5   0    4.01    0.55
   6   5   0    4.08    0.39
  -7  -5   0    1.67    0.41
  -7  -5   0    0.61    0.74
   7   5   0    1.31    0.26
   8  -6   0    8.92    0.50
  -8   6   0    8.84    0.48
   7  -6   0    0.66    0.18
  -7   6   0    0.75    0.18
   6  -6   0    4.56    0.33
  -6   6   0    4.50    0.35
  -6   6   0    4.24    0.36
   5  -6   0    1.91    0.24
   5  -6   0    1.42    0.12
   5  -6   0    1.79    0.24
  -5   6   0    1.65    0.23
  -5   6   0    1.33    0.21
   4  -6   0    3.43    0.18
   4  -6   0    3.63    0.29
   4  -6   0    3.52    0.29
  -4   6   0    3.12    0.25
  -4   6   0    3.56    0.32
   3  -6   0    0.34    0.13
   3  -6   0    0.42    0.14
  -3   6   0    0.10    0.11
  -3   6   0    0.24    0.10
   2  -6   0    6.92    0.36
   2  -6   0    6.49    0.36
  -2   6   0    7.03    0.38
   1  -6   0   19.86    0.65
   1  -6   0   19.18    0.66
   1  -6   0   20.56    0.68
  -1   6   0   19.25    0.67
   0  -6   0    0.84    0.17
   0  -6   0    1.12    0.20
   0  -6   0    0.73    0.27
   0  -6   0    0.84    0.17
  -1  -6   0    5.96    0.34
  -1  -6   0    6.45    0.62
  -1  -6   0    7.74    0.41
  -2  -6   0   19.13    0.70
  -2  -6   0   21.00    0.66
  -2  -6   0   21.57    1.31
  -3  -6   0   36.39    1.20
  -3  -6   0   35.45    2.02
  -3  -6   0   36.54    1.06
  -4  -6   0    2.18    0.73
  -4  -6   0    2.00    0.27
  -4  -6   0    2.63    0.38
   4   6   0    1.99    0.27
  -5  -6   0    0.00    0.19
  -5  -6   0    0.09    0.15
  -5  -6   0    0.04    0.52
   5   6   0    0.02    0.12
  -6  -6   0    0.61    0.31
  -6  -6   0    0.58    0.19
  -6  -6   0   -0.13    0.63
   6   6   0    0.14    0.17
   8  -7   0   26.04    0.62
   8  -7   0   26.02    0.95
  -8   7   0   26.57    0.91
   7  -7   0    7.41    0.47
   7  -7   0    7.89    0.29
  -7   7   0    7.88    0.47
   6  -7   0   -0.14    0.11
   6  -7   0    0.15    0.09
   6  -7   0   -0.01    0.13
  -6   7   0    0.26    0.14
   5  -7   0    5.74    0.39
   5  -7   0    6.08    0.40
  -5   7   0    6.66    0.39
  -5   7   0    5.84    0.39
   4  -7   0   14.87    0.60
   4  -7   0   16.35    0.64
  -4   7   0   14.01    0.53
  -4   7   0   13.81    0.60
   3  -7   0    3.32    0.33
   3  -7   0    4.11    0.32
  -3   7   0    4.22    0.27
  -3   7   0    4.37    0.33
   2  -7   0   93.22    2.10
   2  -7   0   89.22    2.05
   2  -7   0   94.14    2.12
   1  -7   0   10.47    0.50
   1  -7   0   10.44    0.48
   1  -7   0   10.12    0.50
  -1   7   0   10.38    0.50
   0  -7   0   44.97    1.21
   0  -7   0   41.78    1.20
   0  -7   0   43.36    1.17
   0  -7   0   44.69    1.89
   0   7   0   45.58    1.23
  -1  -7   0   40.20    1.14
  -1  -7   0   37.89    1.06
  -1  -7   0   39.17    1.85
   1   7   0   39.11    1.12
  -2  -7   0    3.78    0.30
  -2  -7   0    3.22    0.34
  -2  -7   0    4.17    0.76
  -3  -7   0    0.66    0.20
  -3  -7   0    0.34    0.19
  -3  -7   0    0.80    0.52
  -4  -7   0    2.13    0.30
  -4  -7   0    2.72    0.40
  -4  -7   0    2.25    0.79
   4   7   0    2.14    0.30
  -5  -7   0   12.84    1.43
  -5  -7   0   11.90    0.61
  -5  -7   0   11.35    0.75
   5   7   0   11.69    0.61
  -6  -7   0    5.75    0.68
  -6  -7   0    5.90    0.45
  -6  -7   0    5.98    1.44
   6   7   0    4.94    0.49
   8  -8   0   -0.03    0.19
  -8   8   0    0.18    0.17
   7  -8   0    2.08    0.32
  -7   8   0    2.12    0.32
   6  -8   0    0.09    0.16
   6  -8   0    0.12    0.15
  -6   8   0    0.07    0.13
   5  -8   0    5.29    0.39
   5  -8   0    5.52    0.41
  -5   8   0    5.55    0.42
   4  -8   0   53.88    1.43
   4  -8   0   55.17    1.47
  -4   8   0   52.27    1.46
   3  -8   0    2.25    0.29
   3  -8   0    2.44    0.30
   3  -8   0    2.23    0.29
  -3   8   0    2.38    0.31
   2  -8   0    2.38    0.30
   2  -8   0    2.54    0.31
   2  -8   0    3.06    0.33
  -2   8   0    2.62    0.31
   1  -8   0  164.96    3.45
   1  -8   0  170.45    3.54
   1  -8   0  163.20    3.52
  -1   8   0  166.77    3.55
   0  -8   0   20.10    0.77
   0  -8   0   20.20    0.75
   0  -8   0   19.35    0.72
   0  -8   0   19.13    1.11
   0   8   0   18.47    0.75
  -1  -8   0    0.03    0.12
  -1  -8   0   -0.07    0.30
  -1  -8   0   -0.14    0.11
   1   8   0   -0.10    0.12
  -2  -8   0   12.76    0.56
  -2  -8   0   11.86    1.05
  -2  -8   0   10.99    0.59
  -3  -8   0    3.29    0.83
  -3  -8   0    2.69    0.35
  -3  -8   0    3.39    0.43
  -4  -8   0    0.05    0.57
  -4  -8   0    0.32    0.24
  -4  -8   0    0.15    0.17
   4   8   0    0.21    0.17
  -5  -8   0    3.53    0.53
  -5  -8   0    3.77    0.41
  -5  -8   0    4.82    1.18
   5   8   0    3.62    0.42
   8  -9   0    1.80    0.33
  -8   9   0    1.42    0.29
   7  -9   0   11.03    0.63
  -7   9   0    9.22    0.58
   6  -9   0    9.02    0.56
   6  -9   0    8.79    0.55
  -6   9   0    8.93    0.57
   5  -9   0   10.90    0.59
   5  -9   0   10.47    0.58
  -5   9   0    9.57    0.57
   4  -9   0   72.53    1.84
   4  -9   0   72.25    1.88
  -4   9   0   69.25    1.86
   3  -9   0   10.67    0.58
   3  -9   0    9.67    0.57
   3  -9   0   10.13    0.55
  -3   9   0   10.82    0.59
   2  -9   0   17.48    0.75
   2  -9   0   17.86    0.74
   2  -9   0   17.86    0.76
  -2   9   0   17.61    0.76
   1  -9   0   10.02    0.55
   1  -9   0   10.43    0.58
   1  -9   0   10.81    0.58
  -1   9   0   10.77    0.58
   0  -9   0    0.68    0.38
   0  -9   0    0.65    0.21
   0  -9   0    0.78    0.20
   0   9   0    0.62    0.21
  -1  -9   0    0.47    0.18
  -1  -9   0    0.87    0.44
  -1  -9   0    0.48    0.19
  -2  -9   0    9.14    0.98
  -2  -9   0   10.27    0.54
  -2  -9   0   10.70    0.61
  -3  -9   0   -0.27    0.15
  -3  -9   0    0.05    0.19
  -3  -9   0   -0.06    0.47
  -4  -9   0    0.04    0.18
  -4  -9   0    0.17    0.59
  -4  -9   0    0.09    0.24
   4   9   0    0.16    0.17
  -5  -9   0    1.02    0.28
  -5  -9   0    0.51    0.31
  -5  -9   0    0.00    0.63
   5   9   0    0.81    0.24
   7 -10   0    0.53    0.24
   7 -10   0    0.17    0.22
  -7  10   0    0.29    0.20
   6 -10   0   55.48    1.69
   6 -10   0   59.46    1.68
  -6  10   0   58.80    1.70
   5 -10   0   34.06    1.21
   5 -10   0   35.88    1.20
  -5  10   0   34.27    1.20
   4 -10   0    0.01    0.15
   4 -10   0    0.28    0.18
  -4  10   0   -0.17    0.12
   3 -10   0    0.16    0.18
   3 -10   0    0.24    0.18
   3 -10   0   -0.21    0.12
  -3  10   0    0.05    0.14
   2 -10   0   25.92    0.96
   2 -10   0   26.59    1.00
   2 -10   0   25.16    0.98
  -2  10   0   26.97    1.02
   1 -10   0    0.66    0.22
   1 -10   0    0.92    0.24
   1 -10   0    0.32    0.19
  -1  10   0    0.92    0.24
   0 -10   0   22.76    0.92
   0 -10   0   21.68    0.86
   0  10   0   20.88    0.89
  -1 -10   0   24.09    0.97
  -1 -10   0   25.56    0.94
  -2 -10   0    0.31    0.51
  -2 -10   0    0.00    0.18
  -3 -10   0    0.24    0.25
  -3 -10   0    0.04    0.18
  -3 -10   0   -0.23    0.52
  -4 -10   0    0.28    0.22
  -4 -10   0    0.21    0.27
  -4 -10   0   -0.31    0.64
   4  10   0    0.29    0.20
   7 -11   0    4.96    0.55
   7 -11   0    6.31    0.61
  -7  11   0    6.99    0.56
   6 -11   0   10.59    0.68
   6 -11   0   11.91    0.70
  -6  11   0   12.31    0.71
   5 -11   0    0.22    0.23
   5 -11   0    0.16    0.19
  -5  11   0    0.03    0.17
   4 -11   0   14.83    0.77
   4 -11   0   15.27    0.78
  -4  11   0   14.28    0.76
   3 -11   0   16.09    0.81
   3 -11   0   17.20    0.81
   3 -11   0   17.45    0.83
  -3  11   0   17.74    0.84
   2 -11   0   -0.09    0.15
   2 -11   0    0.01    0.15
   2 -11   0   -0.07    0.19
  -2  11   0   -0.16    0.14
   1 -11   0   -0.11    0.17
   1 -11   0    0.09    0.16
   1 -11   0    0.02    0.17
  -1  11   0    0.08    0.17
   0 -11   0    0.35    0.21
   0 -11   0    0.30    0.19
  -1 -11   0    2.25    0.36
  -1 -11   0    2.51    0.36
  -2 -11   0   37.73    1.34
  -3 -11   0   18.09    0.99
  -3 -11   0   17.65    0.88
   3  11   0   16.31    0.86
   6 -12   0   14.41    0.81
   6 -12   0   14.03    0.81
  -6  12   0   13.22    0.79
   5 -12   0   -0.14    0.20
   5 -12   0   -0.01    0.22
  -5  12   0    0.10    0.20
   4 -12   0    0.32    0.23
   4 -12   0   -0.13    0.19
  -4  12   0    0.06    0.18
   3 -12   0   12.98    0.74
   3 -12   0   11.35    0.70
  -3  12   0   11.89    0.73
   2 -12   0    0.16    0.23
   2 -12   0    0.02    0.18
   2 -12   0    0.01    0.19
  -2  12   0    0.01    0.17
   1 -12   0    2.66    0.41
   1 -12   0    2.70    0.42
  -1  12   0    3.05    0.44
   0 -12   0    7.17    0.55
   0 -12   0    5.99    0.61
  -1 -12   0    8.89    0.60
  -1 -12   0    9.27    0.67
  -2 -12   0    7.14    0.61
   2  12   0    5.77    0.59
   5 -13   0    6.95    0.66
   5 -13   0    6.05    0.62
  -5  13   0    6.02    0.64
   4 -13   0    1.11    0.32
   4 -13   0    1.20    0.33
  -4  13   0    1.58    0.36
   3 -13   0    2.96    0.45
   3 -13   0    2.66    0.44
  -3  13   0    2.32    0.42
   2 -13   0    7.08    0.67
   2 -13   0    5.79    0.61
  -2  13   0    6.61    0.65
   1 -13   0    1.73    0.37
   1 -13   0    2.25    0.40
  -1  13   0    1.58    0.38
   0 -13   0   14.74    0.80
   0 -13   0   13.41    0.83
  -1 -13   0   53.07    1.77
   3 -14   0    0.26    0.25
   3 -14   0    0.53    0.29
  -3  14   0    0.34    0.25
   2 -14   0   17.28    0.96
   2 -14   0   17.28    0.92
  -2  14   0   17.56    0.97
   1 -14   0   18.47    0.95
   1 -14   0   18.72    1.00
   1 -14   1    0.01    0.22
   1 -14   1    0.22    0.27
  -2  14  -1    0.28    0.25
   2 -14   1   -0.14    0.20
   2 -14   1    0.22    0.26
  -3  14  -1    4.06    0.56
   3 -14   1    4.00    0.54
   3 -14   1    4.22    0.55
  -1 -13   1    0.46    0.28
   0 -13   1    0.60    0.27
   0 -13   1    0.54    0.29
   1 -13   1    1.57    0.37
   1 -13   1    1.24    0.32
  -2  13  -1    2.47    0.43
   2 -13   1    2.95    0.48
   2 -13   1    2.03    0.37
  -3  13  -1   18.32    0.97
   3 -13   1   18.38    0.95
   3 -13   1   18.66    0.93
  -4  13  -1    3.62    0.51
   4 -13   1    4.88    0.57
   4 -13   1    4.40    0.54
  -5  13  -1    2.20    0.42
   5 -13   1    1.54    0.38
   5 -13   1    1.52    0.38
  -2 -12   1    2.04    0.39
  -1 -12   1    0.35    0.22
  -1 -12   1    0.53    0.24
   0 -12   1   10.74    0.71
   0 -12   1   10.24    0.65
  -1  12  -1   17.94    0.90
   1 -12   1   18.50    0.87
   1 -12   1   17.26    0.90
  -2  12  -1   12.87    0.76
   2 -12   1   13.50    0.74
   2 -12   1   14.31    0.81
   2 -12   1   14.09    0.78
  -3  12  -1    2.47    0.41
   3 -12   1    1.68    0.35
   3 -12   1    2.63    0.40
  -4  12  -1   28.53    1.19
   4 -12   1   31.80    1.20
   4 -12   1   30.68    1.23
  -5  12  -1    8.21    0.63
   5 -12   1    9.16    0.65
   5 -12   1    8.61    0.63
  -6  12  -1    2.54    0.42
   6 -12   1    3.01    0.45
   6 -12   1    2.34    0.40
  -3 -11   1   16.19    0.83
  -3 -11   1   15.62    0.94
  -2 -11   1    0.30    0.24
  -1 -11   1    1.25    0.28
  -1 -11   1    0.95    0.26
   0 -11   1    0.47    0.22
   0 -11   1    0.38    0.19
  -1  11  -1   20.82    0.92
   1 -11   1   19.73    0.91
   1 -11   1   18.57    0.85
   1 -11   1   21.57    0.89
  -2  11  -1   56.21    1.69
   2 -11   1   55.87    1.63
   2 -11   1   53.62    1.66
   2 -11   1   58.07    1.69
  -3  11  -1    0.73    0.23
   3 -11   1    0.62    0.25
   3 -11   1    0.54    0.22
   3 -11   1    0.22    0.21
  -4  11  -1   16.14    0.82
   4 -11   1   15.53    0.80
   4 -11   1   15.84    0.79
  -5  11  -1    6.62    0.54
   5 -11   1    5.98    0.51
   5 -11   1    6.48    0.52
  -6  11  -1   -0.28    0.15
   6 -11   1    0.13    0.20
   6 -11   1    0.17    0.20
  -7  11  -1    0.85    0.28
   7 -11   1    0.90    0.31
   7 -11   1    1.12    0.30
  -4 -10   1    0.13    0.20
  -4 -10   1   -0.13    0.23
  -4 -10   1    0.15    0.64
  -3 -10   1    2.95    0.89
  -3 -10   1    3.29    0.42
  -3 -10   1    3.85    0.54
  -2 -10   1    0.03    0.18
  -2 -10   1    0.46    0.55
  -1 -10   1   12.46    0.63
  -1 -10   1   12.87    0.69
   0  10  -1   88.25    2.20
   0 -10   1   82.11    2.08
   0 -10   1   82.63    2.16
  -1  10  -1   24.66    0.97
   1 -10   1   26.07    0.99
   1 -10   1   25.42    0.97
   1 -10   1   24.29    0.93
  -2  10  -1    0.42    0.20
   2 -10   1    0.34    0.17
   2 -10   1    0.26    0.21
   2 -10   1    0.37    0.18
  -3  10  -1    7.56    0.53
   3 -10   1    7.00    0.50
   3 -10   1    6.79    0.48
   3 -10   1    6.82    0.52
  -4  10  -1    2.91    0.39
   4 -10   1    2.98    0.38
   4 -10   1    3.05    0.39
  -5  10  -1   13.50    0.72
   5 -10   1   12.58    0.69
   5 -10   1   11.41    0.65
  -6  10  -1   19.66    0.88
   6 -10   1   17.75    0.85
   6 -10   1   18.56    0.85
  -7  10  -1    6.65    0.53
   7 -10   1    7.39    0.55
   7 -10   1    5.79    0.57
   5   9  -1    2.54    0.38
  -5  -9   1    2.27    0.35
  -5  -9   1    2.84    0.50
  -5  -9   1    1.64    0.91
  -4  -9   1    6.40    1.26
  -4  -9   1    6.63    0.51
  -4  -9   1    6.10    0.66
  -3  -9   1   47.73    1.59
  -3  -9   1   46.42    1.40
  -3  -9   1   43.21    2.60
  -2  -9   1   30.88    1.96
  -2  -9   1   37.79    1.10
  -2  -9   1   37.41    1.18
  -1  -9   1    5.81    0.47
  -1  -9   1    5.62    0.41
  -1  -9   1    5.69    0.73
   0   9  -1   11.29    0.60
   0  -9   1   11.49    0.62
   0  -9   1   11.16    0.58
   0  -9   1   11.21    0.57
  -1   9  -1    4.47    0.45
   1  -9   1    4.30    0.43
   1  -9   1    4.69    0.38
   1  -9   1    4.04    0.41
  -2   9  -1    1.60    0.28
   2  -9   1    1.38    0.25
   2  -9   1    1.72    0.28
   2  -9   1    1.89    0.30
  -3   9  -1    0.62    0.20
   3  -9   1    1.41    0.27
   3  -9   1    1.42    0.26
   3  -9   1    1.36    0.25
  -4   9  -1    3.82    0.41
   4  -9   1    4.11    0.42
   4  -9   1    3.40    0.38
  -5   9  -1    0.15    0.16
   5  -9   1   -0.14    0.13
   5  -9   1   -0.02    0.14
  -6   9  -1    5.48    0.46
   6  -9   1    5.35    0.45
   6  -9   1    5.23    0.50
  -7   9  -1    2.91    0.38
   7  -9   1    3.32    0.41
   7  -9   1    3.04    0.40
   5   8  -1    9.56    0.59
  -5  -8   1    9.99    0.75
  -5  -8   1   10.94    0.60
  -5  -8   1   10.80    1.38
  -4  -8   1    0.14    0.21
  -4  -8   1    0.16    0.19
  -4  -8   1    0.13    0.53
  -3  -8   1   10.80    0.58
  -3  -8   1    9.73    0.65
  -3  -8   1    9.19    1.09
  -2  -8   1    6.71    0.83
  -2  -8   1    7.81    0.48
  -2  -8   1    7.08    0.42
  -1  -8   1   12.50    0.96
  -1  -8   1   12.88    0.57
  -1  -8   1   13.54    0.63
   0   8  -1   13.19    0.62
   0  -8   1   13.96    0.59
   0  -8   1   13.12    0.87
   0  -8   1   14.11    0.63
   0  -8   1   14.40    0.61
  -1   8  -1    3.52    0.37
   1  -8   1    3.29    0.35
   1  -8   1    3.29    0.35
   1  -8   1    2.46    0.30
  -2   8  -1    6.16    0.43
   2  -8   1    5.87    0.40
   2  -8   1    6.63    0.44
   2  -8   1    7.47    0.45
  -3   8  -1    9.22    0.51
   3  -8   1   10.00    0.54
   3  -8   1    9.90    0.52
   3  -8   1    9.47    0.51
  -4   8  -1   13.37    0.62
   4  -8   1   12.71    0.60
   4  -8   1   12.77    0.61
  -5   8  -1   30.73    1.02
   5  -8   1   29.07    1.02
   5  -8   1   30.69    1.00
  -6   8  -1   10.67    0.58
   6  -8   1   10.52    0.57
   6  -8   1   10.71    0.59
  -7   8  -1    7.33    0.49
   7  -8   1    7.03    0.49
  -8   8  -1   11.01    0.61
   8  -8   1   11.03    0.62
   6   7  -1    9.11    0.55
  -6  -7   1   10.55    0.56
  -6  -7   1    8.00    0.71
  -6  -7   1    7.99    1.54
   5   7  -1    1.24    0.26
  -5  -7   1    0.68    0.21
  -5  -7   1    1.43    0.36
  -5  -7   1    1.11    0.72
  -4  -7   1    0.78    0.21
  -4  -7   1    0.73    0.26
  -4  -7   1    0.59    0.52
  -3  -7   1    0.08    0.14
  -3  -7   1    0.21    0.18
  -3  -7   1   -0.03    0.44
  -2  -7   1    6.10    0.41
  -2  -7   1    6.76    0.79
  -2  -7   1    6.31    0.36
  -1  -7   1   21.60    0.77
  -1  -7   1   20.27    0.70
  -1  -7   1   21.44    1.22
   0   7  -1   11.47    0.53
   0  -7   1   10.25    0.50
   0  -7   1   10.27    0.48
   0  -7   1   10.30    0.49
   0  -7   1   10.08    0.71
  -1   7  -1    2.13    0.27
   1  -7   1    1.67    0.24
   1  -7   1    1.47    0.23
   1  -7   1    1.49    0.22
   1  -7   1    1.73    0.31
  -2   7  -1   42.60    1.20
   2  -7   1   43.03    1.17
   2  -7   1   45.74    1.21
   2  -7   1   44.09    1.20
  -3   7  -1   16.51    0.52
  -3   7  -1   15.71    0.64
   3  -7   1   16.64    0.65
   3  -7   1   15.96    0.63
  -4   7  -1    0.52    0.17
   4  -7   1    0.36    0.14
   4  -7   1    0.54    0.16
  -5   7  -1   23.11    0.82
   5  -7   1   23.67    0.83
   5  -7   1   21.28    0.78
  -6   7  -1   49.23    1.39
   6  -7   1   50.17    1.37
   6  -7   1   53.21    1.43
  -7   7  -1   14.88    0.67
   7  -7   1   16.39    0.71
  -8   7  -1    4.65    0.39
   8  -7   1    4.12    0.44
   6   6  -1    4.67    0.38
  -6  -6   1    4.11    1.12
  -6  -6   1    4.74    0.40
  -6  -6   1    4.13    0.57
   5   6  -1   12.63    0.59
  -5  -6   1   12.21    0.75
  -5  -6   1   13.24    0.59
  -5  -6   1   10.57    1.27
  -4  -6   1   14.40    0.61
  -4  -6   1   13.19    0.71
  -4  -6   1   14.73    1.33
  -3  -6   1    0.75    0.19
  -3  -6   1    1.12    0.25
  -3  -6   1    0.54    0.49
  -2  -6   1   18.61    1.23
  -2  -6   1   19.34    0.61
  -2  -6   1   18.90    0.68
  -1  -6   1    0.00    0.10
  -1  -6   1   -0.01    0.23
  -1  -6   1    0.02    0.10
   0  -6   1   68.63    1.57
   0  -6   1   68.06    1.61
   0  -6   1   69.42    2.55
   0  -6   1   70.56    1.62
  -1   6  -1   17.11    0.63
   1  -6   1   18.18    0.63
   1  -6   1   17.92    0.63
   1  -6   1   18.02    0.80
   1  -6   1   18.92    0.62
  -2   6  -1    0.30    0.12
   2  -6   1    0.52    0.14
   2  -6   1    0.41    0.13
  -3   6  -1    1.40    0.21
  -3   6  -1    1.46    0.16
   3  -6   1    1.52    0.22
   3  -6   1    1.83    0.23
  -4   6  -1    0.40    0.13
  -4   6  -1    0.53    0.13
   4  -6   1    0.34    0.13
   4  -6   1    0.26    0.13
  -5   6  -1    0.31    0.13
  -5   6  -1    0.40    0.15
   5  -6   1    0.55    0.15
   5  -6   1    0.59    0.17
  -6   6  -1    0.52    0.17
   6  -6   1    0.66    0.10
   6  -6   1    0.47    0.16
   6  -6   1    0.51    0.16
  -7   6  -1    1.36    0.24
   7  -6   1    1.57    0.25
   7  -6   1    1.49    0.13
  -8   6  -1    5.61    0.41
   8  -6   1    5.40    0.42
   7   5  -1    6.99    0.45
  -7  -5   1    6.91    0.75
  -7  -5   1    7.22    1.52
   6   5  -1    6.79    0.42
  -6  -5   1    7.66    1.44
  -6  -5   1    5.57    0.39
  -6  -5   1    6.70    0.70
   5   5  -1    0.83    0.19
  -5  -5   1    0.67    0.17
  -5  -5   1    0.76    0.25
  -5  -5   1    1.20    0.69
  -4  -5   1   11.43    1.14
  -4  -5   1   11.59    0.50
  -4  -5   1   12.27    0.67
  -3  -5   1    0.21    0.12
  -3  -5   1    0.29    0.17
  -3  -5   1   -0.17    0.32
  -2  -5   1   -0.22    0.23
  -2  -5   1   -0.05    0.09
  -2  -5   1   -0.05    0.08
  -1  -5   1   14.96    0.54
  -1  -5   1   14.13    0.88
  -1  -5   1   14.19    0.49
   0  -5   1    2.17    0.21
   0  -5   1    1.79    0.20
   0  -5   1    2.17    0.30
   0  -5   1    2.15    0.23
   1  -5   1    3.59    0.26
   1  -5   1    3.21    0.24
  -2   5  -1   15.80    0.56
   2  -5   1   16.55    0.56
   2  -5   1   16.32    0.55
  -3   5  -1    0.79    0.12
  -3   5  -1    0.44    0.13
   3  -5   1    0.59    0.13
   3  -5   1    0.64    0.15
  -4   5  -1    0.27    0.10
  -4   5  -1    0.31    0.12
   4  -5   1    0.59    0.15
   4  -5   1    0.25    0.07
   4  -5   1    0.31    0.11
  -5   5  -1   17.49    0.62
   5  -5   1   16.95    0.62
   5  -5   1   16.48    0.59
  -6   5  -1   29.85    0.88
  -6   5  -1   26.73    1.12
   6  -5   1   28.74    0.89
  -7   5  -1    0.73    0.17
  -7   5  -1    0.36    0.23
   7  -5   1    0.39    0.16
  -8   5  -1   -0.01    0.13
  -8   5  -1   -0.24    0.21
   8  -5   1    0.13    0.15
   7   4  -1    6.39    0.40
  -7  -4   1    6.99    0.72
  -7  -4   1    4.87    1.30
   6   4  -1    1.88    0.24
  -6  -4   1    3.27    0.96
  -6  -4   1    1.78    0.39
  -6  -4   1    2.01    0.23
   5   4  -1    9.81    0.44
  -5  -4   1    9.25    0.43
  -5  -4   1   10.48    1.16
  -5  -4   1    9.91    0.64
  -4  -4   1    0.10    0.10
  -4  -4   1    0.11    0.15
  -4  -4   1    0.01    0.41
  -3  -4   1    1.54    0.19
  -3  -4   1    1.46    0.55
  -3  -4   1    1.58    0.26
  -2  -4   1    1.28    0.21
  -2  -4   1    1.20    0.41
  -2  -4   1    1.33    0.17
  -1  -4   1    9.54    0.38
  -1  -4   1    9.32    0.65
   0  -4   1  177.54    5.90
   0  -4   1  186.84    3.54
   1  -4   1    9.94    0.38
   1  -4   1   10.08    0.37
  -2   4  -1   65.27    1.34
   2  -4   1   66.02    1.41
   2  -4   1   65.71    1.44
  -3   4  -1    8.93    0.34
  -3   4  -1    9.92    0.40
   3  -4   1    9.77    0.39
   3  -4   1    9.28    0.24
   3  -4   1    9.41    0.37
  -4   4  -1    1.47    0.19
  -4   4  -1    1.38    0.18
  -4   4  -1    1.45    0.25
   4  -4   1    1.80    0.19
   4  -4   1    1.49    0.19
  -5   4  -1    0.04    0.13
  -5   4  -1    0.07    0.09
  -5   4  -1    0.05    0.38
   5  -4   1   -0.08    0.09
   5  -4   1   -0.10    0.08
  -6   4  -1    0.03    0.17
  -6   4  -1    0.14    0.10
  -6   4  -1    0.40    0.51
   6  -4   1   -0.04    0.10
  -7   4  -1    0.72    0.16
  -7   4  -1    0.74    0.26
   7  -4   1    0.54    0.17
  -8   4  -1    6.00    0.66
   8  -4   1    5.55    0.38
   7   3  -1    9.93    0.46
  -7  -3   1   10.04    0.77
  -7  -3   1   10.41    1.40
   6   3  -1   23.21    0.73
  -6  -3   1   28.15    2.01
  -6  -3   1   24.59    0.70
  -6  -3   1   25.18    1.10
   5   3  -1    0.03    0.10
  -5  -3   1    0.24    0.20
  -5  -3   1    0.24    0.10
  -5  -3   1   -0.11    0.43
  -4  -3   1    8.23    0.51
  -4  -3   1    6.61    0.32
  -4  -3   1    7.36    0.86
  -3  -3   1    9.04    0.35
  -3  -3   1    9.29    0.85
  -3  -3   1    8.78    0.47
  -2  -3   1   58.17    1.43
  -2  -3   1   56.62    2.37
  -1  -3   1   11.19    0.68
   0  -3   1   39.42    1.41
   0  -3   1   39.22    0.89
   1  -3   1  123.45    2.42
  -2   3  -1   11.55    0.34
   2  -3   1   12.20    0.40
  -3   3  -1   27.24    0.71
  -3   3  -1   23.99    1.22
  -3   3  -1   27.48    0.71
  -3   3  -1   28.40    0.84
   3  -3   1   29.00    0.71
  -4   3  -1   44.33    1.28
  -4   3  -1   44.67    1.05
  -4   3  -1   42.43    1.98
   4  -3   1   45.18    1.03
   4  -3   1   45.78    1.06
  -5   3  -1    8.68    0.86
  -5   3  -1    8.49    0.53
  -5   3  -1    8.10    0.36
   5  -3   1    8.53    0.36
   5  -3   1    8.05    0.36
  -6   3  -1    1.13    0.59
  -6   3  -1    1.65    0.32
  -6   3  -1    1.57    0.19
   6  -3   1    1.56    0.21
  -7   3  -1    0.51    0.25
  -7   3  -1    0.08    0.52
  -7   3  -1    0.90    0.17
   7  -3   1    1.05    0.19
  -8   3  -1    0.20    0.25
  -8   3  -1   -0.06    0.65
   8  -3   1    0.13    0.15
  -8  -2   1   18.56    1.07
  -8  -2   1   19.27    1.96
   7   2  -1    0.93    0.17
  -7  -2   1    0.41    0.69
  -7  -2   1    0.68    0.28
   6   2  -1    3.31    0.24
  -6  -2   1    5.39    1.16
  -6  -2   1    3.14    0.45
   5   2  -1   12.88    0.43
  -5  -2   1   14.33    1.22
  -5  -2   1   13.38    0.70
  -5  -2   1   12.47    0.42
  -4  -2   1   25.33    0.65
  -4  -2   1   26.48    0.94
  -4  -2   1   26.17    1.58
  -3  -2   1   66.21    2.81
  -3  -2   1   69.38    1.71
  -3  -2   1   69.46    1.40
  -2  -2   1    6.13    0.60
  -2  -2   1    5.91    0.33
  -1  -2   1    9.08    0.59
   0  -2   1    0.80    0.10
   1  -2   1   79.60    1.58
  -2   2  -1  135.21    4.55
  -2   2  -1  139.35    2.64
   2  -2   1  136.85    2.63
  -3   2  -1   30.33    1.38
  -3   2  -1   28.47    0.86
   3  -2   1   29.29    0.70
  -4   2  -1    5.83    0.39
  -4   2  -1    5.07    0.26
  -4   2  -1    5.44    0.61
   4  -2   1    5.46    0.26
  -5   2  -1    4.24    0.43
  -5   2  -1    5.03    0.27
  -5   2  -1    4.99    0.70
   5  -2   1    4.17    0.25
  -6   2  -1   16.41    0.54
  -6   2  -1   16.31    0.82
  -6   2  -1   15.08    1.32
   6  -2   1   17.13    0.57
  -7   2  -1    0.22    0.23
  -7   2  -1    0.61    0.64
  -7   2  -1    0.23    0.11
   7  -2   1    0.49    0.14
  -8   2  -1   17.07    0.98
   8  -2   1   17.75    0.65
  -8  -1   1    5.78    0.68
  -8  -1   1    5.43    1.32
   7   1  -1    1.01    0.16
  -7  -1   1    0.85    0.30
  -7  -1   1    0.31    0.65
   6   1  -1   12.53    0.41
  -6  -1   1   10.70    1.23
  -6  -1   1   13.08    0.74
   5   1  -1    0.06    0.07
  -5  -1   1    0.05    0.14
  -5  -1   1   -0.01    0.06
  -5  -1   1   -0.13    0.39
  -4  -1   1  349.75   11.87
  -4  -1   1  355.59    7.30
  -3  -1   1   17.37    1.08
  -3  -1   1   13.78    0.59
  -2  -1   1  154.92    5.28
  -1  -1   1    3.35    0.35
   1  -1   1   62.80    1.23
  -2   1  -1    2.27    0.35
   2  -1   1    1.94    0.13
  -3   1  -1   29.95    0.86
  -3   1  -1   28.50    1.41
   3  -1   1   28.35    0.67
  -4   1  -1   68.01    1.73
  -4   1  -1   64.62    2.78
   4  -1   1   68.36    1.41
  -5   1  -1    1.79    0.29
  -5   1  -1    3.30    0.75
   5  -1   1    1.99    0.19
  -6   1  -1   30.63    1.14
  -6   1  -1   30.74    1.95
   6  -1   1   31.91    0.84
  -7   1  -1    4.33    0.99
  -7   1  -1    6.73    0.57
   7  -1   1    6.85    0.36
  -8   1  -1    1.86    0.42
  -8   1  -1    1.49    0.88
   8  -1   1    2.22    0.28
  -8   0   1    1.20    0.86
  -8   0   1    1.53    0.40
   7   0  -1    0.05    0.10
  -7   0   1    0.15    0.18
  -7   0   1   -0.12    0.58
   6   0  -1    0.83    0.13
  -6   0   1    1.31    0.29
  -6   0   1    2.02    0.78
   5   0  -1   14.97    0.40
  -5   0   1   15.97    0.73
  -5   0   1   14.85    1.24
   4   0  -1    6.26    0.19
  -4   0   1    6.38    0.73
  -4   0   1    6.15    0.42
  -3   0   1   26.38    1.35
  -3   0   1   24.15    0.79
  -2   0   1  830.29   26.21
  -1   0   1    7.38    0.47
  -1   0  -1    9.20    0.49
   1   0   1    9.78    0.25
  -2   0  -1   51.53    2.01
   2   0   1   54.17    1.07
  -3   0  -1   93.37    3.47
  -3   0  -1   90.62    2.10
   3   0   1   92.89    1.82
  -4   0  -1   38.85    1.96
  -4   0  -1   37.85    0.88
  -4   0  -1   37.78    1.14
   4   0   1   38.01    0.88
  -5   0  -1   28.46    1.02
  -5   0  -1   29.27    1.75
  -5   0  -1   27.25    0.73
   5   0   1   29.32    0.75
  -6   0  -1    6.35    0.91
  -6   0  -1    5.84    0.51
   6   0   1    5.51    0.31
  -7   0  -1   19.13    1.72
  -7   0  -1   17.78    0.92
   7   0   1   19.23    0.64
  -8   0  -1    4.08    1.23
  -8   0  -1    4.19    0.58
   8   0   1    4.46    0.34
  -8   1   1    9.31    1.31
   7  -1  -1   -0.05    0.09
  -7   1   1    0.12    0.20
  -7   1   1    0.22    0.61
   6  -1  -1    0.49    0.10
  -6   1   1    0.33    0.50
  -6   1   1    0.23    0.18
   5  -1  -1   31.59    0.70
  -5   1   1   29.55    1.78
  -5   1   1   31.70    1.09
   4  -1  -1   25.41    0.54
  -4   1   1   26.32    1.47
  -4   1   1   24.05    0.87
  -3   1   1   20.87    1.13
  -3   1   1   18.98    0.66
  -3   1   1   18.49    0.61
  -2   1   1   -0.07    0.07
  -2   1   1   -0.28    0.22
   1  -1  -1   95.91    1.78
   0   1   1    0.86    0.08
   1   1   1  101.77    1.94
  -2  -1  -1  952.64   30.73
   2   1   1 1000.00   17.73
  -3  -1  -1   21.23    1.19
  -3  -1  -1   20.80    0.55
  -3  -1  -1   20.03    0.70
   3   1   1   19.96    0.53
  -4  -1  -1    5.46    0.28
  -4  -1  -1    5.94    0.40
  -4  -1  -1    5.93    0.73
   4   1   1    5.90    0.27
  -5  -1  -1   19.33    1.42
  -5  -1  -1   19.02    0.58
  -5  -1  -1   19.67    0.82
   5   1   1   19.54    0.59
  -6  -1  -1   51.57    1.61
  -6  -1  -1   49.20    2.75
  -6  -1  -1   49.57    1.17
   6   1   1   49.36    1.22
  -7  -1  -1    1.04    0.73
  -7  -1  -1    1.05    0.33
   7   1   1    1.13    0.20
  -8  -1  -1   -0.20    0.23
  -8  -1  -1   -0.10    0.77
   8   1   1    0.13    0.16
  -8   2   1    4.25    0.58
   7  -2  -1    7.28    0.33
  -7   2   1    7.86    0.63
   6  -2  -1   27.86    0.69
  -6   2   1   26.66    0.65
  -6   2   1   28.43    1.09
   5  -2  -1   -0.05    0.06
  -5   2   1    0.07    0.13
  -5   2   1   -0.03    0.05
  -5   2   1   -0.07    0.36
   4  -2  -1    8.21    0.26
  -4   2   1    7.78    0.26
  -4   2   1    8.35    0.46
  -4   2   1    6.40    0.70
  -4   2   1    8.29    0.42
   3  -2  -1    6.06    0.21
  -3   2   1    5.32    0.33
  -3   2   1    6.00    0.31
   2  -2  -1   19.08    0.44
  -2   2   1   17.39    0.50
   1  -2  -1  159.07    2.99
  -2  -2  -1   39.26    1.76
   2   2   1   43.70    0.94
  -3  -2  -1   33.01    1.68
  -3  -2  -1   33.28    0.83
  -3  -2  -1   33.94    0.99
   3   2   1   34.74    0.83
  -4  -2  -1   35.45    0.89
  -4  -2  -1   37.20    1.95
  -4  -2  -1   34.62    1.12
   4   2   1   35.17    0.89
   4   2   1   35.61    0.87
  -5  -2  -1   19.96    1.55
  -5  -2  -1   19.24    0.61
  -5  -2  -1   19.08    0.82
   5   2   1   18.86    0.61
  -6  -2  -1   13.61    1.35
  -6  -2  -1   10.36    0.67
  -6  -2  -1   11.31    0.47
   6   2   1   10.43    0.46
  -7  -2  -1    0.03    0.61
  -7  -2  -1    0.22    0.23
   7   2   1    0.33    0.15
  -8   3   1   15.51    0.93
   7  -3  -1    1.00    0.17
  -7   3   1    0.68    0.27
   6  -3  -1   35.92    0.86
  -6   3   1   33.08    0.83
  -6   3   1   34.32    1.26
   5  -3  -1   48.11    1.07
  -5   3   1   46.90    1.43
  -5   3   1   47.49    1.30
  -5   3   1   45.66    1.05
   4  -3  -1   51.32    1.09
  -4   3   1   47.80    1.09
  -4   3   1   49.97    1.39
  -4   3   1   49.46    1.25
   3  -3  -1   11.66    0.37
  -3   3   1   11.28    0.50
  -3   3   1   12.04    0.44
   2  -3  -1   33.52    0.77
  -2   3   1   31.78    0.79
   1  -3  -1  510.29    9.37
  -2  -3  -1    1.97    0.19
  -2  -3  -1    3.36    0.57
  -2  -3  -1    2.40    0.25
   2   3   1    2.13    0.18
  -3  -3  -1    1.49    0.24
  -3  -3  -1    1.01    0.40
  -3  -3  -1    1.40    0.17
   3   3   1    1.03    0.14
   3   3   1    1.29    0.17
  -4  -3  -1    2.51    0.33
  -4  -3  -1    2.57    0.24
  -4  -3  -1    2.88    0.70
   4   3   1    2.47    0.23
   4   3   1    2.31    0.23
  -5  -3  -1   18.23    1.53
  -5  -3  -1   17.23    0.81
  -5  -3  -1   17.36    0.61
   5   3   1   17.52    0.62
  -6  -3  -1   59.13    1.44
  -6  -3  -1   61.56    3.27
  -6  -3  -1   62.25    1.86
   6   3   1   58.03    1.47
  -7  -3  -1    4.04    1.17
  -7  -3  -1    3.96    0.55
   7   3   1    4.01    0.34
   8  -4  -1    1.94    0.24
  -8   4   1    1.35    0.38
   7  -4  -1   26.24    0.76
  -7   4   1   25.30    1.12
  -7   4   1   24.70    0.71
   6  -4  -1   17.17    0.57
  -6   4   1   16.73    0.55
  -6   4   1   18.27    0.87
   5  -4  -1    0.48    0.12
   5  -4  -1    0.54    0.12
  -5   4   1    0.41    0.15
  -5   4   1    0.71    0.21
  -5   4   1    0.26    0.10
   4  -4  -1    6.83    0.31
   4  -4  -1    6.64    0.30
  -4   4   1    5.86    0.40
  -4   4   1    6.39    0.31
  -4   4   1    6.58    0.36
   3  -4  -1   11.23    0.41
   3  -4  -1   11.30    0.40
  -3   4   1   11.13    0.43
  -3   4   1   12.08    0.42
   2  -4  -1    4.42    0.25
   2  -4  -1    4.34    0.25
   1  -4  -1  103.86    2.12
   1  -4  -1  107.55    2.17
   0  -4  -1    2.62    0.21
  -1  -4  -1   18.96    0.60
  -1  -4  -1   19.96    0.58
  -2  -4  -1    2.99    0.59
  -2  -4  -1    2.67    0.25
  -2  -4  -1    2.56    0.27
  -3  -4  -1    0.38    0.15
  -3  -4  -1    0.37    0.12
  -3  -4  -1    0.49    0.37
   3   4   1    0.41    0.13
  -4  -4  -1    0.99    0.23
  -4  -4  -1    1.19    0.54
  -4  -4  -1    0.87    0.18
   4   4   1    1.35    0.20
  -5  -4  -1    0.03    0.44
  -5  -4  -1    0.19    0.13
  -5  -4  -1    0.16    0.18
   5   4   1   -0.03    0.12
  -6  -4  -1    0.16    0.22
  -6  -4  -1    0.42    0.17
  -6  -4  -1   -0.19    0.56
   6   4   1    0.13    0.14
  -7  -4  -1    0.44    0.76
  -7  -4  -1    0.75    0.32
   7   4   1    0.86    0.21
   8  -5  -1    3.90    0.32
  -8   5   1    3.91    0.55
   7  -5  -1   13.86    0.56
  -7   5   1   15.39    0.56
  -7   5   1   17.69    0.90
   6  -5  -1    2.64    0.26
  -6   5   1    2.67    0.41
  -6   5   1    2.83    0.26
  -6   5   1    2.75    0.34
   5  -5  -1    0.31    0.11
   5  -5  -1    0.27    0.12
  -5   5   1    0.16    0.12
  -5   5   1    0.27    0.12
  -5   5   1    0.38    0.18
   4  -5  -1    2.41    0.24
   4  -5  -1    1.94    0.21
  -4   5   1    2.35    0.23
  -4   5   1    2.21    0.24
   3  -5  -1   23.78    0.69
   3  -5  -1   24.05    0.51
   3  -5  -1   24.19    0.71
  -3   5   1   25.13    0.71
  -3   5   1   23.80    0.72
   2  -5  -1   41.17    1.02
   2  -5  -1   41.60    1.05
  -2   5   1   42.22    1.06
   1  -5  -1   47.09    1.15
   1  -5  -1   46.24    1.12
   0  -5  -1    5.46    0.30
   0  -5  -1    5.17    0.32
  -1  -5  -1   11.83    0.85
  -1  -5  -1   12.36    0.50
  -1  -5  -1   12.41    0.47
  -2  -5  -1   37.27    1.81
  -2  -5  -1   36.71    0.92
  -2  -5  -1   35.23    0.99
  -2  -5  -1   35.45    1.05
  -3  -5  -1   -0.03    0.10
  -3  -5  -1    0.07    0.14
  -3  -5  -1   -0.10    0.28
   3   5   1    0.09    0.11
  -4  -5  -1   12.78    1.22
  -4  -5  -1   12.89    0.68
  -4  -5  -1   13.55    0.57
   4   5   1   14.32    0.58
  -5  -5  -1    7.16    0.56
  -5  -5  -1    8.34    0.47
  -5  -5  -1    6.49    1.23
   5   5   1    6.83    0.43
  -6  -5  -1    0.07    0.21
  -6  -5  -1    0.03    0.14
  -6  -5  -1   -0.68    0.55
   6   5   1   -0.01    0.15
   8  -6  -1    0.86    0.22
  -8   6   1    1.24    0.38
   7  -6  -1    0.91    0.20
  -7   6   1    0.80    0.19
   6  -6  -1   14.35    0.57
  -6   6   1   13.26    0.62
  -6   6   1   13.19    0.56
   5  -6  -1   15.30    0.58
   5  -6  -1   14.16    0.56
   5  -6  -1   14.84    0.35
  -5   6   1   15.31    0.58
  -5   6   1   14.92    0.60
   4  -6  -1    8.35    0.41
   4  -6  -1    8.51    0.27
   4  -6  -1    7.88    0.40
  -4   6   1    7.91    0.42
  -4   6   1    8.94    0.42
   3  -6  -1   73.35    1.70
   3  -6  -1   74.75    1.39
   3  -6  -1   76.07    1.74
  -3   6   1   77.84    1.76
  -3   6   1   77.18    1.70
   2  -6  -1    0.59    0.15
   2  -6  -1    0.63    0.15
  -2   6   1    0.73    0.16
   1  -6  -1    0.25    0.12
   1  -6  -1    0.45    0.14
   1  -6  -1    0.49    0.14
  -1   6   1    0.24    0.13
   0  -6  -1   22.49    0.75
   0  -6  -1   23.93    0.74
   0   6   1   23.59    0.76
  -1  -6  -1   37.58    1.05
  -1  -6  -1   36.11    0.99
  -1  -6  -1   37.45    1.78
  -2  -6  -1    2.98    0.31
  -2  -6  -1    3.23    0.29
  -2  -6  -1    4.42    0.77
  -3  -6  -1    5.12    0.37
  -3  -6  -1    5.53    0.95
  -3  -6  -1    4.03    0.42
   3   6   1    4.52    0.35
  -4  -6  -1    6.14    0.50
  -4  -6  -1    6.19    0.43
  -4  -6  -1    7.28    1.22
   4   6   1    4.96    0.38
  -5  -6  -1   10.94    0.58
  -5  -6  -1   12.09    0.73
  -5  -6  -1   10.78    1.34
   5   6   1   12.17    0.59
  -6  -6  -1    0.49    0.29
  -6  -6  -1    0.09    0.61
  -6  -6  -1    0.01    0.16
   6   6   1   -0.05    0.17
   8  -7  -1   15.11    0.68
  -8   7   1   15.58    0.65
   7  -7  -1   16.74    0.70
   7  -7  -1   16.37    0.42
  -7   7   1   16.28    0.68
   6  -7  -1    9.83    0.51
   6  -7  -1    8.97    0.31
   6  -7  -1    9.77    0.50
  -6   7   1    9.43    0.50
  -6   7   1    8.85    0.50
   5  -7  -1   33.30    0.73
   5  -7  -1   34.57    1.01
   5  -7  -1   34.20    1.03
  -5   7   1   34.58    1.01
  -5   7   1   32.78    1.02
   4  -7  -1   -0.24    0.09
   4  -7  -1    0.17    0.09
   4  -7  -1   -0.02    0.10
  -4   7   1   -0.01    0.11
  -4   7   1   -0.02    0.09
   3  -7  -1    9.50    0.46
   3  -7  -1    9.72    0.48
  -3   7   1    9.33    0.48
   2  -7  -1   15.21    0.62
   2  -7  -1   15.61    0.62
   2  -7  -1   15.13    0.60
  -2   7   1   15.37    0.62
   1  -7  -1   41.85    1.18
   1  -7  -1   42.95    1.14
   1  -7  -1   41.07    1.16
  -1   7   1   42.07    1.18
   0  -7  -1   17.41    0.68
   0  -7  -1   17.71    0.65
   0   7   1   17.31    0.68
  -1  -7  -1    2.07    0.54
  -1  -7  -1    2.15    0.26
  -1  -7  -1    1.82    0.26
   1   7   1    1.80    0.26
  -2  -7  -1    4.50    0.33
  -2  -7  -1    5.92    0.95
  -2  -7  -1    4.27    0.37
  -3  -7  -1   16.12    0.69
  -3  -7  -1   15.97    0.76
  -3  -7  -1   15.66    1.29
   3   7   1   15.77    0.69
  -4  -7  -1    7.84    0.56
  -4  -7  -1    7.85    0.50
  -4  -7  -1    5.93    1.12
   4   7   1    7.21    0.47
  -5  -7  -1    3.74    0.40
  -5  -7  -1    2.71    0.95
  -5  -7  -1    3.82    0.50
   5   7   1    3.72    0.40
  -6  -7  -1    5.54    1.34
  -6  -7  -1    6.35    0.69
  -6  -7  -1    7.24    0.51
   6   7   1    6.56    0.49
   8  -8  -1   21.71    0.59
   8  -8  -1   21.11    0.86
  -8   8   1   23.08    0.86
   7  -8  -1    4.41    0.26
   7  -8  -1    4.21    0.42
  -7   8   1    3.99    0.41
   6  -8  -1   53.99    1.47
   6  -8  -1   54.17    1.12
   6  -8  -1   53.55    1.49
  -6   8   1   54.51    1.49
   5  -8  -1    9.08    0.51
   5  -8  -1    8.81    0.50
  -5   8   1    9.53    0.52
  -5   8   1    8.93    0.47
   4  -8  -1    1.20    0.22
   4  -8  -1    1.04    0.21
  -4   8   1    0.87    0.21
  -4   8   1    1.11    0.19
   3  -8  -1   81.40    1.95
   3  -8  -1   85.19    1.99
   3  -8  -1   80.71    1.99
  -3   8   1   83.54    2.01
   2  -8  -1    0.53    0.18
   2  -8  -1    0.57    0.17
   2  -8  -1    0.34    0.16
  -2   8   1    0.42    0.16
   1  -8  -1    6.58    0.44
   1  -8  -1    5.12    0.38
   1  -8  -1    6.49    0.40
  -1   8   1    5.64    0.41
   0  -8  -1    0.56    0.17
   0  -8  -1    0.46    0.18
   0   8   1    0.39    0.15
  -1  -8  -1    1.89    0.26
  -1  -8  -1    2.19    0.59
  -1  -8  -1    1.19    0.23
   1   8   1    1.04    0.23
  -2  -8  -1    0.36    0.18
  -2  -8  -1    0.36    0.16
  -2  -8  -1    0.78    0.49
  -3  -8  -1   54.42    2.80
  -3  -8  -1   54.18    1.53
  -3  -8  -1   55.17    1.67
   3   8   1   53.94    1.55
  -4  -8  -1   31.00    1.18
  -4  -8  -1   24.58    1.95
  -4  -8  -1   30.07    1.05
   4   8   1   28.55    1.04
  -5  -8  -1    1.67    0.39
  -5  -8  -1    0.70    0.70
  -5  -8  -1    1.16    0.27
   5   8   1    1.52    0.29
   8  -9  -1    1.20    0.30
  -8   9   1    1.13    0.26
   7  -9  -1    1.65    0.31
  -7   9   1    1.37    0.27
   6  -9  -1   25.51    0.98
   6  -9  -1   26.98    0.98
  -6   9   1   26.10    0.97
   5  -9  -1    1.08    0.25
   5  -9  -1    1.57    0.29
  -5   9   1    0.79    0.22
   4  -9  -1    2.00    0.30
   4  -9  -1    2.41    0.32
  -4   9   1    1.82    0.29
   3  -9  -1    0.13    0.16
   3  -9  -1    0.17    0.15
   3  -9  -1    0.09    0.17
  -3   9   1    0.21    0.14
   2  -9  -1   19.46    0.80
   2  -9  -1   20.55    0.83
   2  -9  -1   19.97    0.79
  -2   9   1   21.29    0.84
   1  -9  -1    0.40    0.18
   1  -9  -1    0.28    0.18
   1  -9  -1    0.37    0.16
  -1   9   1    0.05    0.13
   0  -9  -1    5.21    0.65
   0  -9  -1    4.90    0.39
   0  -9  -1    5.20    0.43
   0   9   1    5.09    0.47
  -1  -9  -1   47.72    1.34
  -1  -9  -1   47.94    1.42
  -1  -9  -1   46.67    2.29
  -2  -9  -1    5.28    0.96
  -2  -9  -1    4.95    0.40
  -2  -9  -1    4.47    0.45
  -3  -9  -1    3.55    0.42
  -3  -9  -1    3.78    0.91
  -3  -9  -1    3.77    0.48
   3   9   1    3.97    0.43
  -4  -9  -1    3.00    0.46
  -4  -9  -1    2.38    0.90
  -4  -9  -1    3.68    0.43
   4   9   1    2.35    0.35
   7 -10  -1   56.44    1.62
   7 -10  -1   53.23    1.64
  -7  10   1   52.51    1.61
   6 -10  -1   11.19    0.65
   6 -10  -1   10.08    0.62
  -6  10   1   11.01    0.64
   5 -10  -1   18.50    0.82
   5 -10  -1   18.82    0.85
  -5  10   1   20.12    0.87
   4 -10  -1    1.36    0.28
   4 -10  -1    1.20    0.28
  -4  10   1    1.81    0.32
   3 -10  -1   47.42    1.43
   3 -10  -1   47.47    1.41
   3 -10  -1   48.33    1.46
  -3  10   1   45.06    1.44
   2 -10  -1   71.80    1.92
   2 -10  -1   72.96    1.90
   2 -10  -1   69.78    1.86
  -2  10   1   71.14    1.93
   1 -10  -1    8.20    0.55
   1 -10  -1    8.76    0.54
  -1  10   1    8.35    0.56
   0 -10  -1    3.08    0.38
   0 -10  -1    3.74    0.42
   0  10   1    3.00    0.39
  -1 -10  -1    5.70    0.44
  -1 -10  -1    6.13    0.98
  -1 -10  -1    4.11    0.46
  -2 -10  -1    1.16    0.30
  -2 -10  -1    0.96    0.60
   2  10   1    1.12    0.26
  -3 -10  -1    4.37    0.54
  -3 -10  -1    2.94    0.41
  -3 -10  -1    2.83    0.81
   3  10   1    4.37    0.47
  -4 -10  -1    0.17    0.66
  -4 -10  -1    0.78    0.32
  -4 -10  -1    0.62    0.26
   4  10   1    0.98    0.28
   7 -11  -1    2.27    0.40
   7 -11  -1    3.09    0.41
  -7  11   1    2.49    0.39
   6 -11  -1   10.56    0.66
   6 -11  -1   10.65    0.68
  -6  11   1   11.24    0.68
   5 -11  -1    2.95    0.42
   5 -11  -1    3.47    0.44
  -5  11   1    2.42    0.38
   4 -11  -1   -0.01    0.17
   4 -11  -1    0.21    0.19
  -4  11   1    0.08    0.18
   3 -11  -1   46.66    1.45
   3 -11  -1   44.58    1.46
  -3  11   1   46.00    1.49
   2 -11  -1    1.83    0.31
   2 -11  -1    1.27    0.28
   2 -11  -1    1.77    0.34
  -2  11   1    2.07    0.35
   1 -11  -1    0.85    0.25
   1 -11  -1    0.57    0.20
  -1  11   1    0.84    0.24
   0 -11  -1    1.62    0.31
   0 -11  -1    1.63    0.34
  -1 -11  -1    6.70    0.54
  -1 -11  -1    6.42    0.50
  -2 -11  -1    8.01    0.61
   2  11   1    6.39    0.54
  -3 -11  -1    1.18    0.70
  -3 -11  -1    1.78    0.35
  -3 -11  -1    3.36    0.51
   3  11   1    3.68    0.47
   6 -12  -1    2.67    0.42
   6 -12  -1    2.28    0.40
  -6  12   1    2.45    0.40
   5 -12  -1    0.27    0.24
   5 -12  -1    0.51    0.24
  -5  12   1    0.22    0.22
   4 -12  -1    0.55    0.26
   4 -12  -1    0.41    0.23
  -4  12   1    0.15    0.20
   3 -12  -1    0.45    0.22
   3 -12  -1    0.20    0.21
  -3  12   1    0.46    0.22
   2 -12  -1    2.82    0.41
   2 -12  -1    2.51    0.40
   2 -12  -1    3.34    0.44
  -2  12   1    3.22    0.44
   1 -12  -1   10.20    0.67
   1 -12  -1    8.78    0.61
  -1  12   1   11.38    0.69
   0 -12  -1    4.69    0.53
   0 -12  -1    5.47    0.55
  -1 -12  -1    0.26    0.23
  -1 -12  -1    0.17    0.24
   1  12   1   -0.13    0.17
  -2 -12  -1    1.01    0.33
   2  12   1    0.27    0.22
   5 -13  -1    6.66    0.67
   5 -13  -1    7.66    0.63
  -5  13   1    8.50    0.66
   4 -13  -1    0.15    0.23
   4 -13  -1    0.07    0.22
  -4  13   1   -0.21    0.18
   3 -13  -1    0.18    0.22
   3 -13  -1    0.10    0.21
  -3  13   1   -0.02    0.20
   2 -13  -1    0.42    0.27
   2 -13  -1    0.52    0.26
  -2  13   1   -0.01    0.19
   1 -13  -1    3.60    0.50
   1 -13  -1    3.49    0.48
  -1  13   1    4.15    0.53
  -1  13   1    3.51    0.47
   0 -13  -1   -0.04    0.21
   0 -13  -1    0.16    0.23
   0  13   1    0.45    0.25
  -1 -13  -1   -0.24    0.21
  -1 -13  -1    0.01    0.24
   1  13   1    0.22    0.22
   3 -14  -1   16.50    0.93
  -3  14   1   16.27    0.94
   2 -14  -1    5.24    0.60
   2 -14  -1    5.51    0.64
  -2  14   1    6.42    0.68
  -2  14  -2   -0.26    0.20
   2 -14   2    0.03    0.25
   2 -14   2    0.18    0.26
  -3  14  -2   11.40    0.81
   3 -14   2   10.75    0.75
   3 -14   2   10.34    0.75
  -1 -13   2    1.41    0.37
   0 -13   2    2.30    0.41
   0 -13   2    1.72    0.38
   1 -13   2    3.25    0.47
   1 -13   2    1.82    0.39
  -2  13  -2   10.68    0.74
   2 -13   2   14.72    0.84
   2 -13   2   12.95    0.77
  -3  13  -2   -0.12    0.19
   3 -13   2    0.04    0.21
   3 -13   2    0.01    0.20
  -4  13  -2    2.56    0.44
   4 -13   2    3.85    0.51
   4 -13   2    2.54    0.44
  -5  13  -2   13.33    0.85
   5 -13   2   12.31    0.81
   5 -13   2   13.66    0.82
  -2 -12   2    6.45    0.63
  -1 -12   2    1.16    0.29
  -1 -12   2    1.06    0.31
   0 -12   2   24.48    1.02
   0 -12   2   25.90    1.11
  -1  12  -2    3.83    0.50
   1 -12   2    4.04    0.50
   1 -12   2    4.47    0.50
  -2  12  -2    4.94    0.55
   2 -12   2    5.86    0.61
   2 -12   2    5.76    0.57
   2 -12   2    5.74    0.56
  -3  12  -2    6.19    0.63
   3 -12   2    6.59    0.64
   3 -12   2    7.66    0.59
   3 -12   2    6.36    0.62
  -4  12  -2    0.23    0.20
   4 -12   2    0.09    0.22
   4 -12   2   -0.29    0.17
  -5  12  -2    6.79    0.67
   5 -12   2    6.03    0.61
   5 -12   2    7.20    0.59
  -6  12  -2    0.76    0.27
   6 -12   2    0.07    0.21
   6 -12   2    0.13    0.22
  -3 -11   2    0.16    0.26
  -3 -11   2    0.82    0.28
  -2 -11   2    1.20    0.30
  -1 -11   2   11.98    0.66
  -1 -11   2   11.33    0.70
   0 -11   2   58.72    1.66
   0 -11   2   56.69    1.72
  -1  11  -2   24.69    1.02
   1 -11   2   23.96    0.96
   1 -11   2   25.58    1.04
  -2  11  -2    0.05    0.17
   2 -11   2    0.18    0.18
   2 -11   2    0.36    0.22
   2 -11   2    0.31    0.21
  -3  11  -2    0.15    0.18
   3 -11   2    0.16    0.20
   3 -11   2    0.36    0.19
   3 -11   2    0.41    0.23
  -4  11  -2    0.29    0.21
   4 -11   2    0.16    0.19
   4 -11   2    0.27    0.20
  -5  11  -2    4.93    0.56
   5 -11   2    6.88    0.54
   5 -11   2    5.34    0.55
  -6  11  -2   23.37    1.03
   6 -11   2   20.79    0.98
   6 -11   2   21.65    0.97
  -4 -10   2    5.48    0.66
  -4 -10   2    4.05    1.09
  -4 -10   2    4.59    0.49
  -3 -10   2   10.49    0.75
  -3 -10   2   10.61    0.64
  -3 -10   2    8.28    1.11
  -2 -10   2   35.79    1.23
  -1 -10   2   15.91    0.78
  -1 -10   2   16.16    0.72
   0  10  -2    2.29    0.34
   0 -10   2    1.19    0.28
   0 -10   2    2.44    0.34
  -1  10  -2   10.88    0.63
   1 -10   2   11.56    0.65
   1 -10   2   10.77    0.62
   1 -10   2   11.70    0.62
  -2  10  -2    4.26    0.46
   2 -10   2    5.12    0.49
   2 -10   2    5.16    0.43
   2 -10   2    3.80    0.41
  -3  10  -2    2.91    0.39
   3 -10   2    2.91    0.40
   3 -10   2    3.59    0.42
   3 -10   2    3.55    0.41
  -4  10  -2   38.25    1.28
   4 -10   2   37.81    1.28
   4 -10   2   37.89    1.26
  -5  10  -2   10.48    0.64
   5 -10   2   10.38    0.63
   5 -10   2   11.17    0.65
  -6  10  -2    0.85    0.23
   6 -10   2    1.53    0.30
   6 -10   2    1.18    0.29
  -7  10  -2    0.16    0.19
   7 -10   2    0.68    0.24
   7 -10   2    0.13    0.22
  -5  -9   2   13.61    0.69
  -5  -9   2   15.97    0.95
  -5  -9   2    9.22    1.36
  -4  -9   2   31.59    2.26
  -4  -9   2   34.70    1.39
  -4  -9   2   34.61    1.16
  -3  -9   2    4.97    0.97
  -3  -9   2    5.72    0.60
  -3  -9   2    6.85    0.50
  -2  -9   2    9.33    0.97
  -2  -9   2    8.08    0.54
  -1  -9   2   15.81    0.73
  -1  -9   2   15.21    0.66
   0   9  -2    3.96    0.42
   0  -9   2    3.91    0.42
   0  -9   2    3.84    0.38
   0  -9   2    3.82    0.39
  -1   9  -2   67.88    1.82
   1  -9   2   71.13    1.83
   1  -9   2   68.66    1.80
   1  -9   2   70.86    1.78
  -2   9  -2   42.49    1.30
   2  -9   2   39.53    1.25
   2  -9   2   42.14    1.28
   2  -9   2   42.64    1.25
  -3   9  -2   11.12    0.60
   3  -9   2   10.67    0.60
   3  -9   2   10.78    0.59
   3  -9   2   10.55    0.57
  -4   9  -2   -0.08    0.13
   4  -9   2    0.01    0.14
   4  -9   2    0.13    0.16
  -5   9  -2   67.30    1.80
   5  -9   2   63.15    1.77
   5  -9   2   62.97    1.73
  -6   9  -2    2.38    0.35
   6  -9   2    2.17    0.34
   6  -9   2    2.21    0.35
  -7   9  -2    0.02    0.15
   7  -9   2   -0.12    0.19
   7  -9   2    0.20    0.21
  -5  -8   2    0.19    0.17
  -5  -8   2   -0.50    0.56
  -5  -8   2    0.43    0.28
  -4  -8   2   22.95    1.05
  -4  -8   2   20.83    0.83
  -4  -8   2   18.92    1.66
  -3  -8   2    0.89    0.27
  -3  -8   2    0.91    0.58
  -3  -8   2    1.14    0.24
  -2  -8   2    4.43    0.34
  -2  -8   2    5.29    0.93
  -2  -8   2    4.03    0.41
  -1  -8   2   10.01    0.54
  -1  -8   2    8.69    0.47
  -1  -8   2    8.41    0.82
   0   8  -2   18.83    0.75
   0  -8   2   18.86    0.71
   0  -8   2   17.83    1.05
   0  -8   2   19.33    0.74
   0  -8   2   19.42    0.75
  -1   8  -2    7.27    0.46
   1  -8   2    7.76    0.47
   1  -8   2    7.08    0.44
   1  -8   2    7.23    0.43
  -2   8  -2   40.81    1.19
   2  -8   2   39.81    1.17
   2  -8   2   37.07    1.12
   2  -8   2   37.99    1.16
  -3   8  -2    0.49    0.17
   3  -8   2   -0.09    0.10
   3  -8   2    0.39    0.18
   3  -8   2    0.43    0.17
  -4   8  -2    0.30    0.16
   4  -8   2    0.17    0.14
   4  -8   2    0.07    0.13
  -5   8  -2   45.15    1.36
   5  -8   2   46.77    1.35
   5  -8   2   47.86    1.38
  -6   8  -2    4.34    0.43
   6  -8   2    3.39    0.40
   6  -8   2    3.81    0.40
  -7   8  -2    6.59    0.48
   7  -8   2    5.66    0.47
  -8   8  -2    8.28    0.55
   8  -8   2    8.33    0.57
   6   7  -2    0.76    0.22
  -6  -7   2    1.00    0.35
  -6  -7   2    1.33    0.86
  -6  -7   2    0.37    0.19
  -5  -7   2    0.94    0.22
  -5  -7   2    0.65    0.63
  -5  -7   2    0.53    0.29
  -4  -7   2   21.33    0.79
  -4  -7   2   22.15    1.00
  -4  -7   2   20.33    1.64
  -3  -7   2   24.42    0.83
  -3  -7   2   22.61    1.58
  -3  -7   2   24.04    0.99
  -2  -7   2    4.97    0.33
  -2  -7   2    5.37    0.75
  -2  -7   2    4.61    0.36
  -1  -7   2   18.89    0.66
  -1  -7   2   18.44    0.67
  -1  -7   2   18.17    1.14
  -1  -7   2   18.34    0.69
   0   7  -2   10.95    0.52
   0  -7   2   11.86    0.52
   0  -7   2   11.11    0.74
   0  -7   2   10.47    0.48
   0  -7   2   11.28    0.53
  -1   7  -2   10.48    0.50
   1  -7   2   10.48    0.52
   1  -7   2   10.02    0.48
   1  -7   2   10.92    0.49
  -2   7  -2   24.99    0.84
   2  -7   2   24.92    0.80
   2  -7   2   24.68    0.83
   2  -7   2   23.18    0.80
  -3   7  -2   21.43    0.78
   3  -7   2   20.09    0.73
   3  -7   2   21.39    0.76
   3  -7   2   21.67    0.77
  -4   7  -2    2.31    0.29
   4  -7   2    1.68    0.25
   4  -7   2    1.69    0.25
  -5   7  -2   24.13    0.87
   5  -7   2   24.06    0.84
   5  -7   2   23.89    0.86
  -6   7  -2    5.70    0.43
   6  -7   2    6.08    0.43
   6  -7   2    5.83    0.42
  -7   7  -2    0.29    0.17
   7  -7   2    0.40    0.19
  -8   7  -2   16.24    0.72
   8  -7   2   15.27    0.73
   6   6  -2    3.19    0.35
  -6  -6   2    2.91    1.09
  -6  -6   2    3.73    0.55
  -6  -6   2    3.42    0.34
  -5  -6   2    0.88    0.20
  -5  -6   2    1.30    0.69
  -5  -6   2    1.43    0.34
  -4  -6   2    0.69    0.56
  -4  -6   2    0.81    0.19
  -4  -6   2    0.82    0.26
  -3  -6   2   20.17    0.71
  -3  -6   2   20.29    0.86
  -3  -6   2   20.99    1.45
  -2  -6   2   10.50    0.49
  -2  -6   2   11.45    0.96
  -2  -6   2   10.50    0.43
  -1  -6   2    0.56    0.14
  -1  -6   2    0.54    0.15
  -1  -6   2    0.45    0.13
  -1  -6   2    1.26    0.41
   0  -6   2    0.06    0.22
   0  -6   2   -0.03    0.11
   0  -6   2    0.07    0.10
   0  -6   2    0.01    0.10
  -1   6  -2    2.87    0.29
   1  -6   2    3.12    0.26
   1  -6   2    3.28    0.31
   1  -6   2    2.91    0.28
  -2   6  -2   12.06    0.52
   2  -6   2   10.68    0.47
   2  -6   2   11.41    0.50
  -3   6  -2    1.32    0.21
  -3   6  -2    1.32    0.14
   3  -6   2    1.39    0.22
   3  -6   2    1.10    0.19
  -4   6  -2    5.13    0.35
   4  -6   2    5.09    0.34
   4  -6   2    4.88    0.34
  -5   6  -2   11.16    0.53
   5  -6   2    9.95    0.49
   5  -6   2   10.22    0.50
  -6   6  -2    5.07    0.38
   6  -6   2    5.07    0.38
   6  -6   2    4.51    0.41
  -7   6  -2    2.82    0.33
   7  -6   2    2.08    0.30
  -8   6  -2   14.32    0.65
   8  -6   2   13.61    0.67
   7   5  -2    0.50    0.19
  -7  -5   2    0.35    0.31
  -7  -5   2    0.01    0.73
   6   5  -2    0.56    0.18
  -6  -5   2    0.31    0.27
  -6  -5   2    1.04    0.75
  -6  -5   2    0.77    0.17
  -5  -5   2   19.84    1.61
  -5  -5   2   19.08    0.66
  -5  -5   2   19.29    0.93
  -4  -5   2    3.13    0.40
  -4  -5   2    3.45    0.30
  -4  -5   2    4.98    0.99
  -3  -5   2    1.68    0.58
  -3  -5   2    1.46    0.20
  -3  -5   2    1.38    0.26
  -2  -5   2   24.30    1.35
  -2  -5   2   21.48    0.62
  -2  -5   2   22.40    0.70
  -1  -5   2    6.53    0.35
  -1  -5   2    7.28    0.64
  -1  -5   2    6.91    0.33
  -1  -5   2    7.10    0.33
   0  -5   2   15.05    0.55
   0  -5   2   14.48    0.51
   0  -5   2   16.11    0.54
   0  -5   2   16.73    0.82
   1  -5   2   24.85    0.71
   1  -5   2   24.20    0.72
  -2   5  -2   35.54    0.78
  -2   5  -2   34.71    0.95
   2  -5   2   35.93    0.93
   2  -5   2   35.71    0.96
  -3   5  -2   30.63    0.89
  -3   5  -2   31.32    0.74
   3  -5   2   30.93    0.86
   3  -5   2   30.89    0.88
  -4   5  -2    4.55    0.31
   4  -5   2    4.37    0.29
   4  -5   2    4.66    0.31
  -5   5  -2   29.84    0.91
   5  -5   2   30.48    0.90
   5  -5   2   31.83    0.93
  -6   5  -2   26.82    0.87
   6  -5   2   26.88    0.89
   6  -5   2   28.35    0.58
   6  -5   2   28.64    0.88
  -7   5  -2    1.21    0.21
   7  -5   2    1.44    0.25
   7  -5   2    1.07    0.12
  -8   5  -2    0.07    0.13
   8  -5   2   -0.02    0.15
   7   4  -2    0.03    0.13
  -7  -4   2   -0.20    0.64
  -7  -4   2    0.15    0.27
   6   4  -2    6.14    0.36
  -6  -4   2    6.15    0.65
  -6  -4   2    6.45    1.32
  -5  -4   2    2.10    0.37
  -5  -4   2    1.70    0.20
  -5  -4   2    2.78    0.77
  -4  -4   2   13.78    0.50
  -4  -4   2   13.78    0.70
  -4  -4   2   15.99    1.26
  -3  -4   2   43.45    2.06
  -3  -4   2   37.57    1.20
  -3  -4   2   38.63    0.98
  -2  -4   2    0.76    0.18
  -2  -4   2    1.10    0.41
  -2  -4   2    0.69    0.13
  -1  -4   2   57.24    1.31
  -1  -4   2   58.49    1.28
  -1  -4   2   57.96    2.25
   0  -4   2   46.45    1.68
   0  -4   2   45.50    1.07
   0  -4   2   44.95    1.04
   1  -4   2  163.80    3.17
   1  -4   2  164.05    3.22
  -2   4  -2    4.96    0.29
   2  -4   2    4.62    0.27
   2  -4   2    4.75    0.28
  -3   4  -2   11.02    0.36
  -3   4  -2   10.37    0.43
   3  -4   2   10.44    0.41
   3  -4   2   10.42    0.42
  -4   4  -2    6.42    0.34
  -4   4  -2    5.12    0.57
   4  -4   2    7.21    0.35
   4  -4   2    6.71    0.33
  -5   4  -2    1.89    0.22
  -5   4  -2    1.23    0.49
  -5   4  -2    1.89    0.30
   5  -4   2    1.84    0.22
   5  -4   2    2.75    0.26
  -6   4  -2    7.68    0.57
  -6   4  -2    6.95    0.39
   6  -4   2    7.31    0.41
  -7   4  -2   17.48    0.67
  -7   4  -2   19.21    0.95
   7  -4   2   17.46    0.68
  -8   4  -2    1.68    0.24
  -8   4  -2    1.86    0.42
   8  -4   2    2.03    0.29
   7   3  -2    0.25    0.14
  -7  -3   2   -0.10    0.68
  -7  -3   2    0.01    0.24
   6   3  -2   -0.05    0.10
  -6  -3   2    0.14    0.56
  -6  -3   2    0.10    0.20
  -5  -3   2    2.10    0.19
  -5  -3   2    1.90    0.34
  -5  -3   2    2.72    0.79
  -4  -3   2   73.30    3.16
  -4  -3   2   67.34    1.86
  -4  -3   2   67.56    1.47
  -3  -3   2    2.77    0.31
  -3  -3   2    3.07    0.22
  -3  -3   2    4.56    0.80
  -2  -3   2    2.07    0.25
  -2  -3   2    2.04    0.49
  -1  -3   2   56.39    2.15
   0  -3   2   44.62    1.60
   0  -3   2   44.59    1.00
   1  -3   2    8.36    0.33
  -2   3  -2   24.62    0.98
   2  -3   2   24.82    0.67
  -3   3  -2    7.23    0.55
  -3   3  -2    6.76    0.32
   3  -3   2    6.68    0.30
   3  -3   2    6.47    0.31
  -4   3  -2    0.43    0.16
  -4   3  -2    0.60    0.32
  -4   3  -2    0.37    0.11
   4  -3   2    0.49    0.12
   4  -3   2    0.56    0.13
  -5   3  -2   27.40    0.78
  -5   3  -2   24.33    1.52
  -5   3  -2   27.51    0.99
   5  -3   2   27.82    0.79
   5  -3   2   27.88    0.77
  -6   3  -2   65.30    1.51
  -6   3  -2   64.29    1.87
   6  -3   2   60.40    1.50
  -7   3  -2   10.19    1.18
  -7   3  -2   13.78    0.53
  -7   3  -2   13.41    0.79
   7  -3   2   12.03    0.53
  -8   3  -2    6.14    0.69
   8  -3   2    6.18    0.41
  -8  -2   2   28.51    1.35
  -8  -2   2   29.82    2.40
  -7  -2   2   11.28    1.80
  -7  -2   2    8.01    0.69
   6   2  -2  128.63    2.55
  -6  -2   2  127.41    5.48
  -6  -2   2  128.64    3.25
  -5  -2   2   29.32    0.71
  -5  -2   2   32.51    1.99
  -5  -2   2   31.42    1.14
  -4  -2   2    0.30    0.39
  -4  -2   2    0.13    0.14
  -4  -2   2    0.29    0.08
  -3  -2   2   82.60    3.26
  -3  -2   2   80.22    1.98
  -2  -2   2    0.72    0.16
  -2  -2   2    1.94    0.45
  -1  -2   2   36.35    1.49
   0  -2   2  159.28    3.02
   1  -2   2    4.53    0.23
  -2   2  -2   25.10    1.05
   2  -2   2   25.72    0.65
  -3   2  -2    6.57    0.37
  -3   2  -2    7.18    0.60
   3  -2   2    6.47    0.29
  -4   2  -2   22.23    0.79
  -4   2  -2   20.77    1.23
   4  -2   2   21.55    0.61
   4  -2   2   21.89    0.63
  -5   2  -2    8.36    0.88
  -5   2  -2    8.70    0.53
   5  -2   2    9.22    0.39
   5  -2   2    8.83    0.39
  -6   2  -2    6.17    0.87
  -6   2  -2    7.23    0.37
  -6   2  -2    8.21    0.58
   6  -2   2    7.96    0.40
  -7   2  -2    6.86    0.58
  -7   2  -2    7.64    0.39
   7  -2   2    7.24    0.40
  -8   2  -2    7.95    0.69
   8  -2   2    8.42    0.46
  -8  -1   2    8.48    0.72
  -8  -1   2    7.49    1.48
  -7  -1   2   10.37    0.74
  -7  -1   2    8.15    1.18
   6   1  -2  177.95    3.48
  -6  -1   2  197.58    7.23
  -6  -1   2  176.24    4.29
  -5  -1   2   34.90    2.05
  -5  -1   2   33.70    1.19
  -4  -1   2   65.63    1.80
  -4  -1   2   72.62    3.08
  -3  -1   2   -0.05    0.11
  -3  -1   2    0.13    0.36
  -2  -1   2    1.99    0.48
  -1  -1   2   52.04    1.16
  -1  -1   2   59.35    2.06
   0  -1   2    0.28    0.06
   1  -1   2  430.88    7.88
  -2   1  -2    1.63    0.31
   2  -1   2    1.10    0.13
  -3   1  -2    8.86    0.68
  -3   1  -2    8.25    0.40
   3  -1   2    9.12    0.33
  -4   1  -2    4.81    0.78
  -4   1  -2    3.55    0.32
   4  -1   2    3.47    0.23
   4  -1   2    3.99    0.23
  -5   1  -2    2.94    0.35
  -5   1  -2    4.80    0.86
   5  -1   2    3.48    0.24
   5  -1   2    3.13    0.24
  -6   1  -2    5.97    0.89
  -6   1  -2    7.81    0.56
   6  -1   2    7.06    0.37
  -7   1  -2    7.39    0.60
  -7   1  -2    5.13    1.04
   7  -1   2    6.72    0.39
  -8   1  -2    1.01    0.76
  -8   1  -2    2.92    0.50
   8  -1   2    2.65    0.32
  -8   0   2    6.45    1.26
  -7   0   2   18.01    1.67
  -7   0   2   22.34    1.04
   6   0  -2   12.15    0.34
  -6   0   2    9.17    1.09
  -6   0   2   12.08    0.72
  -5   0   2    0.76    0.22
  -5   0   2    0.67    0.54
  -4   0   2   30.71    1.73
  -4   0   2   34.58    1.06
  -3   0   2    6.74    0.39
  -3   0   2    8.44    0.74
  -2   0   2  569.93   19.45
  -2   0   2  655.53   11.37
  -1   0   2   75.92    1.52
   0   0   2    8.48    0.24
   1   0   2   23.63    0.56
  -2   0  -2   10.48    0.68
   2   0   2   11.26    0.35
  -3   0  -2   64.89    2.54
  -3   0  -2   61.68    1.35
  -3   0  -2   62.11    1.52
   3   0   2   63.55    1.35
  -4   0  -2   22.80    0.80
  -4   0  -2   23.33    1.38
  -4   0  -2   21.69    0.63
   4   0   2   22.01    0.62
   4   0   2   23.15    0.64
  -5   0  -2    3.19    0.37
  -5   0  -2    2.99    0.24
  -5   0  -2    3.07    0.76
   5   0   2    3.30    0.24
  -6   0  -2   -0.08    0.48
  -6   0  -2   -0.04    0.16
   6   0   2    0.00    0.11
  -7   0  -2    2.86    0.44
  -7   0  -2    2.10    0.79
   7   0   2    2.50    0.29
  -8   0  -2   10.13    0.78
   8   0   2   11.09    0.54
  -8   1   2    0.89    0.31
  -7   1   2    0.25    0.22
  -7   1   2    0.21    0.56
   6  -1  -2   -0.08    0.06
  -6   1   2    0.07    0.49
  -6   1   2   -0.17    0.16
  -5   1   2   24.04    1.58
  -5   1   2   25.04    0.95
  -4   1   2    6.49    0.42
  -4   1   2    6.29    0.39
  -4   1   2    7.35    0.77
  -3   1   2   65.52    1.51
  -3   1   2   66.40    1.61
   2  -1  -2    4.81    0.13
  -1   1   2    1.30    0.12
   0   1   2  203.12    3.78
   1   1   2   62.29    1.27
  -2  -1  -2   66.13    2.60
   2   1   2   70.56    1.42
  -3  -1  -2   34.05    0.84
  -3  -1  -2   34.06    1.65
  -3  -1  -2   34.23    0.96
   3   1   2   33.76    0.83
  -4  -1  -2   95.82    2.31
  -4  -1  -2   95.55    2.02
  -4  -1  -2   97.61    3.88
   4   1   2   97.79    1.98
   4   1   2   96.83    2.02
  -5  -1  -2    0.25    0.12
  -5  -1  -2    0.43    0.19
  -5  -1  -2    0.44    0.46
   5   1   2    0.34    0.13
  -6  -1  -2   -0.14    0.44
  -6  -1  -2    0.16    0.12
  -6  -1  -2    0.03    0.17
   6   1   2    0.06    0.12
  -7  -1  -2    0.52    0.26
  -7  -1  -2    0.27    0.67
   7   1   2    0.50    0.17
  -8  -1  -2   10.42    1.53
  -8  -1  -2   15.06    0.90
   8   1   2   11.90    0.57
  -8   2   2    3.43    0.54
  -7   2   2    1.69    0.36
   6  -2  -2    9.98    0.32
  -6   2   2    9.42    0.62
   5  -2  -2   17.89    0.44
  -5   2   2   16.61    0.76
   4  -2  -2   13.63    0.34
  -4   2   2   12.78    0.60
  -4   2   2   13.72    0.55
   3  -2  -2    0.34    0.07
  -3   2   2    0.26    0.11
  -3   2   2    0.35    0.13
   2  -2  -2   17.21    0.43
  -2   2   2   16.72    0.51
   1  -2  -2   15.71    0.43
   0   2   2   77.34    1.56
   1   2   2   37.25    0.86
  -2  -2  -2    0.03    0.22
   2   2   2    0.06    0.08
  -3  -2  -2   35.30    1.74
  -3  -2  -2   34.18    0.88
  -3  -2  -2   34.21    1.00
   3   2   2   35.09    0.88
   3   2   2   35.07    0.86
  -4  -2  -2   96.82    4.00
  -4  -2  -2   98.87    2.10
  -4  -2  -2   97.24    2.38
   4   2   2  100.52    2.10
   4   2   2  101.83    2.07
  -5  -2  -2    5.07    0.34
  -5  -2  -2    5.09    0.45
  -5  -2  -2    5.86    1.05
   5   2   2    4.91    0.31
  -6  -2  -2    0.35    0.15
  -6  -2  -2   -0.06    0.17
  -6  -2  -2   -0.21    0.48
   6   2   2    0.13    0.12
  -7  -2  -2    6.12    1.31
  -7  -2  -2    6.25    0.40
  -7  -2  -2    5.57    0.62
   7   2   2    6.29    0.41
  -8   3   2   16.29    0.96
   7  -3  -2   16.88    0.52
  -7   3   2   17.02    0.92
   6  -3  -2    6.29    0.28
  -6   3   2    5.58    0.50
  -6   3   2    5.84    0.26
   5  -3  -2    0.48    0.10
  -5   3   2    0.72    0.11
  -5   3   2    0.44    0.19
  -5   3   2    0.48    0.16
   4  -3  -2   17.78    0.48
  -4   3   2   16.79    0.62
  -4   3   2   17.38    0.70
  -4   3   2   17.83    0.49
   3  -3  -2   43.93    0.95
  -3   3   2   42.49    1.07
  -3   3   2   42.12    1.16
   2  -3  -2    1.73    0.16
  -2   3   2    2.05    0.20
   1  -3  -2  892.45   16.27
  -1   3   2  895.07   16.25
   0   3   2   22.91    0.62
   1   3   2    3.06    0.22
  -2  -3  -2   29.44    0.82
  -2  -3  -2   28.35    1.47
  -2  -3  -2   29.30    0.78
   2   3   2   27.70    0.77
   2   3   2   27.63    0.74
  -3  -3  -2   13.61    0.56
  -3  -3  -2   12.71    0.50
  -3  -3  -2   13.17    1.00
   3   3   2   12.21    0.45
   3   3   2   13.33    0.49
  -4  -3  -2   35.47    1.13
  -4  -3  -2   34.07    0.95
  -4  -3  -2   36.33    1.98
   4   3   2   33.36    0.92
   4   3   2   35.23    0.96
  -5  -3  -2   19.79    1.58
  -5  -3  -2   19.62    0.87
  -5  -3  -2   21.00    0.70
   5   3   2   19.12    0.68
  -6  -3  -2   -0.15    0.52
  -6  -3  -2    0.48    0.17
  -6  -3  -2    0.02    0.22
   6   3   2    0.25    0.16
  -7  -3  -2    9.96    0.52
  -7  -3  -2    8.65    1.60
  -7  -3  -2   10.40    0.75
   7   3   2    9.55    0.51
  -8   4   2    3.62    0.56
   7  -4  -2    6.94    0.35
  -7   4   2    7.87    0.63
   6  -4  -2    1.97    0.20
  -6   4   2    1.79    0.29
  -6   4   2    2.02    0.20
  -6   4   2    1.97    0.35
   5  -4  -2    1.19    0.16
  -5   4   2    1.46    0.17
  -5   4   2    1.31    0.26
  -5   4   2    1.51    0.23
   4  -4  -2   51.07    1.14
   4  -4  -2   49.75    1.15
  -4   4   2   50.98    1.28
  -4   4   2   51.08    1.17
  -4   4   2   50.68    1.42
   3  -4  -2   17.95    0.52
   3  -4  -2   17.63    0.53
  -3   4   2   17.00    0.64
  -3   4   2   18.01    0.58
  -3   4   2   16.38    0.53
   2  -4  -2    3.71    0.24
   2  -4  -2    3.49    0.23
  -2   4   2    3.93    0.23
   1  -4  -2   28.35    0.74
   1  -4  -2   25.27    0.70
  -1   4   2   26.98    0.72
   0  -4  -2  190.09    3.64
   0   4   2  189.67    3.71
  -1  -4  -2   48.00    1.12
  -1  -4  -2   48.91    1.18
   1   4   2   47.73    1.16
  -2  -4  -2    1.24    0.19
  -2  -4  -2    1.61    0.50
  -2  -4  -2    1.23    0.17
  -2  -4  -2    1.26    0.20
   2   4   2    1.24    0.18
  -3  -4  -2   46.97    1.08
  -3  -4  -2   45.84    1.18
  -3  -4  -2   46.00    1.28
  -3  -4  -2   44.37    2.22
   3   4   2   45.16    1.14
   3   4   2   48.00    1.20
  -4  -4  -2   13.57    0.65
  -4  -4  -2   12.95    1.17
  -4  -4  -2   13.00    0.55
   4   4   2   14.25    0.57
   4   4   2   14.03    0.54
  -5  -4  -2   12.09    0.69
  -5  -4  -2   12.01    1.25
  -5  -4  -2   11.94    0.54
   5   4   2   12.48    0.56
  -6  -4  -2   56.29    1.44
  -6  -4  -2   55.92    1.76
   6   4   2   55.18    1.48
  -7  -4  -2    4.62    0.40
  -7  -4  -2    5.15    0.62
  -7  -4  -2    4.31    1.23
   7   4   2    5.18    0.41
   8  -5  -2    0.29    0.15
  -8   5   2    0.46    0.28
   7  -5  -2    1.92    0.23
  -7   5   2    2.30    0.41
  -7   5   2    2.31    0.24
   6  -5  -2    2.32    0.24
  -6   5   2    2.08    0.23
  -6   5   2    2.18    0.37
  -6   5   2    2.62    0.34
   5  -5  -2  126.48    2.61
   5  -5  -2  131.66    2.67
  -5   5   2  131.49    2.84
  -5   5   2  127.09    3.10
  -5   5   2  130.67    2.67
   4  -5  -2    3.33    0.25
   4  -5  -2    3.03    0.23
  -4   5   2    3.15    0.30
  -4   5   2    3.00    0.25
   3  -5  -2   24.01    0.70
   3  -5  -2   23.91    0.69
   3  -5  -2   23.12    0.49
  -3   5   2   23.58    0.65
  -3   5   2   22.94    0.71
  -3   5   2   23.94    0.72
   2  -5  -2    9.70    0.41
   2  -5  -2    9.04    0.41
  -2   5   2   10.01    0.40
  -2   5   2    9.51    0.42
   1  -5  -2   13.68    0.50
   1  -5  -2   14.31    0.52
  -1   5   2   13.38    0.52
  -1   5   2   13.45    0.50
   0  -5  -2   49.54    1.23
   0  -5  -2   48.93    1.19
   0   5   2   50.94    1.23
  -1  -5  -2    1.00    0.16
  -1  -5  -2    0.92    0.17
   1   5   2    1.03    0.18
  -2  -5  -2   10.68    0.90
  -2  -5  -2   10.41    0.48
  -2  -5  -2   10.34    0.43
  -2  -5  -2   10.68    0.48
   2   5   2   10.03    0.46
  -3  -5  -2   15.49    0.66
  -3  -5  -2   16.14    1.21
  -3  -5  -2   14.80    0.60
   3   5   2   15.68    0.61
  -4  -5  -2   16.52    0.75
  -4  -5  -2   15.98    1.32
  -4  -5  -2   16.41    0.66
   4   5   2   16.24    0.66
  -5  -5  -2    0.91    0.20
  -5  -5  -2    0.51    0.23
  -5  -5  -2    0.79    0.62
   5   5   2    0.46    0.19
  -6  -5  -2   14.48    0.65
  -6  -5  -2   11.59    1.48
  -6  -5  -2   13.41    0.82
   6   5   2   13.06    0.64
   8  -6  -2    4.02    0.34
  -8   6   2    5.01    0.64
   7  -6  -2   19.92    0.72
  -7   6   2   19.35    0.85
  -7   6   2   21.12    1.04
  -7   6   2   19.34    0.69
   6  -6  -2    0.32    0.15
  -6   6   2    0.30    0.15
  -6   6   2    0.40    0.14
   5  -6  -2    7.91    0.40
   5  -6  -2    8.43    0.42
  -5   6   2    7.96    0.42
  -5   6   2    8.38    0.46
   4  -6  -2   20.08    0.67
   4  -6  -2   19.86    0.46
   4  -6  -2   19.02    0.65
  -4   6   2   19.31    0.69
  -4   6   2   19.37    0.68
   3  -6  -2   -0.02    0.09
   3  -6  -2   -0.06    0.07
   3  -6  -2   -0.05    0.10
  -3   6   2    0.11    0.09
  -3   6   2    0.10    0.10
  -3   6   2    0.08    0.11
   2  -6  -2   33.06    0.91
   2  -6  -2   33.09    0.94
  -2   6   2   31.58    0.90
  -2   6   2   31.70    0.93
   1  -6  -2   57.94    1.39
   1  -6  -2   58.06    1.43
   1  -6  -2   57.23    1.41
  -1   6   2   58.36    1.44
   0  -6  -2   56.99    1.41
   0  -6  -2   56.11    1.36
   0   6   2   55.46    1.41
  -1  -6  -2   65.60    1.55
  -1  -6  -2   67.99    1.63
   1   6   2   65.75    1.62
  -2  -6  -2    3.45    0.34
  -2  -6  -2    3.74    0.29
  -2  -6  -2    3.46    0.35
  -2  -6  -2    4.56    0.65
   2   6   2    3.89    0.31
  -3  -6  -2    0.30    0.15
  -3  -6  -2    0.49    0.41
  -3  -6  -2    0.00    0.14
   3   6   2    0.15    0.12
  -4  -6  -2   18.42    0.83
  -4  -6  -2   17.20    1.46
  -4  -6  -2   18.85    0.75
   4   6   2   17.22    0.72
  -5  -6  -2    0.46    0.19
  -5  -6  -2    0.35    0.61
  -5  -6  -2    0.53    0.26
   5   6   2    0.59    0.22
  -6  -6  -2   22.70    0.85
  -6  -6  -2   17.25    1.87
  -6  -6  -2   22.29    1.08
   6   6   2   21.77    0.88
   8  -7  -2    0.13    0.15
  -8   7   2    0.26    0.16
   7  -7  -2   45.44    1.28
  -7   7   2   46.09    1.27
   6  -7  -2   23.76    0.82
   6  -7  -2   25.79    0.86
   6  -7  -2   24.76    0.55
  -6   7   2   24.27    0.90
  -6   7   2   25.47    0.84
   5  -7  -2    6.32    0.39
   5  -7  -2    5.87    0.25
   5  -7  -2    5.40    0.37
  -5   7   2    6.15    0.39
  -5   7   2    5.54    0.39
   4  -7  -2    0.80    0.18
   4  -7  -2    0.85    0.18
   4  -7  -2    0.70    0.12
  -4   7   2    1.11    0.20
  -4   7   2    0.70    0.17
   3  -7  -2    0.46    0.11
   3  -7  -2    0.31    0.16
   3  -7  -2    0.31    0.14
  -3   7   2    0.31    0.14
  -3   7   2    0.50    0.15
   2  -7  -2   33.07    1.00
   2  -7  -2   32.46    0.97
   2  -7  -2   33.37    0.99
  -2   7   2   33.27    0.97
  -2   7   2   33.03    1.01
   1  -7  -2   19.37    0.72
   1  -7  -2   20.12    0.73
   1  -7  -2   19.74    0.70
  -1   7   2   19.12    0.72
   0  -7  -2   60.78    1.49
   0  -7  -2   60.14    1.54
   0   7   2   58.50    1.53
  -1  -7  -2   11.09    0.52
  -1  -7  -2   12.14    0.58
   1   7   2   11.73    0.55
   1   7   2   12.17    0.56
  -2  -7  -2    0.12    0.15
  -2  -7  -2    0.10    0.14
  -2  -7  -2    0.66    0.44
  -2  -7  -2    0.31    0.15
   2   7   2    0.13    0.13
  -3  -7  -2   32.34    1.05
  -3  -7  -2   31.49    1.93
  -3  -7  -2   30.62    1.09
   3   7   2   31.89    1.05
  -4  -7  -2    7.03    0.55
  -4  -7  -2    7.58    1.02
  -4  -7  -2    7.28    0.50
   4   7   2    6.78    0.48
  -5  -7  -2    0.45    0.20
  -5  -7  -2    0.48    0.65
  -5  -7  -2    0.22    0.24
   5   7   2    0.27    0.18
   8  -8  -2   -0.08    0.10
   8  -8  -2   -0.12    0.16
  -8   8   2    0.01    0.14
   7  -8  -2    0.64    0.21
   7  -8  -2    0.59    0.14
  -7   8   2    0.66    0.20
   6  -8  -2    0.74    0.21
   6  -8  -2    1.03    0.23
   6  -8  -2    1.11    0.15
  -6   8   2    1.01    0.22
   5  -8  -2   16.83    0.49
   5  -8  -2   16.75    0.70
   5  -8  -2   16.62    0.68
  -5   8   2   16.74    0.70
  -5   8   2   16.92    0.69
   4  -8  -2    2.51    0.31
   4  -8  -2    2.36    0.21
   4  -8  -2    2.49    0.31
  -4   8   2    2.16    0.29
  -4   8   2    2.84    0.31
   3  -8  -2    0.20    0.15
   3  -8  -2    0.48    0.17
   3  -8  -2    0.14    0.13
  -3   8   2    0.24    0.14
   2  -8  -2   18.66    0.74
   2  -8  -2   18.69    0.73
   2  -8  -2   18.46    0.72
  -2   8   2   18.08    0.74
  -2   8   2   18.30    0.71
   1  -8  -2    0.41    0.15
   1  -8  -2   -0.01    0.13
  -1   8   2    0.17    0.14
   0  -8  -2    3.72    0.36
   0  -8  -2    4.51    0.38
   0   8   2    4.20    0.40
  -1  -8  -2   32.48    1.09
  -1  -8  -2   35.33    1.87
  -1  -8  -2   33.89    1.04
   1   8   2   34.14    1.09
   1   8   2   33.40    1.09
  -2  -8  -2   35.52    1.06
  -2  -8  -2   36.72    1.17
  -2  -8  -2   35.78    1.99
   2   8   2   34.36    1.13
  -3  -8  -2    0.13    0.21
  -3  -8  -2    0.10    0.44
  -3  -8  -2    0.15    0.17
   3   8   2    0.19    0.15
  -4  -8  -2    4.12    0.98
  -4  -8  -2    4.89    0.48
  -4  -8  -2    5.09    0.53
   4   8   2    4.05    0.45
  -5  -8  -2    1.77    0.90
  -5  -8  -2    1.71    0.33
   5   8   2    1.48    0.30
   8  -9  -2    3.38    0.29
   8  -9  -2    3.47    0.42
  -8   9   2    3.97    0.43
   7  -9  -2    2.60    0.24
   7  -9  -2    2.46    0.35
  -7   9   2    2.27    0.34
   6  -9  -2   35.82    0.85
   6  -9  -2   34.36    1.13
   6  -9  -2   33.68    1.15
  -6   9   2   34.32    1.15
   5  -9  -2    8.71    0.53
   5  -9  -2    8.51    0.53
  -5   9   2    9.31    0.55
   4  -9  -2   11.30    0.59
   4  -9  -2   10.17    0.56
  -4   9   2   11.99    0.62
  -4   9   2   10.54    0.53
   3  -9  -2    6.90    0.47
   3  -9  -2    6.26    0.45
   3  -9  -2    6.68    0.46
  -3   9   2    7.05    0.48
   2  -9  -2    6.93    0.46
   2  -9  -2    7.04    0.47
   2  -9  -2    6.11    0.43
  -2   9   2    7.08    0.47
  -2   9   2    6.22    0.43
   1  -9  -2   17.48    0.76
   1  -9  -2   18.09    0.74
  -1   9   2   16.15    0.73
   0  -9  -2   11.72    0.59
   0  -9  -2   11.98    0.63
   0   9   2   12.37    0.62
   0   9   2   11.01    0.61
  -1  -9  -2    0.48    0.21
  -1  -9  -2    0.54    0.19
  -1  -9  -2    0.60    0.44
   1   9   2    0.53    0.20
  -2  -9  -2    3.86    0.88
  -2  -9  -2    1.79    0.33
  -2  -9  -2    2.80    0.34
   2   9   2    2.43    0.34
  -3  -9  -2   18.11    0.89
  -3  -9  -2   17.82    1.51
  -3  -9  -2   18.72    0.84
   3   9   2   19.19    0.85
  -4  -9  -2    0.16    0.61
  -4  -9  -2    0.07    0.20
   4   9   2    0.08    0.17
   7 -10  -2    3.29    0.43
   7 -10  -2    3.81    0.45
  -7  10   2    3.65    0.44
   6 -10  -2    0.78    0.25
   6 -10  -2    1.21    0.27
  -6  10   2    0.67    0.23
   5 -10  -2    1.43    0.29
   5 -10  -2    1.77    0.31
  -5  10   2    1.94    0.32
   4 -10  -2   16.25    0.77
   4 -10  -2   17.92    0.78
  -4  10   2   15.51    0.76
   3 -10  -2   46.35    1.39
   3 -10  -2   48.53    1.46
  -3  10   2   47.15    1.46
   2 -10  -2    0.28    0.19
   2 -10  -2   -0.04    0.14
   2 -10  -2    0.01    0.14
  -2  10   2   -0.04    0.15
  -2  10   2    0.29    0.18
   1 -10  -2    8.87    0.53
   1 -10  -2    7.03    0.54
  -1  10   2    7.51    0.50
  -1  10   2    7.49    0.53
   0 -10  -2    1.31    0.26
   0 -10  -2    1.68    0.31
   0  10   2    1.66    0.30
   0  10   2    2.00    0.33
  -1 -10  -2    5.54    0.98
  -1 -10  -2    3.73    0.41
  -1 -10  -2    3.42    0.44
   1  10   2    3.38    0.41
  -2 -10  -2    0.46    0.23
  -2 -10  -2    0.61    0.57
   2  10   2    0.41    0.20
  -3 -10  -2    2.69    0.81
  -3 -10  -2    4.16    0.47
  -3 -10  -2    3.18    0.46
   3  10   2    3.21    0.42
  -4 -10  -2    2.96    0.43
  -4 -10  -2    2.32    0.85
   4  10   2    3.30    0.45
   7 -11  -2    4.76    0.53
   7 -11  -2    4.12    0.48
  -7  11   2    4.42    0.50
   6 -11  -2    3.36    0.44
   6 -11  -2    3.94    0.48
  -6  11   2    3.54    0.45
   5 -11  -2   79.66    2.19
   5 -11  -2   80.79    2.14
  -5  11   2   80.05    2.18
   4 -11  -2    3.39    0.43
   4 -11  -2    3.57    0.44
  -4  11   2    2.92    0.42
   3 -11  -2    5.96    0.49
   3 -11  -2    5.73    0.48
  -3  11   2    6.63    0.52
   2 -11  -2   20.51    0.88
   2 -11  -2   21.33    0.93
  -2  11   2   20.71    0.90
  -2  11   2   21.12    0.93
   1 -11  -2   29.40    1.13
   1 -11  -2   28.45    1.07
  -1  11   2   30.05    1.12
  -1  11   2   28.58    1.11
   0 -11  -2   19.76    0.91
   0 -11  -2   20.62    0.88
   0  11   2   20.40    0.91
  -1 -11  -2    3.89    0.45
  -1 -11  -2    4.40    0.52
   1  11   2    3.93    0.47
  -2 -11  -2    1.67    0.35
   2  11   2    1.59    0.33
  -3 -11  -2   13.96    1.52
  -3 -11  -2   19.45    0.93
   3  11   2   19.70    0.94
   6 -12  -2    1.49    0.34
   6 -12  -2    1.12    0.31
  -6  12   2    1.04    0.29
   5 -12  -2   16.62    0.86
   5 -12  -2   17.48    0.90
  -5  12   2   17.49    0.89
   4 -12  -2    8.59    0.61
   4 -12  -2    7.70    0.59
  -4  12   2    7.96    0.60
   3 -12  -2   -0.26    0.16
   3 -12  -2   -0.03    0.18
  -3  12   2   -0.04    0.18
   2 -12  -2    0.27    0.21
   2 -12  -2    0.39    0.25
  -2  12   2    0.52    0.23
   1 -12  -2   -0.03    0.18
   1 -12  -2   -0.16    0.19
  -1  12   2    0.02    0.18
  -1  12   2    0.10    0.20
   0 -12  -2    7.23    0.60
   0 -12  -2    7.03    0.56
   0  12   2    6.58    0.54
  -1 -12  -2    2.62    0.44
  -1 -12  -2    3.59    0.45
   1  12   2    2.85    0.43
  -2 -12  -2    0.81    0.30
   2  12   2    1.10    0.30
   5 -13  -2    0.38    0.26
   5 -13  -2    0.77    0.29
  -5  13   2    0.27    0.22
   4 -13  -2    0.65    0.26
   4 -13  -2    0.16    0.22
  -4  13   2   -0.18    0.18
   3 -13  -2    0.15    0.21
  -3  13   2    0.30    0.23
   2 -13  -2   -0.10    0.23
   2 -13  -2    0.47    0.25
  -2  13   2    0.27    0.21
   1 -13  -2    6.88    0.67
   1 -13  -2    8.74    0.63
  -1  13   2    5.70    0.59
  -1  13   2    6.51    0.65
   0 -13  -2   15.62    0.91
   0 -13  -2   16.50    0.86
   0  13   2   16.68    0.88
   3 -14  -2    0.88    0.32
  -3  14   2    1.18    0.34
   2 -14  -2    3.38    0.52
   2 -14  -2    3.74    0.53
  -2  14   2    3.41    0.52
  -2  14  -3    5.66    0.66
   2 -14   3    4.90    0.60
   2 -14   3    3.89    0.59
  -1 -13   3    1.33    0.36
   0 -13   3    1.67    0.39
   0 -13   3    1.44    0.34
   1 -13   3    2.77    0.44
   1 -13   3    3.22    0.51
  -2  13  -3    0.34    0.26
   2 -13   3    0.42    0.27
   2 -13   3    0.25    0.24
  -3  13  -3    3.61    0.52
   3 -13   3    2.45    0.41
   3 -13   3    2.92    0.45
  -4  13  -3    0.68    0.29
   4 -13   3    0.41    0.24
   4 -13   3    0.12    0.23
  -5  13  -3    1.97    0.42
   5 -13   3    1.53    0.38
   5 -13   3    1.72    0.39
  -2 -12   3    4.76    0.54
  -1 -12   3   13.02    0.71
  -1 -12   3   10.99    0.73
   0 -12   3   21.17    1.02
   0 -12   3   23.60    0.99
  -1  12  -3    1.27    0.30
   1 -12   3    1.83    0.38
   1 -12   3    0.92    0.28
  -2  12  -3   10.23    0.68
   2 -12   3    9.29    0.64
   2 -12   3    9.45    0.67
   2 -12   3   10.54    0.67
  -3  12  -3    3.02    0.45
   3 -12   3    2.72    0.42
   3 -12   3    2.20    0.39
   3 -12   3    2.36    0.39
  -4  12  -3   -0.09    0.18
   4 -12   3   -0.06    0.19
   4 -12   3    0.18    0.22
  -5  12  -3    1.76    0.39
   5 -12   3    2.36    0.41
   5 -12   3    2.22    0.41
  -6  12  -3    8.70    0.67
   6 -12   3    9.16    0.68
   6 -12   3    8.02    0.66
  -3 -11   3    4.03    0.60
  -3 -11   3    3.80    0.47
  -2 -11   3    0.74    0.26
  -1 -11   3    0.89    0.29
  -1 -11   3    0.88    0.25
   0 -11   3   29.02    1.08
   0 -11   3   29.08    1.13
  -1  11  -3    2.63    0.39
   1 -11   3    2.39    0.37
   1 -11   3    3.60    0.42
  -2  11  -3    8.56    0.59
   2 -11   3    7.64    0.55
   2 -11   3    8.43    0.60
   2 -11   3    7.98    0.56
  -3  11  -3    1.09    0.29
   3 -11   3    0.94    0.29
   3 -11   3    0.86    0.27
   3 -11   3    1.23    0.29
  -4  11  -3    8.07    0.59
   4 -11   3    7.75    0.57
   4 -11   3    7.51    0.56
  -5  11  -3   13.60    0.78
   5 -11   3   13.09    0.75
   5 -11   3   13.02    0.74
  -6  11  -3    0.30    0.23
   6 -11   3    1.02    0.30
   6 -11   3    0.79    0.27
  -4 -10   3    0.23    0.70
  -4 -10   3    0.12    0.20
  -4 -10   3    0.33    0.28
  -3 -10   3    6.79    0.72
  -3 -10   3    7.66    0.55
  -2 -10   3    2.25    0.37
  -1 -10   3   -0.19    0.18
  -1 -10   3    0.04    0.14
   0  10  -3    6.07    0.47
   0 -10   3    5.13    0.50
   0 -10   3    6.13    0.46
  -1  10  -3    0.01    0.16
   1 -10   3    0.24    0.19
   1 -10   3    0.67    0.23
   1 -10   3    0.15    0.16
  -2  10  -3   48.43    1.50
   2 -10   3   48.04    1.47
   2 -10   3   49.12    1.45
   2 -10   3   48.14    1.48
  -3  10  -3   24.50    1.00
   3 -10   3   25.90    1.01
   3 -10   3   25.79    0.98
   3 -10   3   26.32    1.01
  -4  10  -3    2.62    0.38
   4 -10   3    2.62    0.38
   4 -10   3    2.83    0.38
  -5  10  -3    6.44    0.52
   5 -10   3    6.71    0.52
   5 -10   3    7.03    0.54
  -6  10  -3    4.29    0.49
   6 -10   3    3.87    0.48
   6 -10   3    4.50    0.50
  -7  10  -3    6.02    0.59
   7 -10   3    5.83    0.57
   7 -10   3    6.38    0.61
  -5  -9   3    0.31    0.75
  -5  -9   3    0.72    0.34
  -5  -9   3    0.65    0.25
  -4  -9   3    2.54    0.46
  -4  -9   3    2.96    0.93
  -4  -9   3    2.67    0.37
  -3  -9   3    1.02    0.61
  -3  -9   3    0.92    0.26
  -3  -9   3    0.78    0.29
  -2  -9   3    1.18    0.27
  -2  -9   3    0.65    0.51
  -1  -9   3   56.95    1.60
  -1  -9   3   58.16    1.53
   0   9  -3   14.46    0.69
   0  -9   3   14.51    0.71
   0  -9   3   15.91    0.68
  -1   9  -3   26.25    0.98
   1  -9   3   26.67    0.96
   1  -9   3   27.04    0.95
   1  -9   3   27.82    0.99
  -2   9  -3   -0.05    0.12
   2  -9   3    0.11    0.16
   2  -9   3    0.01    0.13
   2  -9   3    0.18    0.17
  -3   9  -3   34.48    1.16
   3  -9   3   34.74    1.14
   3  -9   3   33.04    1.10
   3  -9   3   32.79    1.12
  -4   9  -3   16.81    0.78
   4  -9   3   17.43    0.78
   4  -9   3   16.07    0.74
  -5   9  -3    0.04    0.15
   5  -9   3    0.04    0.18
   5  -9   3    0.10    0.16
  -6   9  -3   37.91    1.27
   6  -9   3   35.80    1.22
   6  -9   3   34.75    1.22
  -7   9  -3    0.59    0.23
   7  -9   3    1.06    0.29
   7  -9   3    0.80    0.27
  -5  -8   3    1.08    0.25
  -5  -8   3    1.15    0.37
  -5  -8   3    0.77    0.77
  -4  -8   3   16.38    0.90
  -4  -8   3   12.18    1.33
  -4  -8   3   14.80    0.68
  -3  -8   3    3.90    0.86
  -3  -8   3    3.86    0.49
  -3  -8   3    3.54    0.38
  -2  -8   3    9.54    0.53
  -2  -8   3    8.88    0.46
  -2  -8   3    7.63    0.87
  -1  -8   3    1.84    0.28
  -1  -8   3    1.64    0.47
  -1  -8   3    1.93    0.26
   0   8  -3   24.07    0.86
   0  -8   3   23.11    0.85
   0  -8   3   22.80    0.80
   0  -8   3   23.93    0.84
  -1   8  -3   35.18    1.10
   1  -8   3   35.21    1.11
   1  -8   3   34.96    1.07
   1  -8   3   37.53    1.11
  -2   8  -3   29.15    0.99
   2  -8   3   28.60    0.95
   2  -8   3   30.21    1.00
   2  -8   3   29.31    0.97
  -3   8  -3    3.93    0.41
   3  -8   3    4.84    0.40
   3  -8   3    4.41    0.37
   3  -8   3    4.70    0.37
  -4   8  -3    0.56    0.19
   4  -8   3    0.61    0.19
   4  -8   3    0.46    0.18
  -5   8  -3    0.13    0.14
   5  -8   3   -0.05    0.13
   5  -8   3    0.15    0.16
  -6   8  -3   14.06    0.70
   6  -8   3   13.60    0.69
   6  -8   3   14.49    0.70
  -7   8  -3   39.32    1.29
   7  -8   3   37.99    1.29
   7  -8   3   40.41    1.28
  -6  -7   3    6.62    0.74
  -6  -7   3    5.96    0.43
  -6  -7   3    7.66    1.57
  -5  -7   3    1.82    0.40
  -5  -7   3    2.40    0.90
  -5  -7   3    0.88    0.23
  -4  -7   3    1.95    0.37
  -4  -7   3    2.10    0.29
  -4  -7   3    2.50    0.83
  -3  -7   3    0.28    0.45
  -3  -7   3    0.22    0.19
  -3  -7   3    0.26    0.16
  -2  -7   3    2.94    0.28
  -2  -7   3    2.33    0.28
  -2  -7   3    3.24    0.72
  -1  -7   3   28.56    0.92
  -1  -7   3   29.80    1.52
  -1  -7   3   29.40    0.88
   0   7  -3   37.64    1.08
   0  -7   3   38.26    1.09
   0  -7   3   38.01    1.06
   0  -7   3   33.08    1.53
  -1   7  -3    5.34    0.38
   1  -7   3    4.79    0.37
   1  -7   3    5.05    0.36
   1  -7   3    4.88    0.34
  -2   7  -3    2.79    0.32
   2  -7   3    2.70    0.31
   2  -7   3    2.79    0.30
   2  -7   3    3.02    0.33
  -3   7  -3    0.29    0.14
   3  -7   3    0.11    0.12
   3  -7   3    0.37    0.17
   3  -7   3    0.35    0.15
  -4   7  -3    0.90    0.21
   4  -7   3    0.88    0.20
   4  -7   3    0.65    0.19
  -5   7  -3    0.38    0.16
   5  -7   3    0.50    0.20
   5  -7   3    0.70    0.20
  -6   7  -3    8.03    0.51
   6  -7   3    9.16    0.53
   6  -7   3    9.48    0.54
  -7   7  -3   15.97    0.74
   7  -7   3   17.70    0.77
  -8   7  -3    2.59    0.36
   8  -7   3    1.93    0.33
  -6  -6   3   14.60    1.60
  -6  -6   3   13.41    0.87
  -6  -6   3   13.02    0.57
  -5  -6   3    0.41    0.25
  -5  -6   3    0.07    0.14
  -5  -6   3   -0.11    0.53
  -4  -6   3   25.22    0.81
  -4  -6   3   27.82    1.83
  -4  -6   3   23.40    1.03
  -3  -6   3   69.06    1.66
  -3  -6   3   70.67    3.14
  -3  -6   3   68.24    1.93
  -2  -6   3    2.00    0.22
  -2  -6   3    3.10    0.66
  -2  -6   3    1.94    0.24
  -1  -6   3    0.64    0.14
  -1  -6   3    0.62    0.34
  -1  -6   3    0.74    0.17
  -1  -6   3    0.45    0.14
   0  -6   3   24.39    1.15
   0  -6   3   26.10    0.81
   0  -6   3   24.75    0.76
   0  -6   3   25.28    0.78
  -1   6  -3   91.57    2.06
   1  -6   3   89.55    2.03
   1  -6   3   90.50    1.99
   1  -6   3   90.84    2.04
  -2   6  -3    6.18    0.38
   2  -6   3    6.92    0.40
   2  -6   3    7.43    0.40
   2  -6   3    6.69    0.38
  -3   6  -3    0.52    0.15
   3  -6   3    0.52    0.15
   3  -6   3    0.72    0.16
  -4   6  -3    7.74    0.44
   4  -6   3    6.89    0.41
   4  -6   3    7.44    0.42
  -5   6  -3    7.37    0.45
   5  -6   3    7.17    0.44
   5  -6   3    6.35    0.41
  -6   6  -3   17.66    0.72
   6  -6   3   17.21    0.70
   6  -6   3   16.34    0.70
  -7   6  -3   11.01    0.57
   7  -6   3    9.70    0.55
  -8   6  -3    7.07    0.48
   8  -6   3    5.83    0.47
   7   5  -3    0.12    0.15
  -7  -5   3    0.07    0.72
  -7  -5   3    0.05    0.27
  -6  -5   3   21.15    1.90
  -6  -5   3   22.96    1.13
  -6  -5   3   23.48    0.73
  -5  -5   3    2.20    0.25
  -5  -5   3    1.91    0.39
  -5  -5   3    2.52    0.86
  -4  -5   3    4.79    0.32
  -4  -5   3    5.52    0.47
  -4  -5   3    7.84    1.26
  -3  -5   3   20.57    0.85
  -3  -5   3   22.89    1.44
  -3  -5   3   19.47    0.66
  -2  -5   3    1.62    0.18
  -2  -5   3    2.71    0.60
  -2  -5   3    1.43    0.20
  -1  -5   3   26.22    0.75
  -1  -5   3   25.99    0.77
  -1  -5   3   25.47    0.72
  -1  -5   3   26.69    1.30
   0  -5   3   -0.08    0.08
   0  -5   3   -0.08    0.09
   0  -5   3    0.16    0.10
   0  -5   3    0.07    0.21
  -1   5  -3    5.12    0.32
   1  -5   3    5.27    0.31
   1  -5   3    4.99    0.33
   1  -5   3    5.14    0.30
  -2   5  -3    0.10    0.09
   2  -5   3    0.07    0.09
   2  -5   3    0.17    0.11
  -3   5  -3    7.21    0.40
   3  -5   3    8.24    0.41
   3  -5   3    7.73    0.39
  -4   5  -3   27.53    0.85
   4  -5   3   25.36    0.81
   4  -5   3   27.76    0.85
  -5   5  -3    2.16    0.26
   5  -5   3    1.86    0.24
   5  -5   3    2.38    0.28
  -6   5  -3    7.39    0.45
   6  -5   3    7.18    0.44
   6  -5   3    7.77    0.44
  -7   5  -3   18.15    0.72
   7  -5   3   17.31    0.73
  -8   5  -3   15.66    0.68
   8  -5   3   15.77    0.72
   7   4  -3   15.49    0.60
  -7  -4   3   18.20    1.78
  -7  -4   3   17.23    1.02
  -6  -4   3    2.50    0.93
  -6  -4   3    1.73    0.40
  -5  -4   3    0.69    0.25
  -5  -4   3    0.74    0.14
  -5  -4   3    0.79    0.62
  -4  -4   3    1.85    0.32
  -4  -4   3    3.52    0.86
  -4  -4   3    1.63    0.19
  -3  -4   3    1.28    0.25
  -3  -4   3    1.38    0.17
  -3  -4   3    1.30    0.53
  -2  -4   3    9.57    0.80
  -2  -4   3    8.08    0.37
  -2  -4   3    9.46    0.47
  -1  -4   3    0.55    0.13
  -1  -4   3    0.29    0.29
  -1  -4   3    0.29    0.10
   0  -4   3    3.98    0.24
   0  -4   3    3.66    0.24
   1  -4   3    0.71    0.13
   1  -4   3    0.65    0.13
  -2   4  -3   13.57    0.49
   2  -4   3   12.75    0.47
   2  -4   3   13.06    0.49
  -3   4  -3    7.94    0.39
  -3   4  -3    8.02    0.55
   3  -4   3    8.21    0.38
   3  -4   3    8.89    0.40
  -4   4  -3    7.18    0.33
  -4   4  -3    6.46    0.60
  -4   4  -3    7.23    0.39
   4  -4   3    7.48    0.38
   4  -4   3    7.57    0.38
  -5   4  -3    7.86    0.82
  -5   4  -3    8.12    0.43
   5  -4   3    9.11    0.44
   5  -4   3    8.60    0.43
   5  -4   3    8.91    0.27
  -6   4  -3   24.01    0.82
  -6   4  -3   25.90    1.06
   6  -4   3   25.06    0.84
   6  -4   3   26.18    0.55
  -7   4  -3    0.21    0.21
  -7   4  -3    0.29    0.14
   7  -4   3    0.31    0.16
  -8   4  -3    0.62    0.19
  -8   4  -3    0.58    0.30
   8  -4   3    0.39    0.19
   8  -4   3    0.33    0.11
  -7  -3   3   12.51    1.47
  -7  -3   3   10.86    0.79
  -6  -3   3   11.96    0.77
  -6  -3   3   11.42    1.29
  -5  -3   3    3.88    0.24
  -5  -3   3    4.87    0.52
  -5  -3   3    6.24    1.21
  -4  -3   3    1.65    0.17
  -4  -3   3    2.74    0.78
  -4  -3   3    1.41    0.27
  -3  -3   3   -0.12    0.31
  -3  -3   3   -0.10    0.07
  -3  -3   3    0.07    0.13
  -2  -3   3   74.49    1.83
  -2  -3   3   79.09    3.02
  -2  -3   3   74.48    1.58
  -1  -3   3    2.28    0.44
   0  -3   3   16.29    0.49
   1  -3   3   15.48    0.49
  -2   3  -3    0.16    0.15
   2  -3   3    0.11    0.09
   2  -3   3    0.04    0.09
  -3   3  -3   35.07    0.95
  -3   3  -3   38.68    1.56
   3  -3   3   37.22    0.95
   3  -3   3   36.57    0.93
  -4   3  -3   54.18    1.49
  -4   3  -3   59.01    2.36
  -4   3  -3   53.99    1.33
   4  -3   3   54.65    1.29
   4  -3   3   55.54    0.98
   4  -3   3   54.94    1.32
  -5   3  -3    0.60    0.15
  -5   3  -3    0.19    0.15
  -5   3  -3    0.62    0.40
   5  -3   3    0.13    0.12
   5  -3   3    0.55    0.15
  -6   3  -3    2.29    0.26
  -6   3  -3    1.73    0.61
  -6   3  -3    2.68    0.39
   6  -3   3    2.77    0.30
  -7   3  -3   13.48    0.59
  -7   3  -3   14.38    0.81
   7  -3   3   14.93    0.62
  -8   3  -3    3.05    0.49
  -8   3  -3    3.47    0.33
   8  -3   3    3.50    0.37
  -8  -2   3    4.70    0.64
  -8  -2   3    3.99    1.18
  -7  -2   3    5.94    1.29
  -7  -2   3    4.31    0.60
  -6  -2   3   16.85    0.90
  -6  -2   3   18.14    1.56
  -5  -2   3    0.04    0.44
  -5  -2   3    0.39    0.21
  -4  -2   3    4.91    0.72
  -4  -2   3    3.44    0.38
  -4  -2   3    3.53    0.19
  -3  -2   3    3.06    0.33
  -3  -2   3    3.82    0.73
  -2  -2   3  110.18    4.01
   0  -2   3   43.61    0.96
   1  -2   3  123.55    2.44
  -2   2  -3  190.98    6.33
   2  -2   3  197.47    3.74
  -3   2  -3   19.26    0.66
  -3   2  -3   19.84    1.03
   3  -2   3   21.15    0.60
   3  -2   3   20.06    0.60
  -4   2  -3   -0.04    0.28
  -4   2  -3    0.12    0.12
   4  -2   3    0.22    0.11
   4  -2   3    0.03    0.09
  -5   2  -3   12.74    1.05
  -5   2  -3   12.68    0.64
   5  -2   3   13.80    0.53
   5  -2   3   13.05    0.51
  -6   2  -3    0.06    0.44
  -6   2  -3    0.18    0.18
   6  -2   3    0.19    0.13
  -7   2  -3    6.09    0.38
  -7   2  -3    6.04    0.55
   7  -2   3    5.16    0.38
  -8   2  -3    8.97    0.73
   8  -2   3   10.31    0.54
  -8  -1   3    2.74    0.50
  -7  -1   3    1.34    0.80
  -7  -1   3    0.88    0.30
  -6  -1   3    7.47    1.02
  -6  -1   3    5.55    0.59
  -5  -1   3    8.42    0.94
  -5  -1   3    8.70    0.56
  -4  -1   3   19.51    1.33
  -4  -1   3   19.35    0.78
  -3  -1   3   21.15    0.76
  -3  -1   3   24.28    1.34
  -2  -1   3   37.47    1.00
  -2  -1   3   38.45    0.96
  -1  -1   3  199.07    3.79
   0  -1   3   -0.19    0.07
   1  -1   3    1.36    0.15
   2  -1   3   11.34    0.39
  -3   1  -3    0.13    0.23
  -3   1  -3    0.08    0.10
   3  -1   3   -0.03    0.08
   3  -1   3   -0.02    0.08
  -4   1  -3    3.76    0.33
  -4   1  -3    4.42    0.72
   4  -1   3    4.12    0.26
   4  -1   3    4.60    0.27
  -5   1  -3    9.31    0.55
  -5   1  -3    9.71    0.97
   5  -1   3    8.74    0.41
   5  -1   3    8.64    0.40
  -6   1  -3    0.07    0.45
  -6   1  -3    0.06    0.16
   6  -1   3    0.42    0.15
  -7   1  -3    0.72    0.27
  -7   1  -3    1.40    0.73
   7  -1   3    0.69    0.19
  -8   1  -3    0.30    0.74
  -8   1  -3    2.04    0.42
   8  -1   3    1.07    0.24
  -8   0   3    1.99    0.44
  -7   0   3    0.11    0.21
  -6   0   3    5.74    1.12
  -6   0   3    6.76    0.54
  -5   0   3   13.12    1.15
  -5   0   3   13.11    0.68
  -4   0   3   83.47    3.43
  -4   0   3   82.04    2.08
  -3   0   3  122.18    2.62
  -3   0   3  126.31    2.78
  -2   0   3    1.15    0.16
  -1   0   3   68.02    1.41
   0   0   3   59.95    1.22
   1   0   3   47.25    1.03
   2   0   3    0.73    0.12
  -3   0  -3   47.42    1.22
  -3   0  -3   46.71    1.12
  -3   0  -3   48.44    2.07
   3   0   3   48.57    1.13
   3   0   3   47.88    1.10
  -4   0  -3    1.01    0.16
  -4   0  -3    1.24    0.21
  -4   0  -3    1.04    0.42
   4   0   3    0.49    0.13
   4   0   3    0.64    0.13
  -5   0  -3    5.73    0.34
  -5   0  -3    6.43    0.82
  -5   0  -3    5.62    0.43
   5   0   3    5.81    0.33
   5   0   3    5.36    0.33
  -6   0  -3    0.56    0.60
  -6   0  -3    0.01    0.16
   6   0   3    0.14    0.13
  -7   0  -3   -0.10    0.59
  -7   0  -3    0.22    0.21
   7   0   3   -0.03    0.14
  -8   0  -3    8.01    0.70
   8   0   3    8.56    0.50
  -8   1   3    2.41    0.47
  -7   1   3   45.73    1.62
  -6   1   3   60.97    1.84
  -5   1   3   79.54    2.11
  -4   1   3    1.34    0.21
  -4   1   3    1.65    0.27
  -3   1   3    3.28    0.26
  -3   1   3    3.49    0.30
  -2   1   3    1.75    0.19
   0   1   3  603.83   11.01
   1   1   3   55.67    1.20
   2   1   3   32.24    0.80
  -3  -1  -3    0.10    0.11
  -3  -1  -3    0.00    0.23
  -3  -1  -3   -0.06    0.08
   3   1   3    0.04    0.07
   3   1   3    0.08    0.09
  -4  -1  -3    1.80    0.21
  -4  -1  -3    2.03    0.55
  -4  -1  -3    2.07    0.27
   4   1   3    1.82    0.20
   4   1   3    1.75    0.20
  -5  -1  -3   22.28    0.72
  -5  -1  -3   22.60    0.88
  -5  -1  -3   21.09    1.54
   5   1   3   22.49    0.72
   5   1   3   21.94    0.70
  -6  -1  -3    5.38    0.49
  -6  -1  -3    4.91    1.06
  -6  -1  -3    5.55    0.37
   6   1   3    5.67    0.38
  -7  -1  -3    0.23    0.23
  -7  -1  -3    0.04    0.63
   7   1   3    0.17    0.16
  -8   2   3    4.36    0.59
  -7   2   3    6.28    0.57
   6  -2  -3    4.80    0.20
  -6   2   3    4.72    0.53
   5  -2  -3    7.56    0.23
  -5   2   3    7.35    0.50
  -5   2   3    7.54    0.46
   4  -2  -3   23.18    0.52
   4  -2  -3   23.92    0.52
  -4   2   3   23.65    0.84
   3  -2  -3   21.68    0.51
  -3   2   3   21.76    0.67
  -3   2   3   21.87    0.73
   2  -2  -3    2.68    0.16
  -2   2   3    2.65    0.22
  -1   2   3   42.62    0.92
   0   2   3  459.80    8.46
   1   2   3   10.08    0.37
  -2  -2  -3   19.49    0.59
   2   2   3   18.10    0.56
   2   2   3   19.26    0.57
  -3  -2  -3   43.36    2.05
  -3  -2  -3   43.37    1.16
  -3  -2  -3   41.77    1.07
   3   2   3   41.75    1.06
   3   2   3   43.04    1.05
  -4  -2  -3    0.09    0.10
  -4  -2  -3    0.05    0.13
  -4  -2  -3    0.13    0.34
   4   2   3    0.03    0.09
   4   2   3    0.04    0.10
  -5  -2  -3   15.30    1.33
  -5  -2  -3   14.42    0.57
  -5  -2  -3   13.64    0.68
   5   2   3   14.49    0.58
   5   2   3   14.26    0.56
  -6  -2  -3    2.15    0.80
  -6  -2  -3    2.24    0.37
  -6  -2  -3    1.68    0.26
   6   2   3    2.10    0.27
  -7  -2  -3    1.32    0.25
  -7  -2  -3    0.52    0.77
  -7  -2  -3    1.21    0.35
   7   2   3    1.63    0.28
  -8   3   3    0.31    0.27
   7  -3  -3   34.77    0.83
  -7   3   3   33.52    1.35
   6  -3  -3   34.64    0.81
  -6   3   3   35.41    1.17
  -6   3   3   34.90    1.27
   5  -3  -3    2.25    0.16
  -5   3   3    1.97    0.16
  -5   3   3    2.09    0.29
  -5   3   3    2.09    0.32
   4  -3  -3   28.83    0.69
  -4   3   3   28.76    0.70
  -4   3   3   28.78    0.89
   3  -3  -3   11.00    0.37
  -3   3   3   10.86    0.49
  -3   3   3   11.15    0.38
  -3   3   3   11.87    0.47
   2  -3  -3   35.42    0.86
  -2   3   3   36.73    0.91
  -1   3   3   83.70    1.72
   0   3   3   44.29    1.04
  -1  -3  -3   40.88    0.95
   1   3   3   39.15    0.95
   1   3   3   40.54    0.99
  -2  -3  -3    3.65    0.27
  -2  -3  -3    3.41    0.24
   2   3   3    3.72    0.26
   2   3   3    3.18    0.23
  -3  -3  -3   40.80    1.05
  -3  -3  -3   40.85    1.12
  -3  -3  -3   38.92    1.99
  -3  -3  -3   40.25    0.96
   3   3   3   39.51    1.02
   3   3   3   38.75    1.04
  -4  -3  -3   14.18    0.57
  -4  -3  -3   14.39    1.19
  -4  -3  -3   14.46    0.65
   4   3   3   14.44    0.56
   4   3   3   13.69    0.54
  -5  -3  -3    1.47    0.65
  -5  -3  -3    1.01    0.26
  -5  -3  -3    1.12    0.21
   5   3   3    0.92    0.19
   5   3   3    1.21    0.21
  -6  -3  -3    2.31    0.29
  -6  -3  -3    1.50    0.75
  -6  -3  -3    2.40    0.40
   6   3   3    2.89    0.33
  -7  -3  -3    2.62    0.33
  -7  -3  -3    3.87    1.21
   7   3   3    3.58    0.39
  -8   4   3    4.51    0.60
   7  -4  -3    0.14    0.10
  -7   4   3    0.12    0.20
   6  -4  -3   11.91    0.43
  -6   4   3   13.78    0.76
  -6   4   3   11.45    0.61
  -6   4   3   12.49    0.43
   5  -4  -3   30.99    0.80
  -5   4   3   31.01    1.11
  -5   4   3   31.05    0.81
  -5   4   3   32.57    1.02
   4  -4  -3    1.14    0.15
   4  -4  -3    1.54    0.17
  -4   4   3    1.32    0.21
  -4   4   3    0.71    0.19
  -4   4   3    1.17    0.16
   3  -4  -3    3.20    0.22
   3  -4  -3    2.93    0.22
  -3   4   3    3.27    0.23
  -3   4   3    3.41    0.29
  -3   4   3    3.11    0.26
   2  -4  -3  121.13    2.45
   2  -4  -3  121.77    2.39
  -2   4   3  117.29    2.44
  -2   4   3  119.76    2.40
   1  -4  -3   34.13    0.86
  -1   4   3   33.85    0.86
   0  -4  -3    2.00    0.20
   0   4   3    2.01    0.21
  -1  -4  -3    4.76    0.31
  -1  -4  -3    5.14    0.29
   1   4   3    4.65    0.29
  -2  -4  -3    3.81    0.26
  -2  -4  -3    3.52    0.29
  -2  -4  -3    4.19    0.29
   2   4   3    3.86    0.28
   2   4   3    4.04    0.27
  -3  -4  -3    2.03    0.26
  -3  -4  -3    2.61    0.66
  -3  -4  -3    1.36    0.22
  -3  -4  -3    1.95    0.22
   3   4   3    1.73    0.22
   3   4   3    1.89    0.24
  -4  -4  -3   22.54    0.79
  -4  -4  -3   23.78    1.61
  -4  -4  -3   23.61    0.88
   4   4   3   22.95    0.79
   4   4   3   21.43    0.75
  -5  -4  -3   38.81    2.38
  -5  -4  -3   38.31    1.12
  -5  -4  -3   38.52    1.30
   5   4   3   37.72    1.10
   5   4   3   36.74    1.12
  -6  -4  -3    7.48    0.49
  -6  -4  -3    6.85    0.58
  -6  -4  -3    7.19    1.38
   6   4   3    6.57    0.45
  -7  -4  -3    0.73    0.78
  -7  -4  -3    1.05    0.25
   7   4   3    1.51    0.29
   8  -5  -3    3.40    0.31
  -8   5   3    4.22    0.60
   7  -5  -3   13.05    0.52
  -7   5   3   14.70    0.85
  -7   5   3   13.57    0.49
  -7   5   3   12.73    0.70
   6  -5  -3    0.31    0.12
  -6   5   3    0.24    0.20
  -6   5   3   -0.01    0.10
  -6   5   3    0.27    0.16
   5  -5  -3    0.37    0.12
   5  -5  -3    0.24    0.11
  -5   5   3    0.03    0.12
  -5   5   3    0.12    0.15
  -5   5   3    0.07    0.09
   4  -5  -3    1.47    0.19
   4  -5  -3    1.76    0.21
  -4   5   3    1.70    0.21
  -4   5   3    1.47    0.22
  -4   5   3    1.33    0.25
   3  -5  -3    5.10    0.19
   3  -5  -3    5.68    0.32
   3  -5  -3    5.71    0.31
  -3   5   3    5.49    0.28
  -3   5   3    5.56    0.33
  -3   5   3    5.85    0.34
   2  -5  -3   -0.02    0.08
   2  -5  -3   -0.09    0.08
  -2   5   3    0.00    0.09
  -2   5   3   -0.02    0.09
   1  -5  -3   13.34    0.48
  -1   5   3   12.32    0.49
  -1   5   3   11.68    0.46
   0  -5  -3   20.02    0.63
   0  -5  -3   18.09    0.65
   0   5   3   19.46    0.64
  -1  -5  -3    8.72    0.41
  -1  -5  -3    8.38    0.43
   1   5   3    8.40    0.42
  -2  -5  -3  146.31    3.11
  -2  -5  -3  148.84    3.22
  -2  -5  -3  150.62    3.01
  -2  -5  -3  146.37    5.51
   2   5   3  149.12    3.12
  -3  -5  -3  105.53    2.51
  -3  -5  -3  108.65    2.27
  -3  -5  -3  107.46    4.35
  -3  -5  -3  108.98    2.41
   3   5   3  105.73    2.41
  -4  -5  -3    1.52    0.26
  -4  -5  -3    1.33    0.60
  -4  -5  -3    1.43    0.28
   4   5   3    1.93    0.28
  -5  -5  -3    6.27    0.54
  -5  -5  -3    4.70    1.04
  -5  -5  -3    5.60    0.43
   5   5   3    4.83    0.39
  -6  -5  -3    2.34    0.90
  -6  -5  -3    3.16    0.36
   6   5   3    3.60    0.40
   8  -6  -3   -0.08    0.13
  -8   6   3    0.11    0.24
   7  -6  -3    5.17    0.35
  -7   6   3    5.37    0.60
  -7   6   3    5.10    0.35
  -7   6   3    6.31    0.49
   6  -6  -3   14.03    0.57
  -6   6   3   16.20    0.83
  -6   6   3   15.18    0.59
  -6   6   3   15.61    0.71
   5  -6  -3    0.07    0.12
   5  -6  -3   -0.14    0.09
  -5   6   3    0.00    0.12
  -5   6   3   -0.04    0.09
   4  -6  -3    3.08    0.29
   4  -6  -3    2.95    0.28
   4  -6  -3    2.64    0.15
  -4   6   3    2.50    0.27
  -4   6   3    2.55    0.28
   3  -6  -3   53.18    1.32
   3  -6  -3   51.37    1.02
   3  -6  -3   50.17    1.27
  -3   6   3   52.05    1.31
  -3   6   3   51.63    1.24
   2  -6  -3   32.39    0.92
   2  -6  -3   31.83    0.94
  -2   6   3   32.19    0.91
  -2   6   3   33.31    0.95
   1  -6  -3   66.80    1.58
   1  -6  -3   67.84    1.63
  -1   6   3   67.86    1.61
  -1   6   3   68.90    1.64
   0  -6  -3   55.78    1.40
   0  -6  -3   54.07    1.34
   0   6   3   55.02    1.39
   0   6   3   52.69    1.38
  -1  -6  -3    4.80    0.36
  -1  -6  -3    5.27    0.34
   1   6   3    4.48    0.35
   1   6   3    4.82    0.34
  -2  -6  -3    0.00    0.13
  -2  -6  -3    0.15    0.36
  -2  -6  -3    0.12    0.12
  -2  -6  -3    0.06    0.13
   2   6   3    0.18    0.13
  -3  -6  -3    0.54    0.44
  -3  -6  -3    0.29    0.17
  -3  -6  -3    0.43    0.17
   3   6   3    0.34    0.16
  -4  -6  -3    0.50    0.49
  -4  -6  -3    0.24    0.20
  -4  -6  -3    0.53    0.20
   4   6   3    0.31    0.18
  -5  -6  -3    4.04    1.05
  -5  -6  -3    4.73    0.45
   5   6   3    4.79    0.47
  -6  -6  -3    0.62    0.23
  -6  -6  -3    1.13    0.83
   6   6   3    1.00    0.25
   8  -7  -3    0.87    0.22
  -8   7   3    1.22    0.23
   7  -7  -3    0.71    0.20
  -7   7   3    0.57    0.23
  -7   7   3    0.41    0.16
   6  -7  -3    0.88    0.20
   6  -7  -3    0.54    0.10
  -6   7   3    0.37    0.16
  -6   7   3    0.75    0.22
   5  -7  -3   -0.05    0.12
   5  -7  -3    0.07    0.12
   5  -7  -3   -0.14    0.07
  -5   7   3   -0.12    0.10
  -5   7   3    0.05    0.12
   4  -7  -3   -0.03    0.11
   4  -7  -3    0.24    0.13
   4  -7  -3    0.36    0.11
  -4   7   3    0.47    0.16
  -4   7   3    0.44    0.16
   3  -7  -3   14.34    0.43
   3  -7  -3   14.52    0.59
   3  -7  -3   15.01    0.62
  -3   7   3   14.56    0.61
   2  -7  -3  172.76    3.66
   2  -7  -3  176.07    3.62
   2  -7  -3  182.51    3.70
  -2   7   3  180.85    3.71
  -2   7   3  175.70    3.64
   1  -7  -3    4.79    0.35
   1  -7  -3    5.67    0.38
  -1   7   3    5.13    0.37
  -1   7   3    4.87    0.34
   0  -7  -3   37.33    1.07
   0  -7  -3   38.45    1.13
   0   7   3   37.92    1.11
   0   7   3   35.62    1.09
  -1  -7  -3    0.04    0.14
  -1  -7  -3   -0.01    0.11
   1   7   3    0.16    0.13
   1   7   3   -0.15    0.09
  -2  -7  -3   12.05    0.60
  -2  -7  -3   12.02    0.59
  -2  -7  -3   12.43    1.09
  -2  -7  -3   12.92    0.56
   2   7   3   11.96    0.59
  -3  -7  -3   13.69    1.25
  -3  -7  -3   14.38    0.70
  -3  -7  -3   15.55    0.71
   3   7   3   15.32    0.70
  -4  -7  -3    5.10    0.48
  -4  -7  -3    6.61    1.22
   4   7   3    4.54    0.46
  -5  -7  -3    4.51    0.46
  -5  -7  -3    3.75    1.04
   5   7   3    3.94    0.45
   8  -8  -3   15.80    0.46
   8  -8  -3   15.61    0.71
  -8   8   3   16.41    0.70
   7  -8  -3    2.23    0.20
   7  -8  -3    2.04    0.30
  -7   8   3    2.13    0.30
   6  -8  -3   25.09    0.63
   6  -8  -3   25.18    0.91
   6  -8  -3   25.13    0.88
  -6   8   3   25.70    0.95
  -6   8   3   25.25    0.90
   5  -8  -3   26.30    0.92
   5  -8  -3   26.00    0.89
   5  -8  -3   25.96    0.65
  -5   8   3   24.72    0.90
  -5   8   3   26.62    0.93
   4  -8  -3   13.29    0.62
   4  -8  -3   13.49    0.44
   4  -8  -3   13.61    0.61
  -4   8   3   13.52    0.62
  -4   8   3   12.37    0.59
   3  -8  -3    9.58    0.51
   3  -8  -3    9.56    0.52
   3  -8  -3    9.84    0.53
  -3   8   3    8.99    0.51
   2  -8  -3    1.24    0.23
   2  -8  -3    1.46    0.25
   2  -8  -3    1.60    0.26
  -2   8   3    1.18    0.23
  -2   8   3    1.70    0.26
   1  -8  -3    6.07    0.44
   1  -8  -3    6.38    0.41
  -1   8   3    6.45    0.44
  -1   8   3    6.93    0.43
   0  -8  -3    0.30    0.14
   0  -8  -3    0.73    0.20
   0   8   3    0.72    0.19
   0   8   3    0.42    0.17
  -1  -8  -3    0.26    0.17
  -1  -8  -3    0.44    0.15
   1   8   3    0.25    0.16
   1   8   3    0.07    0.13
  -2  -8  -3    5.47    1.01
  -2  -8  -3    3.64    0.42
  -2  -8  -3    5.07    0.38
  -2  -8  -3    3.37    0.38
   2   8   3    4.72    0.39
  -3  -8  -3    7.12    0.93
  -3  -8  -3    6.44    0.51
  -3  -8  -3    6.80    0.52
   3   8   3    7.46    0.50
  -4  -8  -3    0.65    0.25
  -4  -8  -3    1.27    0.69
   4   8   3    0.93    0.26
  -5  -8  -3    4.33    0.46
  -5  -8  -3    1.55    0.77
   5   8   3    3.03    0.42
   8  -9  -3   14.70    0.73
   8  -9  -3   15.33    0.51
  -8   9   3   14.09    0.69
   7  -9  -3    3.65    0.41
   7  -9  -3    3.61    0.28
  -7   9   3    3.83    0.41
   6  -9  -3    8.47    0.54
   6  -9  -3    8.90    0.54
   6  -9  -3    9.28    0.38
  -6   9   3    8.66    0.55
   5  -9  -3    0.77    0.21
   5  -9  -3    0.60    0.15
   5  -9  -3    0.53    0.20
  -5   9   3    0.65    0.20
  -5   9   3    0.49    0.20
   4  -9  -3    0.58    0.21
   4  -9  -3    0.63    0.21
  -4   9   3    0.63    0.20
  -4   9   3    0.63    0.19
   3  -9  -3   14.35    0.67
   3  -9  -3   14.93    0.69
  -3   9   3   15.48    0.71
   2  -9  -3    3.06    0.35
   2  -9  -3    4.10    0.42
  -2   9   3    3.49    0.37
  -2   9   3    3.48    0.39
   1  -9  -3    1.58    0.26
   1  -9  -3    2.39    0.32
  -1   9   3    2.07    0.30
  -1   9   3    1.54    0.27
   0  -9  -3    0.08    0.17
   0  -9  -3    0.31    0.16
   0   9   3   -0.07    0.13
   0   9   3   -0.21    0.12
  -1  -9  -3    6.64    0.51
  -1  -9  -3    6.80    0.46
  -1  -9  -3    6.20    0.81
   1   9   3    6.69    0.48
  -2  -9  -3   -0.03    0.40
  -2  -9  -3    0.26    0.17
  -2  -9  -3    0.35    0.20
  -2  -9  -3    0.40    0.21
   2   9   3    0.20    0.18
  -3  -9  -3    5.08    1.12
  -3  -9  -3    3.47    0.43
   3   9   3    3.85    0.44
  -4  -9  -3    2.34    0.88
  -4  -9  -3    1.85    0.35
   4   9   3    1.55    0.32
   7 -10  -3    1.38    0.30
   7 -10  -3    1.52    0.23
  -7  10   3    1.54    0.29
   6 -10  -3    4.31    0.47
   6 -10  -3    4.02    0.45
  -6  10   3    5.40    0.52
   5 -10  -3   17.80    0.79
   5 -10  -3   17.91    0.81
  -5  10   3   17.31    0.80
   4 -10  -3   13.76    0.69
   4 -10  -3   14.13    0.72
  -4  10   3   13.62    0.70
  -4  10   3   14.71    0.66
   3 -10  -3   12.44    0.65
   3 -10  -3   13.39    0.68
  -3  10   3   12.90    0.68
   2 -10  -3    0.07    0.18
   2 -10  -3    0.13    0.15
  -2  10   3    0.12    0.16
  -2  10   3    0.08    0.15
   1 -10  -3   10.46    0.58
   1 -10  -3    8.95    0.60
  -1  10   3   10.86    0.62
  -1  10   3    9.40    0.57
   0 -10  -3    2.09    0.31
   0 -10  -3    1.97    0.35
   0  10   3    2.02    0.34
   0  10   3    1.76    0.31
  -1 -10  -3    0.23    0.21
  -1 -10  -3    0.06    0.16
  -1 -10  -3    0.33    0.42
   1  10   3    0.37    0.19
  -2 -10  -3    2.55    0.39
  -2 -10  -3    3.28    0.40
  -2 -10  -3    3.14    0.85
   2  10   3    2.55    0.38
  -3 -10  -3    7.22    1.05
  -3 -10  -3    7.59    0.59
   3  10   3    7.37    0.56
   7 -11  -3    3.08    0.43
   7 -11  -3    3.51    0.46
  -7  11   3    3.18    0.43
   6 -11  -3    0.01    0.19
   6 -11  -3    0.26    0.21
  -6  11   3    0.30    0.19
   5 -11  -3    0.33    0.23
   5 -11  -3    0.25    0.23
  -5  11   3    0.40    0.21
   4 -11  -3    3.39    0.44
   4 -11  -3    3.39    0.42
  -4  11   3    3.43    0.43
   3 -11  -3   10.84    0.64
   3 -11  -3   11.12    0.67
  -3  11   3   11.31    0.67
   2 -11  -3   30.12    1.10
   2 -11  -3   30.99    1.15
  -2  11   3   29.94    1.15
   1 -11  -3    0.36    0.21
   1 -11  -3    0.19    0.18
  -1  11   3   -0.13    0.15
  -1  11   3   -0.03    0.15
   0 -11  -3    0.01    0.20
   0 -11  -3    0.20    0.19
   0  11   3    0.16    0.19
   0  11   3    0.19    0.20
  -1 -11  -3    0.32    0.23
  -1 -11  -3    0.09    0.18
   1  11   3    0.16    0.18
  -2 -11  -3   18.48    0.91
  -2 -11  -3   18.16    1.54
   2  11   3   16.85    0.87
  -3 -11  -3   12.24    1.39
  -3 -11  -3   13.83    0.81
   3  11   3   12.91    0.78
   6 -12  -3    0.91    0.29
   6 -12  -3    1.38    0.34
  -6  12   3    2.04    0.38
   5 -12  -3    6.13    0.60
   5 -12  -3    5.85    0.58
  -5  12   3    4.25    0.52
   4 -12  -3    0.83    0.27
   4 -12  -3    0.67    0.25
  -4  12   3    0.76    0.25
   3 -12  -3   12.30    0.71
  -3  12   3   11.10    0.71
   2 -12  -3   -0.19    0.17
   2 -12  -3    0.28    0.23
  -2  12   3    0.01    0.17
   1 -12  -3    0.61    0.26
   1 -12  -3    0.99    0.28
  -1  12   3    1.11    0.29
  -1  12   3    0.38    0.21
   0 -12  -3    2.72    0.44
   0 -12  -3    2.52    0.40
   0  12   3    3.75    0.47
  -1 -12  -3   17.59    0.86
  -1 -12  -3   17.32    0.91
   1  12   3   17.37    0.89
  -2 -12  -3    0.36    0.27
   2  12   3    0.59    0.28
   5 -13  -3    0.06    0.22
   5 -13  -3   -0.06    0.22
  -5  13   3    0.02    0.20
   4 -13  -3    1.09    0.33
   4 -13  -3    1.06    0.31
  -4  13   3    1.24    0.33
   3 -13  -3    1.90    0.37
  -3  13   3    1.85    0.38
   2 -13  -3   14.80    0.82
   2 -13  -3   15.52    0.87
  -2  13   3   12.72    0.80
   1 -13  -3    1.36    0.37
   1 -13  -3    0.96    0.30
  -1  13   3    1.15    0.31
  -1  13   3    1.10    0.32
   0 -13  -3    1.87    0.41
   0 -13  -3    2.57    0.44
   0  13   3    2.86    0.45
  -1 -13   4    7.85    0.67
   0 -13   4    1.73    0.37
   0 -13   4    1.49    0.38
   1 -13   4    0.37    0.23
   1 -13   4    0.36    0.28
  -2  13  -4   14.83    0.87
   2 -13   4   13.70    0.81
   2 -13   4   13.16    0.84
  -3  13  -4    4.34    0.56
   3 -13   4    4.97    0.57
   3 -13   4    4.15    0.55
  -4  13  -4    9.35    0.74
   4 -13   4   10.23    0.73
   4 -13   4   11.94    0.78
  -2 -12   4    1.62    0.37
  -1 -12   4   -0.03    0.21
   0 -12   4    1.55    0.36
   0 -12   4    1.25    0.31
  -1  12  -4   15.41    0.85
   1 -12   4   16.37    0.83
   1 -12   4   17.00    0.88
  -2  12  -4   12.00    0.76
   2 -12   4   12.97    0.77
   2 -12   4   12.97    0.75
   2 -12   4   13.25    0.81
  -3  12  -4    0.65    0.27
   3 -12   4    0.83    0.31
   3 -12   4    0.88    0.28
   3 -12   4    0.81    0.27
  -4  12  -4    0.15    0.18
   4 -12   4   -0.14    0.21
   4 -12   4    0.46    0.25
  -5  12  -4   -0.06    0.18
   5 -12   4   -0.10    0.20
   5 -12   4   -0.17    0.21
  -3 -11   4    5.54    0.70
  -3 -11   4    5.54    0.57
  -2 -11   4   47.45    1.55
  -1 -11   4   33.08    1.24
  -1 -11   4   34.71    1.17
   0 -11   4   14.84    0.75
   0 -11   4   15.71    0.80
  -1  11  -4    0.60    0.23
   1 -11   4    0.10    0.18
   1 -11   4    0.14    0.21
  -2  11  -4   12.67    0.74
   2 -11   4   13.74    0.76
   2 -11   4   13.28    0.71
   2 -11   4   13.37    0.74
  -3  11  -4    2.59    0.40
   3 -11   4    2.78    0.40
   3 -11   4    3.33    0.43
   3 -11   4    2.34    0.38
  -4  11  -4    3.02    0.44
   4 -11   4    4.74    0.50
   4 -11   4    4.41    0.50
  -5  11  -4    8.45    0.63
   5 -11   4    8.49    0.62
   5 -11   4    7.11    0.57
  -6  11  -4    2.12    0.39
   6 -11   4    2.61    0.44
   6 -11   4    2.44    0.40
  -4 -10   4    4.07    0.46
  -4 -10   4    0.93    0.83
  -4 -10   4    3.50    0.58
  -3 -10   4    3.45    0.53
  -3 -10   4    4.79    0.49
  -2 -10   4   11.76    0.68
  -1 -10   4   25.79    0.95
  -1 -10   4   28.01    1.05
   0 -10   4    4.35    0.44
   0 -10   4    4.16    0.47
  -1  10  -4   19.45    0.87
   1 -10   4   20.46    0.87
   1 -10   4   19.58    0.83
   1 -10   4   20.75    0.89
  -2  10  -4   28.28    1.06
   2 -10   4   27.70    1.04
   2 -10   4   28.06    1.02
   2 -10   4   23.93    1.01
  -3  10  -4    2.35    0.38
   3 -10   4    2.05    0.35
   3 -10   4    1.64    0.31
   3 -10   4    2.07    0.33
  -4  10  -4    5.26    0.54
   4 -10   4    5.00    0.51
   4 -10   4    5.37    0.52
  -5  10  -4   14.87    0.79
   5 -10   4   14.40    0.76
   5 -10   4   12.94    0.74
  -6  10  -4    5.61    0.56
   6 -10   4    5.32    0.52
   6 -10   4    4.69    0.53
  -7  10  -4    0.57    0.25
   7 -10   4    0.26    0.25
   7 -10   4    0.35    0.24
  -5  -9   4   13.33    1.61
  -5  -9   4   16.50    1.00
  -5  -9   4   16.90    0.77
  -4  -9   4    0.22    0.70
  -4  -9   4    0.09    0.17
  -4  -9   4    0.09    0.24
  -3  -9   4    3.20    0.49
  -3  -9   4    3.88    0.43
  -3  -9   4    3.02    0.85
  -2  -9   4   21.01    0.87
  -1  -9   4    5.16    0.40
  -1  -9   4    4.27    0.44
   0   9  -4    0.79    0.22
   0  -9   4    1.01    0.21
   0  -9   4    0.74    0.23
  -1   9  -4   19.88    0.83
   1  -9   4   20.41    0.82
   1  -9   4   20.53    0.80
   1  -9   4   20.45    0.85
  -2   9  -4   30.27    1.09
   2  -9   4   30.82    1.04
   2  -9   4   30.70    1.07
   2  -9   4   32.33    1.11
  -3   9  -4   17.88    0.80
   3  -9   4   16.79    0.78
   3  -9   4   17.07    0.76
   3  -9   4   17.87    0.80
  -4   9  -4   47.88    1.50
   4  -9   4   48.51    1.48
   4  -9   4   48.44    1.44
  -5   9  -4    1.44    0.31
   5  -9   4    1.28    0.28
   5  -9   4    1.57    0.30
  -6   9  -4    1.64    0.32
   6  -9   4    1.68    0.33
   6  -9   4    1.22    0.28
  -7   9  -4    3.32    0.44
   7  -9   4    3.68    0.47
   7  -9   4    4.23    0.48
  -5  -8   4    3.09    1.04
  -5  -8   4    5.11    0.65
  -5  -8   4    3.55    0.39
  -4  -8   4    0.00    0.15
  -4  -8   4   -0.14    0.60
  -4  -8   4   -0.05    0.23
  -3  -8   4    7.55    0.50
  -3  -8   4    6.84    0.57
  -3  -8   4    7.42    0.98
  -2  -8   4    0.32    0.45
  -2  -8   4    0.09    0.15
  -1  -8   4   23.65    0.79
  -1  -8   4   24.96    0.87
  -1  -8   4   17.71    1.24
   0   8  -4   27.80    0.96
   0  -8   4   28.98    0.94
   0  -8   4   30.07    1.01
   0  -8   4   29.42    0.96
  -1   8  -4   23.78    0.89
   1  -8   4   24.92    0.91
   1  -8   4   23.58    0.84
   1  -8   4   25.71    0.89
  -2   8  -4    8.74    0.52
   2  -8   4    8.88    0.53
   2  -8   4    9.08    0.52
   2  -8   4    8.60    0.49
  -3   8  -4    1.87    0.29
   3  -8   4    1.98    0.29
   3  -8   4    2.04    0.31
   3  -8   4    1.83    0.28
  -4   8  -4    9.28    0.56
   4  -8   4    9.84    0.57
   4  -8   4   10.47    0.56
  -5   8  -4   45.48    1.41
   5  -8   4   46.52    1.41
   5  -8   4   45.19    1.36
  -6   8  -4   22.70    0.92
   6  -8   4   21.09    0.90
   6  -8   4   21.40    0.89
  -7   8  -4   15.21    0.77
   7  -8   4   15.12    0.75
   7  -8   4   13.64    0.74
  -6  -7   4    6.07    0.42
  -6  -7   4    5.99    1.36
  -6  -7   4    4.97    0.65
  -5  -7   4    0.37    0.26
  -5  -7   4    0.26    0.17
  -5  -7   4    0.31    0.62
  -4  -7   4   -0.11    0.18
  -4  -7   4   -0.09    0.13
  -4  -7   4    0.43    0.58
  -3  -7   4    1.61    0.67
  -3  -7   4    1.14    0.23
  -3  -7   4    1.62    0.32
  -2  -7   4    6.21    0.36
  -2  -7   4    6.09    0.41
  -2  -7   4    6.61    0.81
  -1  -7   4    3.31    0.34
  -1  -7   4    2.92    0.29
  -1  -7   4    1.87    0.48
   0   7  -4    0.27    0.14
   0  -7   4    0.23    0.14
   0  -7   4    0.34    0.15
   0  -7   4    0.59    0.16
   0  -7   4   -0.09    0.27
  -1   7  -4   -0.01    0.11
   1  -7   4   -0.08    0.11
   1  -7   4   -0.08    0.11
   1  -7   4    0.14    0.12
  -2   7  -4    0.76    0.19
   2  -7   4    1.12    0.21
   2  -7   4    0.86    0.20
   2  -7   4    0.83    0.19
  -3   7  -4   10.81    0.56
   3  -7   4   10.36    0.52
   3  -7   4   11.64    0.56
   3  -7   4   11.66    0.56
  -4   7  -4   41.31    1.24
   4  -7   4   40.58    1.19
   4  -7   4   38.63    1.20
  -5   7  -4   14.03    0.68
   5  -7   4   14.45    0.66
   5  -7   4   14.76    0.68
  -6   7  -4   68.05    1.83
   6  -7   4   68.13    1.85
   6  -7   4   69.98    1.80
  -7   7  -4    6.87    0.50
   7  -7   4    5.80    0.48
   7  -7   4    6.20    0.48
  -6  -6   4    3.82    0.34
  -6  -6   4    3.76    0.57
  -6  -6   4    6.47    1.43
  -5  -6   4   39.86    1.48
  -5  -6   4   37.65    2.43
  -5  -6   4   36.66    1.05
  -4  -6   4   41.62    2.42
  -4  -6   4   40.89    1.14
  -4  -6   4   42.46    1.46
  -3  -6   4    0.19    0.18
  -3  -6   4    0.13    0.13
  -3  -6   4    0.20    0.46
  -2  -6   4    6.24    0.74
  -2  -6   4    4.91    0.35
  -2  -6   4    5.86    0.32
  -1  -6   4   34.31    0.97
  -1  -6   4   34.10    1.00
  -1  -6   4   36.93    1.68
  -1  -6   4   35.56    0.96
   0   6  -4   95.66    2.10
   0  -6   4   90.84    2.05
   0  -6   4   91.73    2.02
   0  -6   4   91.03    2.08
  -1   6  -4    9.37    0.47
   1  -6   4    8.51    0.44
   1  -6   4    8.87    0.43
   1  -6   4    9.59    0.47
  -2   6  -4   31.78    0.98
   2  -6   4   32.70    0.97
   2  -6   4   32.03    0.97
  -3   6  -4   10.03    0.51
   3  -6   4    9.65    0.49
   3  -6   4   10.85    0.51
   3  -6   4   10.52    0.50
  -4   6  -4   57.86    1.52
   4  -6   4   54.69    1.47
   4  -6   4   55.80    1.45
  -5   6  -4   45.29    1.31
   5  -6   4   44.99    1.27
   5  -6   4   43.77    1.29
  -6   6  -4    1.11    0.25
   6  -6   4    1.54    0.28
   6  -6   4    1.38    0.26
  -7   6  -4    1.11    0.25
   7  -6   4    1.17    0.26
  -8   6  -4    1.73    0.29
   8  -6   4    1.99    0.34
  -7  -5   4    9.55    0.81
  -7  -5   4    9.95    1.43
  -6  -5   4    2.66    0.98
  -6  -5   4    1.01    0.34
  -5  -5   4    5.35    1.15
  -5  -5   4    3.71    0.30
  -5  -5   4    3.04    0.46
  -4  -5   4    2.01    0.72
  -4  -5   4    1.51    0.31
  -4  -5   4    1.39    0.21
  -3  -5   4    7.47    0.39
  -3  -5   4    7.49    0.51
  -3  -5   4    7.64    0.87
  -2  -5   4   18.64    1.21
  -2  -5   4   18.49    0.56
  -2  -5   4   18.76    0.64
  -1  -5   4    9.04    0.71
  -1  -5   4    9.19    0.40
  -1  -5   4    9.91    0.40
  -1  -5   4    8.55    0.41
   0  -5   4   38.60    1.05
   0  -5   4   41.11    1.02
   0  -5   4   39.94    1.04
  -1   5  -4   92.41    2.06
   1  -5   4   94.75    2.05
   1  -5   4   91.54    2.00
   1  -5   4   94.29    2.07
  -2   5  -4   65.17    1.57
   2  -5   4   66.74    1.57
   2  -5   4   64.55    1.53
  -3   5  -4   49.89    1.30
   3  -5   4   50.44    1.31
   3  -5   4   50.55    1.28
  -4   5  -4   15.35    0.62
   4  -5   4   15.82    0.62
   4  -5   4   16.31    0.64
  -5   5  -4    9.99    0.51
   5  -5   4    9.56    0.50
   5  -5   4    9.42    0.49
  -6   5  -4    0.30    0.15
   6  -5   4    0.21    0.15
   6  -5   4    0.26    0.17
  -7   5  -4    2.00    0.30
   7  -5   4    2.51    0.34
  -8   5  -4   10.06    0.56
   8  -5   4    8.38    0.55
  -7  -4   4    0.27    0.29
  -7  -4   4    0.12    0.71
  -6  -4   4    0.29    0.26
  -6  -4   4    0.51    0.57
  -5  -4   4    7.80    1.36
  -5  -4   4    5.18    0.30
  -5  -4   4    5.22    0.56
  -4  -4   4   14.73    0.51
  -4  -4   4   15.20    1.28
  -4  -4   4   15.70    0.76
  -3  -4   4    3.33    0.74
  -3  -4   4    2.47    0.23
  -3  -4   4    2.81    0.35
  -2  -4   4    7.41    0.72
  -2  -4   4    6.72    0.33
  -2  -4   4    6.71    0.42
  -1  -4   4   34.68    0.86
  -1  -4   4   34.06    0.90
   0  -4   4  262.45    5.02
   0  -4   4  263.36    5.06
   0  -4   4  261.68    4.94
   1  -4   4    9.63    0.41
   1  -4   4    9.73    0.42
  -2   4  -4  160.44    3.22
   2  -4   4  157.54    3.13
   2  -4   4  154.06    3.19
  -3   4  -4   14.82    0.78
  -3   4  -4   14.57    0.56
   3  -4   4   14.62    0.56
   3  -4   4   13.87    0.54
  -4   4  -4   30.43    0.83
  -4   4  -4   30.86    1.46
  -4   4  -4   31.16    0.93
   4  -4   4   29.81    0.91
   4  -4   4   30.04    0.88
  -5   4  -4    0.18    0.14
  -5   4  -4   -0.40    0.34
   5  -4   4   -0.05    0.11
   5  -4   4   -0.06    0.11
  -6   4  -4    0.04    0.13
   6  -4   4    0.09    0.15
   6  -4   4   -0.03    0.12
  -7   4  -4    9.00    0.51
   7  -4   4    8.21    0.50
  -8   4  -4    0.10    0.15
   8  -4   4    0.32    0.20
  -7  -3   4    9.57    1.32
  -7  -3   4    8.12    0.71
  -6  -3   4   10.38    0.72
  -6  -3   4    9.45    1.19
  -5  -3   4    2.28    0.77
  -5  -3   4    1.23    0.15
  -5  -3   4    1.28    0.30
  -4  -3   4    9.56    0.36
  -4  -3   4    9.68    0.57
  -4  -3   4   10.00    1.01
  -3  -3   4    4.78    0.65
  -3  -3   4    4.28    0.36
  -3  -3   4    3.72    0.23
  -2  -3   4   16.25    0.51
  -2  -3   4   16.78    0.65
  -2  -3   4   18.23    1.10
  -1  -3   4    0.07    0.08
   0  -3   4    0.04    0.08
   1  -3   4    1.46    0.18
   1  -3   4    1.45    0.17
  -2   3  -4    0.55    0.14
   2  -3   4    0.89    0.16
   2  -3   4    0.90    0.15
  -3   3  -4    0.19    0.10
  -3   3  -4    0.10    0.18
   3  -3   4   -0.04    0.08
   3  -3   4    0.15    0.11
  -4   3  -4   60.33    1.33
  -4   3  -4   57.86    1.44
  -4   3  -4   60.87    2.47
   4  -3   4   59.75    1.10
   4  -3   4   58.33    1.44
   4  -3   4   59.24    1.41
  -5   3  -4    2.18    0.62
  -5   3  -4    1.15    0.20
  -5   3  -4    2.13    0.31
   5  -3   4    1.19    0.21
   5  -3   4    1.57    0.14
   5  -3   4    1.77    0.23
  -6   3  -4   44.51    1.22
  -6   3  -4   37.94    2.24
  -6   3  -4   45.60    1.45
   6  -3   4   42.13    1.22
   6  -3   4   45.41    0.87
   6  -3   4   45.80    1.22
  -7   3  -4    2.73    0.32
  -7   3  -4    2.81    0.44
   7  -3   4    2.56    0.19
   7  -3   4    3.03    0.34
  -8   3  -4   16.49    0.96
  -8   3  -4   18.83    0.74
   8  -3   4   16.95    0.75
  -8  -2   4    4.53    0.63
  -7  -2   4    0.30    0.27
  -6  -2   4    0.28    0.23
  -6  -2   4    0.22    0.55
  -5  -2   4   23.75    1.69
  -5  -2   4   23.95    0.99
  -4  -2   4    0.26    0.08
  -4  -2   4    0.44    0.47
  -4  -2   4    0.28    0.17
  -3  -2   4    1.55    0.24
  -3  -2   4    2.91    0.66
  -3  -2   4    1.59    0.14
  -2  -2   4   13.63    0.54
  -1  -2   4   11.36    0.39
   0  -2   4    5.42    0.26
   1  -2   4    5.66    0.29
   1  -2   4    6.39    0.29
   2  -2   4   24.39    0.69
   2  -2   4   24.49    0.68
  -3   2  -4    9.92    0.71
  -3   2  -4   11.10    0.40
   3  -2   4   10.40    0.44
   3  -2   4   11.02    0.43
  -4   2  -4   29.44    0.77
  -4   2  -4   32.14    0.98
  -4   2  -4   33.12    1.60
   4  -2   4   30.35    0.62
   4  -2   4   30.94    0.87
   4  -2   4   29.12    0.87
  -5   2  -4   34.46    1.14
  -5   2  -4   36.39    1.95
   5  -2   4   35.52    0.69
   5  -2   4   34.86    0.98
   5  -2   4   34.43    1.01
  -6   2  -4   18.95    1.47
  -6   2  -4   19.62    0.88
   6  -2   4   19.32    0.45
   6  -2   4   18.97    0.72
  -7   2  -4    2.85    0.43
  -7   2  -4    1.16    0.70
  -7   2  -4    2.19    0.28
   7  -2   4    2.51    0.18
   7  -2   4    2.82    0.33
  -8   2  -4   29.86    0.97
  -8   2  -4   30.18    1.29
   8  -2   4   29.41    1.03
  -8  -1   4    8.73    0.75
  -7  -1   4   13.62    0.86
  -6  -1   4   15.70    0.83
  -5  -1   4    1.28    0.28
  -4  -1   4    0.16    0.15
   3   1  -4    0.04    0.05
  -3  -1   4    0.16    0.12
  -3  -1   4    0.22    0.12
  -2  -1   4   13.18    0.49
  -2  -1   4   13.68    0.51
  -1  -1   4    5.01    0.25
   0  -1   4   13.54    0.36
   0  -1   4   12.95    0.40
   1  -1   4   71.65    1.53
  -2   1  -4    2.28    0.22
   2  -1   4    1.91    0.19
   2  -1   4    1.87    0.19
  -3   1  -4   64.26    1.55
  -3   1  -4   64.92    2.59
  -3   1  -4   65.34    1.48
   3  -1   4   65.82    1.45
   3  -1   4   64.81    1.48
  -4   1  -4   28.18    1.53
  -4   1  -4   27.98    0.91
   4  -1   4   28.90    0.83
   4  -1   4   27.78    0.80
   4  -1   4   28.21    0.56
  -5   1  -4    1.82    0.29
  -5   1  -4    2.32    0.65
   5  -1   4    1.51    0.22
   5  -1   4    1.65    0.22
  -6   1  -4    8.40    0.57
  -6   1  -4    5.97    1.08
   6  -1   4    7.41    0.43
  -7   1  -4    7.76    0.62
  -7   1  -4    6.35    1.21
   7  -1   4    7.15    0.45
  -8   1  -4   -0.07    0.66
  -8   1  -4    0.01    0.14
  -8   1  -4   -0.12    0.22
   8  -1   4   -0.20    0.14
  -8   0   4    0.41    0.27
  -7   0   4   -0.25    0.19
  -6   0   4   15.37    0.81
  -5   0   4   20.61    0.87
  -4   0   4    1.96    0.27
  -4   0   4    3.30    0.36
   3   0  -4   50.27    0.98
  -3   0   4   50.31    1.28
  -3   0   4   51.80    1.36
  -1   0   4   34.73    0.83
   0   0   4   66.58    1.39
   1   0   4   10.40    0.38
  -2   0  -4    3.10    0.25
   2   0   4    3.07    0.22
   2   0   4    3.34    0.23
  -3   0  -4   20.43    0.67
  -3   0  -4   21.35    1.23
  -3   0  -4   21.49    0.67
   3   0   4   21.65    0.64
   3   0   4   21.93    0.66
  -4   0  -4   10.49    0.47
  -4   0  -4    9.29    0.87
  -4   0  -4   10.42    0.50
   4   0   4   10.48    0.27
   4   0   4   10.12    0.45
   4   0   4   10.24    0.43
  -5   0  -4   60.67    1.65
  -5   0  -4   57.71    1.45
  -5   0  -4   61.55    2.88
   5   0   4   58.82    1.48
   5   0   4   60.03    1.44
   5   0   4   59.27    1.05
  -6   0  -4   22.30    0.95
  -6   0  -4   22.65    1.75
   6   0   4   20.66    0.76
  -7   0  -4    7.74    1.36
  -7   0  -4    8.33    0.64
   7   0   4    7.79    0.29
   7   0   4    7.87    0.48
  -8   1   4    0.91    0.33
  -7   1   4    9.70    0.71
  -6   1   4   15.97    0.83
  -5   1   4    9.84    0.58
  -5   1   4    9.70    0.54
  -4   1   4   47.13    1.29
  -4   1   4   47.17    1.36
   3  -1  -4   20.24    0.46
  -3   1   4   20.31    0.68
  -3   1   4   21.55    0.72
  -2   1   4   53.08    1.24
  -1   1   4   28.61    0.67
   0   1   4    9.87    0.35
   1   1   4    0.04    0.08
   1   1   4    0.05    0.09
  -2  -1  -4   11.00    0.43
  -2  -1  -4   10.74    0.39
   2   1   4   11.13    0.42
   2   1   4   10.94    0.42
  -3  -1  -4   76.29    1.78
  -3  -1  -4   78.25    1.72
  -3  -1  -4   75.68    3.13
  -3  -1  -4   75.74    1.61
   3   1   4   77.36    1.68
   3   1   4   76.73    1.71
  -4  -1  -4    2.54    0.66
  -4  -1  -4    1.77    0.25
  -4  -1  -4    1.75    0.23
   4   1   4    1.47    0.12
   4   1   4    2.04    0.23
   4   1   4    1.74    0.23
  -5  -1  -4    0.00    0.15
  -5  -1  -4   -0.02    0.11
  -5  -1  -4    0.04    0.36
   5   1   4    0.01    0.06
   5   1   4    0.00    0.11
   5   1   4    0.02    0.12
  -6  -1  -4    0.11    0.50
  -6  -1  -4    0.44    0.22
  -6  -1  -4    0.57    0.18
   6   1   4    0.31    0.16
  -7  -1  -4    0.39    0.27
  -7  -1  -4    0.78    0.78
   7   1   4    1.04    0.24
   7   1   4    0.74    0.12
  -8   2   4   10.45    0.77
  -7   2   4   20.76    1.02
  -6   2   4   68.77    1.88
  -6   2   4   68.20    2.00
   5  -2  -4   38.12    0.79
  -5   2   4   36.38    1.15
  -5   2   4   37.31    1.24
   4  -2  -4   58.92    1.19
   4  -2  -4   58.74    1.18
  -4   2   4   58.45    1.19
  -4   2   4   58.78    1.58
   3  -2  -4   70.02    1.39
  -3   2   4   65.46    1.58
  -3   2   4   67.97    1.66
  -2   2   4   24.53    0.71
  -1   2   4    5.83    0.26
   0   2   4  483.41    8.93
  -1  -2  -4   67.27    1.45
   1   2   4   68.16    1.47
   1   2   4   68.79    1.50
  -2  -2  -4    1.16    0.16
  -2  -2  -4    2.39    0.24
   2   2   4    1.64    0.19
   2   2   4    1.69    0.19
  -3  -2  -4    6.39    0.36
  -3  -2  -4    6.37    0.73
  -3  -2  -4    6.87    0.32
  -3  -2  -4    5.77    0.36
   3   2   4    7.26    0.37
   3   2   4    6.75    0.35
  -4  -2  -4    5.39    0.38
  -4  -2  -4    7.01    1.08
  -4  -2  -4    4.99    0.36
   4   2   4    4.74    0.21
   4   2   4    4.92    0.33
   4   2   4    5.42    0.34
  -5  -2  -4    0.70    0.18
  -5  -2  -4    0.79    0.55
  -5  -2  -4    0.61    0.21
   5   2   4    0.63    0.17
   5   2   4    0.48    0.17
  -6  -2  -4    5.46    0.42
  -6  -2  -4    5.38    0.54
  -6  -2  -4    4.68    1.02
   6   2   4    5.86    0.41
   6   2   4    5.67    0.24
  -7  -2  -4    2.98    1.03
  -7  -2  -4    3.17    0.35
   7   2   4    3.31    0.38
  -8   3   4    4.45    0.61
  -7   3   4   13.92    0.84
   6  -3  -4    2.97    0.19
  -6   3   4    2.20    0.33
  -6   3   4    3.07    0.43
   5  -3  -4    0.04    0.07
  -5   3   4   -0.03    0.06
  -5   3   4    0.03    0.12
  -5   3   4   -0.06    0.12
   4  -3  -4    4.20    0.22
  -4   3   4    4.24    0.36
  -4   3   4    3.97    0.22
  -4   3   4    4.01    0.32
   3  -3  -4    7.31    0.31
  -3   3   4    7.82    0.41
  -3   3   4    7.47    0.31
  -3   3   4    7.53    0.39
   1  -3  -4    7.10    0.30
  -1   3   4    6.82    0.30
   0  -3  -4  294.80    5.45
   0   3   4  288.14    5.44
   0   3   4  293.31    5.54
  -1  -3  -4    4.13    0.29
  -1  -3  -4    4.61    0.27
   1   3   4    4.40    0.28
   1   3   4    4.96    0.28
  -2  -3  -4   10.15    0.41
  -2  -3  -4   10.51    0.46
   2   3   4   10.32    0.44
   2   3   4   10.19    0.43
  -3  -3  -4    1.67    0.23
  -3  -3  -4    1.48    0.23
  -3  -3  -4    1.38    0.18
  -3  -3  -4    2.28    0.63
   3   3   4    1.20    0.19
   3   3   4    1.57    0.20
  -4  -3  -4   11.51    1.07
  -4  -3  -4   11.27    0.56
  -4  -3  -4   11.07    0.52
   4   3   4   10.77    0.34
   4   3   4   11.18    0.51
   4   3   4   10.57    0.49
  -5  -3  -4    0.05    0.14
  -5  -3  -4    0.61    0.54
  -5  -3  -4    0.22    0.17
   5   3   4   -0.14    0.11
   5   3   4    0.07    0.12
  -6  -3  -4    0.18    0.15
  -6  -3  -4    0.32    0.58
   6   3   4    0.13    0.15
  -7  -3  -4    2.30    1.06
  -7  -3  -4    2.27    0.32
   7   3   4    1.53    0.30
  -8   4   4    2.10    0.44
   7  -4  -4    0.18    0.11
  -7   4   4    0.42    0.21
  -7   4   4    0.45    0.24
   6  -4  -4   30.07    0.77
  -6   4   4   29.15    0.74
  -6   4   4   29.16    1.15
  -6   4   4   27.13    1.02
   5  -4  -4   15.64    0.50
  -5   4   4   15.62    0.50
  -5   4   4   15.03    0.73
  -5   4   4   14.94    0.67
   4  -4  -4  145.14    2.86
   4  -4  -4  142.88    2.80
  -4   4   4  138.32    3.23
  -4   4   4  146.98    2.87
  -4   4   4  143.21    3.07
   3  -4  -4    2.69    0.21
   3  -4  -4    2.72    0.22
  -3   4   4    2.63    0.27
  -3   4   4    2.69    0.22
  -3   4   4    2.94    0.29
   2  -4  -4   36.48    0.92
  -2   4   4   37.47    0.95
  -2   4   4   37.21    0.91
   1  -4  -4  170.79    3.36
  -1   4   4  175.01    3.45
  -1   4   4  172.15    3.41
   0  -4  -4    2.15    0.22
   0  -4  -4    2.28    0.24
   0   4   4    2.08    0.22
  -1  -4  -4    5.12    0.34
  -1  -4  -4    5.52    0.31
   1   4   4    5.58    0.33
  -2  -4  -4   19.85    0.69
  -2  -4  -4   19.48    0.63
  -2  -4  -4   17.65    0.61
   2   4   4   18.72    0.64
   2   4   4   19.20    0.67
  -3  -4  -4   50.07    2.46
  -3  -4  -4   49.28    1.32
  -3  -4  -4   50.20    1.21
  -3  -4  -4   47.87    1.29
   3   4   4   49.83    1.31
   3   4   4   48.09    1.26
  -4  -4  -4   19.05    1.46
  -4  -4  -4   19.65    0.79
  -4  -4  -4   19.75    0.74
   4   4   4   20.06    0.72
   4   4   4   18.61    0.73
  -5  -4  -4    1.24    0.23
  -5  -4  -4    1.39    0.69
   5   4   4    1.08    0.23
   5   4   4    1.16    0.23
  -6  -4  -4    2.08    0.86
  -6  -4  -4    2.67    0.34
   6   4   4    2.12    0.32
   8  -5  -4    0.38    0.16
  -8   5   4    0.25    0.26
   7  -5  -4   16.34    0.58
  -7   5   4   15.93    0.79
  -7   5   4   16.84    0.92
   6  -5  -4   14.73    0.53
  -6   5   4   15.15    0.53
  -6   5   4   14.22    0.79
  -6   5   4   15.26    0.72
   5  -5  -4   21.95    0.68
   5  -5  -4   21.56    0.65
  -5   5   4   22.42    0.67
  -5   5   4   19.63    0.86
  -5   5   4   19.51    0.79
   4  -5  -4   17.04    0.56
   4  -5  -4   16.77    0.58
  -4   5   4   16.77    0.71
  -4   5   4   16.63    0.66
  -4   5   4   16.74    0.58
   3  -5  -4    8.11    0.39
   3  -5  -4    7.42    0.24
   3  -5  -4    8.37    0.38
  -3   5   4    8.38    0.35
  -3   5   4    7.43    0.41
  -3   5   4    7.77    0.39
   2  -5  -4    5.22    0.31
  -2   5   4    4.80    0.29
  -2   5   4    5.31    0.33
   1  -5  -4   29.24    0.85
  -1   5   4   30.79    0.87
  -1   5   4   30.66    0.88
   0  -5  -4   62.48    1.46
   0  -5  -4   60.74    1.49
   0   5   4   63.48    1.51
   0   5   4   60.26    1.48
  -1  -5  -4    6.74    0.37
  -1  -5  -4    6.57    0.40
   1   5   4    7.24    0.40
   1   5   4    6.92    0.39
  -2  -5  -4    1.21    0.21
  -2  -5  -4    1.07    0.18
  -2  -5  -4    0.94    0.18
   2   5   4    1.22    0.21
  -3  -5  -4   -0.03    0.13
  -3  -5  -4   -0.33    0.28
  -3  -5  -4    0.00    0.12
  -3  -5  -4    0.14    0.12
   3   5   4   -0.08    0.12
  -4  -5  -4   16.11    1.35
  -4  -5  -4   14.47    0.67
   4   5   4   14.16    0.65
  -5  -5  -4    2.82    0.94
  -5  -5  -4    1.93    0.30
   5   5   4    1.99    0.30
  -6  -5  -4    9.17    1.33
  -6  -5  -4   10.04    0.58
   6   5   4    8.60    0.56
   8  -6  -4   -0.03    0.13
  -8   6   4    0.34    0.23
  -8   6   4    0.17    0.26
   7  -6  -4    0.03    0.13
  -7   6   4    0.26    0.14
  -7   6   4   -0.02    0.21
  -7   6   4    0.10    0.16
   6  -6  -4   34.70    1.00
  -6   6   4   34.14    1.28
  -6   6   4   35.27    0.99
  -6   6   4   34.08    1.17
   5  -6  -4    0.11    0.11
   5  -6  -4    0.12    0.13
  -5   6   4   -0.02    0.10
  -5   6   4    0.11    0.14
   4  -6  -4   32.91    0.68
   4  -6  -4   33.62    0.97
   4  -6  -4   33.38    0.94
  -4   6   4   32.45    0.96
  -4   6   4   33.83    1.04
   3  -6  -4    9.42    0.44
   3  -6  -4    9.19    0.32
   3  -6  -4    9.53    0.45
  -3   6   4    9.82    0.47
   2  -6  -4   57.89    1.39
  -2   6   4   55.38    1.42
  -2   6   4   57.61    1.40
   1  -6  -4    0.03    0.11
   1  -6  -4    0.07    0.12
  -1   6   4    0.00    0.10
  -1   6   4    0.29    0.13
   0  -6  -4   31.20    0.97
   0  -6  -4   33.30    0.95
   0   6   4   32.14    0.98
   0   6   4   32.48    0.97
  -1  -6  -4    0.34    0.13
  -1  -6  -4    0.28    0.14
   1   6   4   -0.01    0.12
   1   6   4    0.26    0.15
  -2  -6  -4    1.01    0.21
  -2  -6  -4    1.48    0.22
  -2  -6  -4    1.55    0.22
   2   6   4    1.21    0.22
  -3  -6  -4    8.60    0.98
  -3  -6  -4    8.56    0.53
  -3  -6  -4    8.44    0.50
   3   6   4    8.87    0.51
  -4  -6  -4   54.42    1.54
  -4  -6  -4   53.88    2.89
   4   6   4   54.93    1.55
  -5  -6  -4   37.22    2.45
  -5  -6  -4   37.16    1.19
   5   6   4   36.72    1.22
  -6  -6  -4    0.42    0.21
  -6  -6  -4   -0.13    0.62
   6   6   4    0.20    0.21
   8  -7  -4    8.41    0.49
  -8   7   4    9.06    0.63
   7  -7  -4    8.36    0.48
  -7   7   4    9.10    0.48
  -7   7   4    9.20    0.60
   6  -7  -4    1.24    0.12
   6  -7  -4    1.51    0.26
  -6   7   4    1.38    0.24
  -6   7   4    1.41    0.27
   5  -7  -4    0.36    0.15
   5  -7  -4    0.21    0.15
   5  -7  -4    0.31    0.10
  -5   7   4    0.73    0.20
  -5   7   4    0.23    0.14
   4  -7  -4   33.37    1.01
   4  -7  -4   32.84    0.97
   4  -7  -4   31.43    0.72
  -4   7   4   30.51    1.01
  -4   7   4   31.47    0.99
   3  -7  -4    1.26    0.22
   3  -7  -4    1.14    0.21
   3  -7  -4    1.48    0.17
  -3   7   4    0.76    0.19
   2  -7  -4   10.74    0.53
   2  -7  -4   11.48    0.53
  -2   7   4   12.10    0.53
  -2   7   4   10.23    0.52
   1  -7  -4   20.55    0.74
   1  -7  -4   19.51    0.77
  -1   7   4   22.77    0.80
  -1   7   4   20.67    0.75
   0  -7  -4    8.08    0.48
   0  -7  -4    8.24    0.45
   0   7   4    7.95    0.47
   0   7   4    8.53    0.47
  -1  -7  -4   11.60    0.55
  -1  -7  -4   11.69    0.59
   1   7   4   11.02    0.58
   1   7   4   11.76    0.58
  -2  -7  -4   55.11    1.51
  -2  -7  -4   53.33    1.40
  -2  -7  -4   50.14    1.44
  -2  -7  -4   52.57    2.65
   2   7   4   53.69    1.50
  -3  -7  -4   17.79    1.43
  -3  -7  -4   17.20    0.78
   3   7   4   18.50    0.79
  -4  -7  -4   11.97    0.67
  -4  -7  -4   12.80    1.32
   4   7   4   12.90    0.68
  -5  -7  -4   38.76    1.29
  -5  -7  -4   40.61    2.64
   5   7   4   37.88    1.31
   8  -8  -4   -0.10    0.10
   8  -8  -4   -0.02    0.16
  -8   8   4    0.10    0.15
   7  -8  -4    0.76    0.14
   7  -8  -4    0.37    0.19
  -7   8   4    0.86    0.21
  -7   8   4    0.38    0.21
   6  -8  -4   15.49    0.68
   6  -8  -4   15.16    0.46
   6  -8  -4   14.13    0.64
  -6   8   4   15.22    0.73
  -6   8   4   15.06    0.67
   5  -8  -4    0.05    0.11
   5  -8  -4    0.15    0.15
   5  -8  -4    0.24    0.16
  -5   8   4   -0.09    0.12
  -5   8   4   -0.01    0.13
   4  -8  -4    0.01    0.14
   4  -8  -4    0.47    0.13
   4  -8  -4    0.00    0.13
  -4   8   4    0.19    0.14
  -4   8   4    0.32    0.16
   3  -8  -4    2.54    0.32
   3  -8  -4    2.60    0.31
  -3   8   4    2.62    0.32
   2  -8  -4    9.89    0.53
   2  -8  -4   11.07    0.58
  -2   8   4   10.72    0.54
  -2   8   4   11.50    0.58
   1  -8  -4    3.64    0.37
   1  -8  -4    4.44    0.43
  -1   8   4    4.48    0.38
  -1   8   4    4.73    0.37
   0  -8  -4   21.45    0.80
   0  -8  -4   21.09    0.84
   0   8   4   19.97    0.81
   0   8   4   22.43    0.85
  -1  -8  -4    6.44    0.48
  -1  -8  -4    5.82    0.42
   1   8   4    6.48    0.48
   1   8   4    5.92    0.44
  -2  -8  -4   40.97    2.27
  -2  -8  -4   37.50    1.26
  -2  -8  -4   39.95    1.19
   2   8   4   39.62    1.28
  -3  -8  -4    3.39    0.43
  -3  -8  -4    4.81    1.07
   3   8   4    3.57    0.42
  -4  -8  -4    8.69    0.60
  -4  -8  -4    9.12    1.16
   4   8   4    7.88    0.56
  -5  -8  -4    6.50    0.55
  -5  -8  -4    4.56    1.11
   5   8   4    6.91    0.55
   8  -9  -4    1.87    0.22
   8  -9  -4    1.14    0.28
  -8   9   4    1.45    0.28
   7  -9  -4    0.07    0.18
   7  -9  -4   -0.23    0.11
  -7   9   4    0.00    0.15
   6  -9  -4    0.33    0.18
   6  -9  -4    0.29    0.18
   6  -9  -4    0.41    0.14
  -6   9   4    0.47    0.19
  -6   9   4    0.04    0.17
   5  -9  -4    2.54    0.34
   5  -9  -4    2.29    0.33
   5  -9  -4    2.58    0.24
  -5   9   4    2.18    0.32
  -5   9   4    2.87    0.37
   4  -9  -4    7.47    0.50
   4  -9  -4    9.08    0.53
  -4   9   4    7.99    0.49
  -4   9   4    8.34    0.52
   3  -9  -4    4.28    0.43
   3  -9  -4    4.61    0.44
  -3   9   4    3.93    0.42
   2  -9  -4   22.29    0.91
   2  -9  -4   23.41    0.89
  -2   9   4   27.26    0.97
  -2   9   4   24.57    0.90
   1  -9  -4    9.15    0.53
   1  -9  -4    9.20    0.57
  -1   9   4    8.88    0.55
  -1   9   4    8.60    0.53
   0  -9  -4    9.57    0.59
   0  -9  -4    8.02    0.51
   0   9   4    7.74    0.52
   0   9   4    7.84    0.52
  -1  -9  -4   19.07    0.85
  -1  -9  -4   18.90    0.78
   1   9   4   18.86    0.83
  -2  -9  -4    1.11    0.25
  -2  -9  -4    0.69    0.24
  -2  -9  -4    1.26    0.60
   2   9   4    0.57    0.22
  -3  -9  -4    7.29    1.31
  -3  -9  -4    5.69    0.56
   3   9   4    5.85    0.49
  -4  -9  -4    1.43    0.74
  -4  -9  -4    3.37    0.46
   4   9   4    2.72    0.41
   7 -10  -4   21.32    0.93
   7 -10  -4   21.78    0.67
  -7  10   4   20.54    0.88
   6 -10  -4   31.08    1.09
   6 -10  -4   27.70    1.09
   6 -10  -4   31.95    0.84
  -6  10   4   29.26    1.09
   5 -10  -4    0.22    0.18
   5 -10  -4    0.25    0.19
  -5  10   4   -0.11    0.15
  -5  10   4    0.13    0.17
   4 -10  -4    8.30    0.55
   4 -10  -4    7.67    0.53
  -4  10   4    7.81    0.54
   3 -10  -4    3.99    0.43
  -3  10   4    3.97    0.44
   2 -10  -4    0.26    0.21
   2 -10  -4   -0.08    0.14
  -2  10   4    0.21    0.17
  -2  10   4    0.12    0.16
   1 -10  -4    9.36    0.57
   1 -10  -4    9.93    0.62
  -1  10   4    9.84    0.61
  -1  10   4    9.46    0.58
   0 -10  -4    1.51    0.31
   0 -10  -4    1.37    0.28
   0  10   4    0.85    0.23
   0  10   4    1.49    0.29
  -1 -10  -4   12.85    0.66
  -1 -10  -4   12.31    1.18
  -1 -10  -4   11.95    0.71
   1  10   4   12.33    0.70
  -2 -10  -4    0.68    0.27
  -2 -10  -4    0.60    0.22
  -2 -10  -4    1.24    0.67
   2  10   4    1.10    0.27
  -3 -10  -4    0.42    0.59
  -3 -10  -4    0.43    0.23
   3  10   4    0.70    0.27
   7 -11  -4    0.25    0.23
   7 -11  -4   -0.01    0.20
  -7  11   4    0.10    0.18
   6 -11  -4    0.16    0.21
   6 -11  -4   -0.17    0.18
  -6  11   4   -0.08    0.16
   5 -11  -4    8.45    0.58
   5 -11  -4    8.36    0.58
  -5  11   4    7.34    0.55
   4 -11  -4    0.69    0.25
   4 -11  -4    0.64    0.23
  -4  11   4    0.67    0.22
   3 -11  -4   22.96    0.95
  -3  11   4   22.13    0.96
   2 -11  -4    1.94    0.34
   2 -11  -4    2.30    0.39
  -2  11   4    2.04    0.36
   1 -11  -4   19.55    0.93
   1 -11  -4   20.31    0.89
  -1  11   4   20.40    0.91
  -1  11   4   20.79    0.94
   0 -11  -4    0.06    0.18
   0 -11  -4   -0.04    0.19
   0  11   4   -0.36    0.16
   0  11   4    0.01    0.18
  -1 -11  -4    1.39    0.68
  -1 -11  -4    1.60    0.30
  -1 -11  -4    1.39    0.33
   1  11   4    1.30    0.31
  -2 -11  -4    2.88    0.90
  -2 -11  -4    2.95    0.45
   2  11   4    2.76    0.42
   6 -12  -4   14.20    0.80
   6 -12  -4   13.15    0.77
  -6  12   4   14.08    0.79
   5 -12  -4   12.01    0.72
   5 -12  -4   10.48    0.69
  -5  12   4   10.33    0.68
   4 -12  -4    0.06    0.19
  -4  12   4    0.02    0.18
   3 -12  -4    7.29    0.56
  -3  12   4    7.14    0.58
   2 -12  -4    0.24    0.21
   2 -12  -4    0.19    0.24
  -2  12   4   -0.11    0.17
   1 -12  -4   18.15    0.87
   1 -12  -4   18.24    0.92
  -1  12   4   17.84    0.88
  -1  12   4   15.09    0.85
   0 -12  -4    2.51    0.42
   0 -12  -4    2.19    0.38
   0  12   4    2.26    0.38
  -1 -12  -4    5.94    0.59
  -1 -12  -4    4.28    0.53
   1  12   4    5.17    0.57
   5 -13  -4   12.31    0.76
  -5  13   4   10.33    0.73
   4 -13  -4   37.14    1.37
  -4  13   4   34.98    1.37
   3 -13  -4    5.87    0.60
  -3  13   4    5.25    0.60
   2 -13  -4   -0.12    0.18
   2 -13  -4    0.15    0.24
  -2  13   4    0.09    0.21
   1 -13  -4    1.17    0.34
   1 -13  -4    0.59    0.26
  -1  13   4    0.93    0.32
   0 -13  -4    0.23    0.22
   0 -13  -4   -0.02    0.23
   0  13   4   -0.14    0.21
   0 -13   5    1.19    0.33
   0 -13   5    1.82    0.41
   1 -13   5   15.45    0.90
   1 -13   5   15.58    0.86
  -2  13  -5   27.30    1.22
   2 -13   5   26.70    1.20
   2 -13   5   27.12    1.17
  -3  13  -5    2.34    0.45
   3 -13   5    2.65    0.44
   3 -13   5    2.31    0.44
  -4  13  -5    2.15    0.42
   4 -13   5    1.75    0.39
   4 -13   5    2.05    0.43
  -2 -12   5    1.19    0.34
  -1 -12   5   -0.11    0.23
   0 -12   5    4.21    0.52
   0 -12   5    5.97    0.58
   1 -12   5    0.40    0.25
   1 -12   5    0.06    0.20
  -2  12  -5    0.04    0.21
   2 -12   5    0.14    0.21
   2 -12   5    0.24    0.24
  -3  12  -5    4.20    0.54
   3 -12   5    5.01    0.56
   3 -12   5    4.66    0.56
   3 -12   5    5.15    0.58
  -4  12  -5    0.77    0.29
   4 -12   5    0.52    0.27
   4 -12   5    0.79    0.30
  -5  12  -5   27.13    1.22
   5 -12   5   29.54    1.22
   5 -12   5   28.71    1.22
  -3 -11   5   17.02    1.03
  -3 -11   5   17.67    0.89
  -2 -11   5   10.28    0.69
  -1 -11   5    4.86    0.54
  -1 -11   5    4.65    0.48
   0 -11   5    1.97    0.33
   0 -11   5    1.66    0.34
  -1  11  -5   23.19    1.02
   1 -11   5   24.66    0.99
   1 -11   5   22.82    1.00
  -2  11  -5    7.23    0.56
   2 -11   5    7.19    0.54
   2 -11   5    7.22    0.55
   2 -11   5    7.00    0.58
  -3  11  -5   22.87    1.02
   3 -11   5   19.95    0.93
   3 -11   5   21.64    0.98
   3 -11   5   23.00    1.01
  -4  11  -5    7.52    0.60
   4 -11   5    5.91    0.58
   4 -11   5    5.56    0.58
  -5  11  -5    1.94    0.38
   5 -11   5    2.55    0.42
   5 -11   5    1.38    0.31
  -6  11  -5    7.84    0.64
   6 -11   5    9.31    0.67
   6 -11   5    7.58    0.63
  -4 -10   5   16.83    0.80
  -4 -10   5   15.90    1.01
  -3 -10   5    4.88    0.50
  -3 -10   5    5.69    0.66
  -2 -10   5   12.31    0.70
  -1 -10   5   10.16    0.59
  -1 -10   5   11.51    0.67
   0 -10   5   65.79    1.84
   0 -10   5   62.77    1.74
  -1  10  -5   12.58    0.70
   1 -10   5   14.81    0.76
   1 -10   5   13.64    0.71
   1 -10   5   13.36    0.69
  -2  10  -5   14.28    0.75
   2 -10   5   13.69    0.74
   2 -10   5   13.69    0.72
   2 -10   5   14.24    0.71
  -3  10  -5    0.87    0.24
   3 -10   5    0.62    0.26
   3 -10   5    0.26    0.20
   3 -10   5    0.14    0.19
  -4  10  -5   12.25    0.72
   4 -10   5   11.49    0.68
   4 -10   5   10.55    0.66
  -5  10  -5   11.22    0.72
   5 -10   5   13.66    0.74
   5 -10   5   11.42    0.70
  -6  10  -5    1.67    0.35
   6 -10   5    1.58    0.34
   6 -10   5    1.33    0.29
  -5  -9   5    2.54    0.92
  -5  -9   5    2.56    0.35
  -5  -9   5    2.54    0.49
  -4  -9   5    7.00    0.51
  -4  -9   5    7.14    0.76
  -4  -9   5    4.27    1.01
  -3  -9   5   15.96    0.90
  -3  -9   5   15.60    0.75
  -3  -9   5   12.47    1.29
  -2  -9   5    2.02    0.34
  -1  -9   5   45.67    1.31
   0   9  -5   13.11    0.66
   0  -9   5   14.10    0.66
   0  -9   5   12.89    0.69
  -1   9  -5   75.13    1.99
   1  -9   5   74.48    1.98
   1  -9   5   76.20    1.92
   1  -9   5   74.51    1.94
  -2   9  -5   19.01    0.85
   2  -9   5   20.67    0.84
   2  -9   5   19.54    0.81
   2  -9   5   19.46    0.85
  -3   9  -5    3.68    0.43
   3  -9   5    4.34    0.45
   3  -9   5    3.72    0.42
   3  -9   5    4.60    0.46
  -4   9  -5    0.75    0.25
   4  -9   5    1.27    0.27
   4  -9   5    0.51    0.21
  -5   9  -5    0.87    0.26
   5  -9   5    0.82    0.25
   5  -9   5    1.17    0.29
  -6   9  -5    8.94    0.62
   6  -9   5    9.68    0.61
   6  -9   5    9.05    0.61
  -7   9  -5   11.32    0.71
   7  -9   5   11.45    0.71
   7  -9   5   11.04    0.68
  -5  -8   5   16.92    0.72
  -5  -8   5   15.61    1.62
  -5  -8   5   14.83    0.93
  -4  -8   5   13.62    0.66
  -4  -8   5   12.41    1.34
  -4  -8   5   12.83    0.84
  -3  -8   5   -0.04    0.15
  -3  -8   5   -0.09    0.17
  -3  -8   5   -0.14    0.47
  -2  -8   5    0.23    0.17
  -2  -8   5   -0.06    0.43
  -1  -8   5   17.20    0.75
  -1  -8   5   17.80    0.69
   0   8  -5   64.41    1.73
   0  -8   5   68.35    1.77
   0  -8   5   66.60    1.69
   0  -8   5   69.12    1.73
  -1   8  -5    9.49    0.53
   1  -8   5    8.28    0.49
   1  -8   5    7.77    0.50
   1  -8   5    7.60    0.47
  -2   8  -5   31.48    1.09
   2  -8   5   33.03    1.09
   2  -8   5   32.61    1.07
   2  -8   5   31.28    1.04
  -3   8  -5   22.58    0.90
   3  -8   5   23.72    0.90
   3  -8   5   24.25    0.91
   3  -8   5   22.27    0.87
  -4   8  -5   36.66    1.22
   4  -8   5   35.77    1.20
   4  -8   5   36.56    1.17
  -5   8  -5   12.06    0.67
   5  -8   5   13.28    0.69
   5  -8   5   12.71    0.66
  -6   8  -5    5.39    0.54
   6  -8   5    4.42    0.48
   6  -8   5    4.92    0.50
  -7   8  -5    1.27    0.29
   7  -8   5    2.41    0.38
   7  -8   5    2.44    0.37
  -6  -7   5    4.84    0.40
  -6  -7   5    5.70    1.33
  -6  -7   5    5.09    0.67
  -5  -7   5    0.43    0.65
  -5  -7   5    0.04    0.14
  -5  -7   5    0.33    0.26
  -4  -7   5    2.88    0.84
  -4  -7   5    3.29    0.48
  -4  -7   5    3.39    0.36
  -3  -7   5    9.58    0.64
  -3  -7   5   10.13    1.06
  -3  -7   5    9.91    0.52
  -2  -7   5   -0.08    0.38
  -2  -7   5    0.10    0.12
  -2  -7   5    0.05    0.12
  -1  -7   5    2.74    0.32
  -1  -7   5    3.21    0.32
   0   7  -5    0.62    0.17
   0  -7   5    0.75    0.18
   0  -7   5    0.81    0.19
   0  -7   5    0.78    0.19
  -1   7  -5    2.07    0.29
   1  -7   5    1.53    0.26
   1  -7   5    1.66    0.26
   1  -7   5    1.73    0.25
  -2   7  -5   30.47    1.00
   2  -7   5   28.87    0.97
   2  -7   5   30.41    0.95
   2  -7   5   27.52    0.95
  -3   7  -5   15.93    0.70
   3  -7   5   14.06    0.64
   3  -7   5   15.60    0.67
   3  -7   5   13.86    0.63
  -4   7  -5   49.46    1.44
   4  -7   5   49.82    1.42
   4  -7   5   49.53    1.40
  -5   7  -5    4.39    0.43
   5  -7   5    3.18    0.36
   5  -7   5    4.00    0.41
  -6   7  -5    5.49    0.46
   6  -7   5    4.76    0.48
   6  -7   5    5.86    0.46
  -7   7  -5   14.81    0.75
   7  -7   5   16.12    0.79
   7  -7   5   16.59    0.78
  -6  -6   5    0.16    0.26
  -6  -6   5    0.45    0.79
  -5  -6   5    9.30    0.72
  -5  -6   5    9.46    0.48
  -5  -6   5   11.87    1.29
  -4  -6   5    4.41    1.00
  -4  -6   5    3.53    0.48
  -4  -6   5    2.69    0.31
  -3  -6   5    5.39    0.78
  -3  -6   5    5.26    0.48
  -3  -6   5    5.40    0.37
  -2  -6   5    0.17    0.13
  -2  -6   5   -0.01    0.10
  -2  -6   5    0.27    0.39
  -1  -6   5    2.07    0.25
  -1  -6   5    1.97    0.25
  -1  -6   5    1.74    0.22
   0   6  -5   18.84    0.69
   0  -6   5   18.11    0.66
   0  -6   5   17.13    0.64
   0  -6   5   18.39    0.68
  -1   6  -5   20.63    0.74
   1  -6   5   19.89    0.72
   1  -6   5   19.72    0.70
   1  -6   5   20.56    0.74
  -2   6  -5    3.44    0.34
   2  -6   5    3.24    0.34
   2  -6   5    3.88    0.32
   2  -6   5    3.96    0.32
  -3   6  -5   19.54    0.74
   3  -6   5   19.28    0.74
   3  -6   5   17.68    0.72
   3  -6   5   18.29    0.70
  -4   6  -5    3.99    0.40
   4  -6   5    4.79    0.37
   4  -6   5    4.79    0.38
  -5   6  -5   21.61    0.84
   5  -6   5   22.56    0.83
   5  -6   5   21.80    0.84
  -6   6  -5    5.43    0.44
   6  -6   5    4.55    0.45
   6  -6   5    5.60    0.43
  -7   6  -5    0.19    0.17
   7  -6   5    0.25    0.19
  -7  -5   5    1.51    0.43
  -6  -5   5    4.67    1.18
  -5  -5   5    7.07    0.61
  -5  -5   5    7.35    0.39
  -5  -5   5    7.63    1.04
  -4  -5   5    2.16    0.36
  -4  -5   5    2.08    0.24
  -4  -5   5    3.29    0.86
  -3  -5   5    0.44    0.14
  -3  -5   5    0.18    0.17
  -3  -5   5    0.51    0.48
  -2  -5   5   50.18    1.16
  -2  -5   5   50.11    1.26
  -1  -5   5   20.03    0.65
  -1  -5   5   20.46    0.69
  -1  -5   5   21.20    0.64
   0  -5   5   44.36    1.17
   0  -5   5   44.40    1.12
   0  -5   5   43.54    1.13
  -1   5  -5   12.99    0.54
   1  -5   5   13.90    0.54
   1  -5   5   13.64    0.54
   1  -5   5   14.16    0.56
  -2   5  -5   19.18    0.70
   2  -5   5   20.34    0.71
   2  -5   5   20.40    0.69
   2  -5   5   20.34    0.71
  -3   5  -5    8.32    0.46
   3  -5   5    7.74    0.44
   3  -5   5    7.61    0.42
  -4   5  -5    0.07    0.12
   4  -5   5    0.25    0.14
   4  -5   5    0.22    0.14
  -5   5  -5   67.28    1.76
   5  -5   5   67.01    1.74
   5  -5   5   71.51    1.72
  -6   5  -5   48.11    1.39
   6  -5   5   49.53    1.37
   6  -5   5   45.52    1.37
  -7   5  -5    9.03    0.53
   7  -5   5    9.21    0.56
  -7  -4   5    2.97    0.54
  -6  -4   5    3.30    1.06
  -6  -4   5    1.89    0.40
  -5  -4   5    2.23    0.22
  -5  -4   5    4.06    1.02
  -5  -4   5    2.14    0.38
  -4  -4   5   16.22    1.33
  -4  -4   5   14.88    0.53
  -4  -4   5   16.16    0.78
  -3  -4   5   21.70    0.67
  -3  -4   5   25.20    1.50
  -3  -4   5   21.67    0.88
  -2  -4   5   40.95    1.22
  -2  -4   5   41.53    1.04
  -1  -4   5    7.57    0.37
  -1  -4   5    6.73    0.33
  -1  -4   5    7.33    0.33
   0  -4   5   45.76    1.14
   0  -4   5   47.49    1.17
   0  -4   5   47.20    1.13
  -1   4  -5    0.46    0.14
   1  -4   5    0.53    0.15
   1  -4   5    0.58    0.15
   1  -4   5    0.60    0.14
  -2   4  -5    3.05    0.29
   2  -4   5    3.42    0.28
   2  -4   5    3.25    0.27
  -3   4  -5    6.80    0.39
  -3   4  -5    6.05    0.49
   3  -4   5    6.36    0.37
   3  -4   5    6.43    0.38
  -4   4  -5   32.45    0.91
  -4   4  -5   33.85    1.57
  -4   4  -5   32.40    1.00
   4  -4   5   32.07    0.97
   4  -4   5   33.53    1.00
  -5   4  -5    5.41    0.39
   5  -4   5    5.01    0.38
   5  -4   5    5.15    0.37
  -6   4  -5    1.82    0.28
   6  -4   5    1.86    0.28
   6  -4   5    1.69    0.27
  -7   4  -5    1.92    0.31
   7  -4   5    1.74    0.30
  -8   4  -5    2.45    0.33
   8  -4   5    1.81    0.32
  -7  -3   5    7.82    0.70
  -6  -3   5    1.67    0.37
  -5  -3   5   39.63    0.93
  -5  -3   5   41.97    1.43
  -4  -3   5   33.09    1.18
  -4  -3   5   34.63    0.84
  -3  -3   5    7.93    0.49
  -3  -3   5    7.92    0.33
  -2  -3   5   13.96    0.59
  -2  -3   5   14.21    0.48
  -1  -3   5  108.12    2.23
  -1  -3   5  106.61    2.18
   0  -3   5   51.30    1.18
   0  -3   5   50.91    1.21
   0  -3   5   53.20    1.09
   1  -3   5   57.17    1.32
   1  -3   5   58.11    1.35
   2  -3   5  134.24    2.72
   2  -3   5  132.94    2.77
  -3   3  -5   14.73    0.52
  -3   3  -5   13.97    0.84
   3  -3   5   14.88    0.57
   3  -3   5   14.43    0.55
  -4   3  -5   26.12    1.39
  -4   3  -5   27.30    0.78
   4  -3   5   26.93    0.84
   4  -3   5   27.92    0.87
  -5   3  -5   10.69    0.97
   5  -3   5   11.07    0.53
   5  -3   5   11.13    0.53
  -6   3  -5   13.18    0.61
  -6   3  -5   12.95    1.18
   6  -3   5   14.99    0.63
   6  -3   5   13.84    0.64
  -7   3  -5    3.70    0.39
   7  -3   5    4.64    0.44
  -8   3  -5    3.60    0.39
   8  -3   5    2.86    0.37
  -8  -2   5    1.11    0.39
  -7  -2   5    8.92    0.70
  -6  -2   5    1.53    0.35
  -5  -2   5    1.81    0.34
  -4  -2   5    0.45    0.10
  -4  -2   5    0.41    0.18
  -3  -2   5    3.26    0.34
  -3  -2   5    2.86    0.19
  -2  -2   5   28.64    0.88
  -2  -2   5   28.93    0.73
  -2  -2   5   27.87    0.81
  -1  -2   5   80.87    1.65
  -1  -2   5   79.13    1.68
   0  -2   5    1.23    0.16
   0  -2   5    1.34    0.16
   0  -2   5    1.07    0.12
   1  -2   5    7.66    0.34
   1  -2   5    7.52    0.35
  -2   2  -5   27.72    0.75
   2  -2   5   25.74    0.77
   2  -2   5   28.46    0.78
  -3   2  -5    0.01    0.09
  -3   2  -5   -0.05    0.20
   3  -2   5   -0.04    0.10
   3  -2   5    0.04    0.09
  -4   2  -5   36.29    0.94
  -4   2  -5   36.99    1.81
   4  -2   5   38.41    1.06
   4  -2   5   37.68    0.78
   4  -2   5   37.40    1.03
  -5   2  -5   20.49    1.39
  -5   2  -5   19.93    0.82
   5  -2   5   21.34    0.76
   5  -2   5   19.40    0.72
   5  -2   5   21.42    0.52
  -6   2  -5   11.47    0.65
  -6   2  -5   10.18    1.15
   6  -2   5   10.56    0.55
   6  -2   5   10.79    0.54
  -7   2  -5   -0.01    0.19
  -7   2  -5   -0.28    0.53
   7  -2   5    0.31    0.18
  -8  -1   5   10.06    0.80
  -7  -1   5    4.32    0.57
  -6  -1   5    0.42    0.22
  -5  -1   5    4.09    0.46
  -4  -1   5   33.88    0.73
  -4  -1   5   33.35    1.12
  -3  -1   5   18.59    0.66
  -3  -1   5   17.32    0.47
  -3  -1   5   18.24    0.69
  -2  -1   5   16.75    0.56
  -2  -1   5   16.10    0.58
  -1  -1   5    0.22    0.09
  -1  -1   5    0.19    0.09
   0  -1   5   58.10    1.28
  -1   1  -5    2.06    0.19
   1  -1   5    1.88    0.19
   1  -1   5    2.08    0.21
  -2   1  -5    4.55    0.28
  -2   1  -5    4.65    0.31
   2  -1   5    5.41    0.31
   2  -1   5    5.30    0.30
  -3   1  -5   26.48    0.80
  -3   1  -5   27.16    0.74
  -3   1  -5   26.36    1.40
  -3   1  -5   25.94    0.78
   3  -1   5   27.09    0.78
   3  -1   5   26.25    0.79
  -4   1  -5   14.16    0.49
  -4   1  -5   14.38    1.04
  -4   1  -5   13.48    0.58
   4  -1   5   13.73    0.56
   4  -1   5   14.11    0.38
   4  -1   5   13.58    0.54
  -5   1  -5   32.46    1.85
  -5   1  -5   31.34    1.06
   5  -1   5   31.66    0.98
   5  -1   5   30.60    0.95
   5  -1   5   32.53    0.69
  -6   1  -5    0.32    0.19
  -6   1  -5    0.28    0.50
   6  -1   5    1.05    0.22
  -7   1  -5    1.63    0.80
  -7   1  -5    1.47    0.33
   7  -1   5    1.45    0.27
  -8   0   5    7.05    0.76
  -7   0   5    0.70    0.29
  -6   0   5   25.40    1.09
  -5   0   5   27.69    1.04
   4   0  -5    4.13    0.16
  -4   0   5    4.21    0.42
  -4   0   5    4.73    0.36
  -3   0   5    2.49    0.27
  -3   0   5    2.35    0.28
  -2   0   5   33.53    0.89
  -1   0   5   22.15    0.61
  -1   0   5   21.12    0.56
   0   0   5    0.02    0.09
  -1   0  -5   18.58    0.56
   1   0   5   18.36    0.58
   1   0   5   18.69    0.56
  -2   0  -5   43.17    1.03
  -2   0  -5   42.09    1.08
   2   0   5   43.47    1.05
   2   0   5   41.80    1.07
  -3   0  -5   66.35    1.55
  -3   0  -5   64.38    1.45
  -3   0  -5   64.50    1.55
   3   0   5   66.44    1.51
   3   0   5   65.94    1.54
  -4   0  -5    0.02    0.26
  -4   0  -5   -0.11    0.11
  -4   0  -5    0.26    0.14
   4   0   5    0.17    0.08
   4   0   5    0.15    0.12
   4   0   5   -0.06    0.10
  -5   0  -5    5.03    0.39
  -5   0  -5    4.94    0.41
  -5   0  -5    5.59    0.79
   5   0   5    5.55    0.37
   5   0   5    5.13    0.24
   5   0   5    4.79    0.36
  -6   0  -5    0.21    0.50
  -6   0  -5    0.26    0.21
   6   0   5    0.26    0.15
  -7   0  -5    1.06    0.81
   7   0   5    0.74    0.22
  -8   1   5    0.89    0.34
  -7   1   5    7.65    0.63
  -6   1   5    0.18    0.20
  -5   1   5   -0.04    0.12
  -5   1   5    0.04    0.15
   4  -1  -5    3.19    0.15
  -4   1   5    3.22    0.16
  -4   1   5    3.93    0.36
  -4   1   5    2.84    0.31
  -3   1   5   47.30    1.21
  -3   1   5   45.05    1.23
  -2   1   5   88.83    1.93
  -1   1   5   -0.05    0.07
   0  -1  -5    2.15    0.19
   0   1   5    2.13    0.19
   0   1   5    1.95    0.19
  -1  -1  -5   30.29    0.80
   1   1   5   32.49    0.82
   1   1   5   31.37    0.84
  -2  -1  -5   42.10    1.08
  -2  -1  -5   42.16    1.03
   2   1   5   41.75    1.08
   2   1   5   43.43    1.06
  -3  -1  -5    2.03    0.20
  -3  -1  -5    2.09    0.22
  -3  -1  -5    2.60    0.26
   3   1   5    2.73    0.27
   3   1   5    2.07    0.24
  -4  -1  -5    0.80    0.18
  -4  -1  -5    0.73    0.18
  -4  -1  -5    1.17    0.51
   4   1   5    0.76    0.16
   4   1   5    0.45    0.10
   4   1   5    0.41    0.15
  -5  -1  -5    4.23    0.91
  -5  -1  -5    2.77    0.35
  -5  -1  -5    2.71    0.31
   5   1   5    3.03    0.33
   5   1   5    3.09    0.32
  -6  -1  -5   13.54    1.40
  -6  -1  -5   15.69    0.67
   6   1   5   14.40    0.65
  -7  -1  -5    2.61    0.95
   7   1   5    4.61    0.44
  -8   2   5    5.25    0.63
  -7   2   5    1.81    0.39
  -6   2   5    2.53    0.40
  -6   2   5    1.73    0.30
   5  -2  -5    2.94    0.16
  -5   2   5    2.71    0.36
  -5   2   5    2.93    0.36
   4  -2  -5   13.31    0.38
  -4   2   5   13.45    0.61
  -4   2   5   13.48    0.59
  -4   2   5   12.89    0.39
  -3   2   5    0.03    0.10
  -3   2   5    0.11    0.07
  -3   2   5   -0.06    0.09
  -2   2   5  143.88    2.95
   1  -2  -5   98.05    1.99
  -1   2   5   98.98    2.02
   0  -2  -5   78.69    1.65
   0   2   5   76.19    1.64
   0   2   5   78.64    1.69
  -1  -2  -5   45.98    1.10
   1   2   5   46.31    1.10
   1   2   5   45.63    1.13
  -2  -2  -5   12.23    0.45
  -2  -2  -5   11.73    0.50
   2   2   5   11.90    0.49
   2   2   5   12.28    0.48
  -3  -2  -5   29.67    0.87
  -3  -2  -5   30.28    0.83
  -3  -2  -5   29.00    0.89
   3   2   5   31.64    0.91
   3   2   5   30.75    0.88
  -4  -2  -5   27.19    0.90
  -4  -2  -5   26.06    1.67
  -4  -2  -5   27.19    0.88
   4   2   5   26.76    0.88
   4   2   5   27.54    0.86
  -5  -2  -5    4.55    0.38
  -5  -2  -5    4.83    1.02
   5   2   5    3.66    0.36
   5   2   5    3.54    0.36
  -6  -2  -5    0.04    0.56
  -6  -2  -5    0.08    0.16
   6   2   5   -0.10    0.13
  -7  -2  -5   14.01    0.65
  -7  -2  -5    9.83    1.46
   7   2   5   11.62    0.63
  -8   3   5    6.00    0.70
  -7   3   5    2.75    0.41
  -7   3   5    3.25    0.48
   6  -3  -5    2.26    0.18
  -6   3   5    1.42    0.29
  -6   3   5    1.93    0.35
   5  -3  -5    0.24    0.09
  -5   3   5    0.43    0.17
  -5   3   5    0.25    0.09
  -5   3   5    0.31    0.16
   4  -3  -5  119.21    2.29
  -4   3   5  112.83    2.54
  -4   3   5  109.06    2.63
  -4   3   5  110.79    2.26
   3  -3  -5  110.04    2.14
  -3   3   5  106.82    2.43
  -3   3   5  105.89    2.36
  -3   3   5  105.67    2.18
   2  -3  -5    1.20    0.16
  -2   3   5    0.93    0.15
  -2   3   5    1.42    0.16
   1  -3  -5   34.14    0.86
  -1   3   5   33.60    0.88
  -1   3   5   32.89    0.86
   0  -3  -5    1.18    0.17
   0   3   5    1.38    0.18
   0   3   5    0.75    0.15
  -1  -3  -5    0.23    0.11
  -1  -3  -5    0.47    0.13
   1   3   5    0.25    0.11
   1   3   5    0.33    0.12
  -2  -3  -5  112.54    2.45
  -2  -3  -5  113.71    2.36
   2   3   5  114.07    2.39
   2   3   5  113.56    2.44
  -3  -3  -5    3.95    0.33
  -3  -3  -5    4.94    0.31
  -3  -3  -5    4.27    0.31
   3   3   5    3.48    0.29
   3   3   5    3.86    0.31
  -4  -3  -5   41.72    1.20
  -4  -3  -5   43.93    2.35
   4   3   5   43.21    1.19
   4   3   5   43.10    1.23
  -5  -3  -5    2.72    0.87
  -5  -3  -5    1.78    0.29
   5   3   5    1.76    0.28
   5   3   5    1.75    0.26
  -6  -3  -5    4.87    0.45
  -6  -3  -5    5.31    1.18
   6   3   5    4.97    0.42
  -8   4   5    0.50    0.30
   7  -4  -5   28.86    0.79
  -7   4   5   29.53    1.14
  -7   4   5   31.66    1.28
   6  -4  -5   45.49    1.08
  -6   4   5   43.85    1.39
  -6   4   5   43.91    1.03
  -6   4   5   45.01    1.51
   5  -4  -5   -0.03    0.08
  -5   4   5    0.18    0.14
  -5   4   5    0.05    0.08
  -5   4   5   -0.09    0.14
   4  -4  -5    6.45    0.31
   4  -4  -5    7.03    0.34
  -4   4   5    6.45    0.32
  -4   4   5    6.37    0.41
  -4   4   5    6.90    0.45
   3  -4  -5   21.15    0.63
  -3   4   5   21.40    0.74
  -3   4   5   22.63    0.74
  -3   4   5   21.49    0.66
   2  -4  -5    1.19    0.17
  -2   4   5    1.25    0.17
  -2   4   5    1.00    0.17
   1  -4  -5   17.58    0.59
  -1   4   5   18.07    0.59
  -1   4   5   17.97    0.61
   0  -4  -5    4.48    0.34
   0  -4  -5    5.37    0.32
   0   4   5    5.54    0.33
   0   4   5    5.32    0.32
  -1  -4  -5    0.15    0.10
  -1  -4  -5    0.27    0.13
   1   4   5    0.42    0.14
   1   4   5    0.17    0.10
  -2  -4  -5   32.60    0.93
  -2  -4  -5   34.44    1.01
   2   4   5   34.16    1.00
   2   4   5   34.04    0.98
  -3  -4  -5   42.81    1.22
  -3  -4  -5   47.12    2.37
  -3  -4  -5   43.82    1.13
   3   4   5   41.35    1.21
   3   4   5   42.72    1.19
  -4  -4  -5   15.41    0.67
  -4  -4  -5   14.64    1.29
   4   4   5   15.53    0.64
   4   4   5   13.74    0.63
  -5  -4  -5    7.23    1.31
  -5  -4  -5    4.58    0.43
   5   4   5    4.79    0.40
   5   4   5    4.87    0.40
  -6  -4  -5    6.74    0.49
  -6  -4  -5    6.09    1.29
   6   4   5    5.82    0.48
  -8   5   5   17.72    1.02
  -8   5   5   18.60    0.94
   7  -5  -5    0.17    0.13
  -7   5   5    0.30    0.22
  -7   5   5   -0.01    0.17
   6  -5  -5   29.16    0.84
  -6   5   5   29.90    1.17
  -6   5   5   28.31    1.05
  -6   5   5   29.97    0.82
   5  -5  -5   17.39    0.60
   5  -5  -5   16.03    0.56
  -5   5   5   16.93    0.58
  -5   5   5   16.29    0.78
  -5   5   5   17.02    0.74
   4  -5  -5   28.41    0.84
   4  -5  -5   29.24    0.82
  -4   5   5   28.93    0.95
  -4   5   5   28.08    0.98
  -4   5   5   28.51    0.83
   3  -5  -5   60.62    1.13
   3  -5  -5   61.37    1.42
  -3   5   5   60.18    1.53
  -3   5   5   62.79    1.47
   2  -5  -5   30.12    0.84
  -2   5   5   29.67    0.83
  -2   5   5   28.56    0.86
   1  -5  -5  118.42    2.52
   1  -5  -5  124.48    2.59
  -1   5   5  123.52    2.61
  -1   5   5  117.27    2.55
   0  -5  -5  156.71    3.19
   0  -5  -5  160.98    3.29
   0   5   5  153.54    3.25
   0   5   5  158.59    3.29
  -1  -5  -5   78.34    1.86
  -1  -5  -5   76.50    1.77
   1   5   5   77.88    1.84
   1   5   5   76.15    1.83
  -2  -5  -5    1.18    0.20
  -2  -5  -5    1.54    0.25
   2   5   5    1.59    0.25
   2   5   5    1.43    0.24
  -3  -5  -5    0.95    0.22
  -3  -5  -5    2.24    0.71
  -3  -5  -5    1.49    0.22
   3   5   5    1.11    0.22
   3   5   5    1.26    0.22
  -4  -5  -5    8.09    1.33
  -4  -5  -5    6.98    0.49
   4   5   5    6.39    0.45
   4   5   5    5.62    0.41
  -5  -5  -5    1.57    0.77
  -5  -5  -5    1.16    0.27
   5   5   5    0.72    0.21
   5   5   5    1.73    0.29
  -6  -5  -5    3.41    1.09
  -6  -5  -5    3.25    0.42
   6   5   5    3.06    0.41
   8  -6  -5   21.37    0.74
  -8   6   5   19.30    0.95
  -8   6   5   21.15    1.11
   7  -6  -5   11.64    0.52
  -7   6   5   11.73    0.49
  -7   6   5   11.76    0.77
  -7   6   5   11.10    0.67
   6  -6  -5    0.18    0.13
  -6   6   5   -0.13    0.17
  -6   6   5    0.23    0.13
  -6   6   5   -0.03    0.15
   5  -6  -5    2.49    0.28
   5  -6  -5    2.93    0.29
  -5   6   5    2.98    0.39
  -5   6   5    2.87    0.29
  -5   6   5    3.25    0.38
   4  -6  -5    1.46    0.13
   4  -6  -5    1.44    0.21
   4  -6  -5    1.28    0.21
  -4   6   5    1.72    0.27
  -4   6   5    1.94    0.25
   3  -6  -5   -0.08    0.07
   3  -6  -5    0.06    0.11
  -3   6   5   -0.06    0.08
   2  -6  -5   10.28    0.48
  -2   6   5   10.41    0.47
  -2   6   5   10.22    0.50
   1  -6  -5   19.23    0.71
   1  -6  -5   20.39    0.71
  -1   6   5   20.10    0.71
  -1   6   5   19.71    0.73
   0  -6  -5    0.41    0.15
   0  -6  -5    0.32    0.15
   0   6   5    0.18    0.13
   0   6   5    0.35    0.14
  -1  -6  -5    2.23    0.30
  -1  -6  -5    1.74    0.25
   1   6   5    2.21    0.29
   1   6   5    2.63    0.31
  -2  -6  -5   30.03    0.94
  -2  -6  -5   32.25    1.04
   2   6   5   29.79    1.01
  -3  -6  -5   24.69    0.93
  -3  -6  -5   25.07    1.72
  -3  -6  -5   24.08    0.83
   3   6   5   23.29    0.90
  -4  -6  -5    0.18    0.19
  -4  -6  -5    0.37    0.49
   4   6   5    0.22    0.17
  -5  -6  -5    5.47    0.51
  -5  -6  -5    4.94    1.14
   5   6   5    5.70    0.47
   8  -7  -5    2.50    0.33
  -8   7   5    1.02    0.37
  -8   7   5    2.60    0.41
   7  -7  -5    0.34    0.18
  -7   7   5    0.44    0.22
  -7   7   5    0.31    0.15
   6  -7  -5    0.13    0.08
   6  -7  -5    0.44    0.17
  -6   7   5    0.10    0.13
  -6   7   5    0.17    0.17
   5  -7  -5   17.04    0.46
   5  -7  -5   16.48    0.66
   5  -7  -5   17.07    0.69
  -5   7   5   16.10    0.74
  -5   7   5   16.80    0.68
   4  -7  -5   12.86    0.57
   4  -7  -5   13.26    0.42
   4  -7  -5   12.59    0.58
  -4   7   5   13.32    0.63
  -4   7   5   13.04    0.59
   3  -7  -5   71.54    1.38
   3  -7  -5   68.50    1.69
  -3   7   5   70.95    1.75
   2  -7  -5    0.80    0.20
   2  -7  -5    0.44    0.15
  -2   7   5    0.69    0.19
  -2   7   5    0.71    0.19
   1  -7  -5    4.36    0.35
   1  -7  -5    4.49    0.37
  -1   7   5    5.01    0.36
  -1   7   5    5.54    0.40
   0  -7  -5    0.13    0.14
   0  -7  -5    0.23    0.15
   0   7   5   -0.08    0.11
   0   7   5    0.02    0.12
  -1  -7  -5    0.04    0.14
  -1  -7  -5    0.06    0.13
   1   7   5   -0.07    0.14
   1   7   5   -0.11    0.11
  -2  -7  -5    9.37    0.51
  -2  -7  -5   10.25    0.59
   2   7   5    9.20    0.55
  -3  -7  -5    0.17    0.19
  -3  -7  -5    0.08    0.41
   3   7   5   -0.15    0.14
  -4  -7  -5    6.93    1.03
  -4  -7  -5    9.15    0.59
   4   7   5    9.41    0.60
  -5  -7  -5    0.38    0.62
  -5  -7  -5    0.42    0.23
   5   7   5    0.55    0.24
   8  -8  -5    0.81    0.14
   8  -8  -5    0.96    0.25
  -8   8   5    0.96    0.22
  -8   8   5    0.65    0.28
   7  -8  -5   11.16    0.38
   7  -8  -5   10.92    0.58
  -7   8   5   10.29    0.55
  -7   8   5   11.18    0.69
   6  -8  -5    3.10    0.23
   6  -8  -5    3.36    0.37
   6  -8  -5    2.63    0.33
  -6   8   5    3.55    0.37
  -6   8   5    3.16    0.40
   5  -8  -5   15.07    0.68
   5  -8  -5   15.12    0.48
   5  -8  -5   15.87    0.68
  -5   8   5   15.49    0.73
  -5   8   5   15.12    0.68
   4  -8  -5    2.31    0.22
   4  -8  -5    2.00    0.29
   4  -8  -5    1.66    0.27
  -4   8   5    2.25    0.30
  -4   8   5    1.98    0.29
   3  -8  -5    0.73    0.19
  -3   8   5    0.54    0.19
   2  -8  -5   14.08    0.66
   2  -8  -5   14.22    0.64
  -2   8   5   14.33    0.64
  -2   8   5   14.99    0.68
   1  -8  -5   18.05    0.74
   1  -8  -5   19.10    0.78
  -1   8   5   17.07    0.74
  -1   8   5   16.83    0.73
   0  -8  -5    0.94    0.24
   0  -8  -5    0.90    0.22
   0   8   5    0.49    0.19
   0   8   5    0.59    0.20
  -1  -8  -5   37.65    1.17
  -1  -8  -5   37.19    1.23
   1   8   5   37.81    1.23
   1   8   5   35.86    1.20
  -2  -8  -5   22.86    0.86
  -2  -8  -5   22.49    0.93
   2   8   5   21.57    0.91
  -3  -8  -5    0.13    0.46
  -3  -8  -5   -0.03    0.20
   3   8   5   -0.03    0.14
  -4  -8  -5   16.50    1.55
  -4  -8  -5   14.78    0.79
   4   8   5   14.99    0.79
   7  -9  -5    1.33    0.29
   7  -9  -5    1.17    0.19
  -7   9   5    1.92    0.36
  -7   9   5    1.55    0.28
   6  -9  -5    0.06    0.17
   6  -9  -5    0.04    0.13
   6  -9  -5    0.12    0.17
  -6   9   5    0.23    0.18
  -6   9   5    0.07    0.15
   5  -9  -5    1.45    0.27
   5  -9  -5    1.69    0.21
   5  -9  -5    1.10    0.25
  -5   9   5    1.53    0.28
  -5   9   5    1.13    0.26
   4  -9  -5    4.66    0.46
  -4   9   5    4.14    0.43
  -4   9   5    4.21    0.43
   3  -9  -5   14.21    0.68
  -3   9   5   13.81    0.68
   2  -9  -5    1.50    0.29
   2  -9  -5    0.78    0.22
  -2   9   5    0.68    0.22
  -2   9   5    1.24    0.26
   1  -9  -5   17.72    0.79
   1  -9  -5   16.48    0.74
  -1   9   5   15.15    0.74
  -1   9   5   16.85    0.75
   0  -9  -5    2.11    0.34
   0  -9  -5    2.36    0.33
   0   9   5    2.36    0.34
   0   9   5    2.87    0.39
  -1  -9  -5    0.15    0.17
  -1  -9  -5   -0.04    0.17
   1   9   5   -0.16    0.13
  -2  -9  -5    0.77    0.26
  -2  -9  -5    0.23    0.49
  -2  -9  -5    0.21    0.18
   2   9   5    0.10    0.18
  -3  -9  -5    0.46    0.53
  -3  -9  -5    0.13    0.22
   3   9   5    0.09    0.19
  -4  -9  -5    7.11    0.60
  -4  -9  -5    9.78    1.64
   4   9   5    8.73    0.63
   7 -10  -5    1.08    0.27
   7 -10  -5    0.92    0.21
  -7  10   5    0.96    0.24
   6 -10  -5    3.83    0.44
   6 -10  -5    5.52    0.46
  -6  10   5    4.89    0.50
  -6  10   5    4.19    0.46
   5 -10  -5    2.97    0.39
   5 -10  -5    3.44    0.42
  -5  10   5    3.50    0.43
  -5  10   5    4.27    0.46
   4 -10  -5    3.44    0.41
  -4  10   5    3.54    0.42
   3 -10  -5   54.84    1.58
  -3  10   5   53.08    1.60
   2 -10  -5    4.34    0.47
   2 -10  -5    3.37    0.40
  -2  10   5    3.41    0.42
   1 -10  -5   12.65    0.68
   1 -10  -5   13.10    0.72
  -1  10   5   13.25    0.69
  -1  10   5   13.84    0.73
   0 -10  -5    0.06    0.17
   0 -10  -5    0.27    0.20
   0  10   5    0.16    0.20
   0  10   5    0.00    0.17
  -1 -10  -5    0.50    0.24
  -1 -10  -5    0.02    0.17
   1  10   5    0.19    0.20
  -2 -10  -5    7.86    1.04
  -2 -10  -5    5.86    0.59
  -2 -10  -5    7.11    0.52
   2  10   5    7.29    0.56
  -3 -10  -5   14.59    1.44
  -3 -10  -5   11.40    0.78
   3  10   5   13.43    0.79
   6 -11  -5    0.48    0.24
   6 -11  -5    0.54    0.24
  -6  11   5    0.58    0.23
   5 -11  -5   11.21    0.69
   5 -11  -5   11.74    0.68
  -5  11   5   12.83    0.70
  -5  11   5   11.64    0.69
   4 -11  -5    6.67    0.53
  -4  11   5    6.28    0.52
   3 -11  -5    1.90    0.32
  -3  11   5    2.38    0.36
   2 -11  -5    0.65    0.24
   2 -11  -5    1.35    0.33
  -2  11   5    1.03    0.28
   1 -11  -5    0.31    0.21
   1 -11  -5   -0.02    0.17
  -1  11   5    0.07    0.18
  -1  11   5    0.15    0.18
   0 -11  -5   -0.04    0.18
   0 -11  -5    0.10    0.19
   0  11   5    0.14    0.21
   0  11   5   -0.01    0.17
  -1 -11  -5   -0.05    0.22
  -1 -11  -5    0.35    0.22
  -1 -11  -5    0.63    0.55
   1  11   5    0.48    0.24
  -2 -11  -5    6.78    0.66
  -2 -11  -5    7.09    1.04
   2  11   5    7.17    0.59
   6 -12  -5    0.07    0.20
   6 -12  -5    0.16    0.22
  -6  12   5    0.05    0.17
   5 -12  -5    1.10    0.30
  -5  12   5    1.01    0.28
   4 -12  -5    0.41    0.23
  -4  12   5    0.79    0.25
   3 -12  -5    1.22    0.32
  -3  12   5    1.60    0.35
   2 -12  -5    6.32    0.61
   2 -12  -5    6.37    0.64
  -2  12   5    6.38    0.63
   1 -12  -5    4.59    0.51
   1 -12  -5    3.95    0.50
  -1  12   5    4.64    0.55
  -1  12   5    3.82    0.48
   0 -12  -5    0.18    0.24
   0 -12  -5    0.06    0.22
   0  12   5    0.44    0.26
  -1 -12  -5    3.68    0.48
  -1 -12  -5    3.23    0.49
   1  12   5    3.64    0.49
   4 -13  -5    0.55    0.28
  -4  13   5    0.07    0.19
   3 -13  -5   11.68    0.73
  -3  13   5   10.50    0.73
   2 -13  -5    1.18    0.33
   2 -13  -5    1.20    0.35
  -2  13   5    1.13    0.33
   1 -13  -5    8.75    0.65
   1 -13  -5    9.07    0.70
  -1  13   5    8.94    0.69
   0 -13   6    0.23    0.26
   0 -13   6    0.21    0.24
   1 -13   6    6.25    0.64
   1 -13   6    6.01    0.66
  -2  13  -6    5.35    0.64
   2 -13   6    5.37    0.60
   2 -13   6    5.65    0.68
  -3  13  -6    1.23    0.35
   3 -13   6    1.84    0.42
  -2 -12   6    6.58    0.65
  -1 -12   6    9.96    0.71
   0 -12   6    1.27    0.36
   0 -12   6    1.16    0.31
   1 -12   6    0.14    0.21
   1 -12   6   -0.27    0.19
  -2  12  -6    0.21    0.22
   2 -12   6    0.47    0.25
   2 -12   6    0.26    0.26
  -3  12  -6    2.00    0.39
   3 -12   6    2.22    0.40
   3 -12   6    1.62    0.40
   3 -12   6    1.36    0.34
  -4  12  -6   14.09    0.86
   4 -12   6   14.88    0.85
   4 -12   6   15.00    0.86
  -5  12  -6    5.60    0.64
   5 -12   6    4.23    0.56
   5 -12   6    4.18    0.53
  -3 -11   6    3.65    0.47
  -3 -11   6    2.86    0.53
  -2 -11   6    2.41    0.41
  -1 -11   6    3.57    0.48
  -1 -11   6    3.29    0.42
   0 -11   6    0.26    0.21
   0 -11   6    0.57    0.25
  -1  11  -6    1.08    0.29
   1 -11   6    0.85    0.27
   1 -11   6    0.73    0.30
  -2  11  -6   27.51    1.14
   2 -11   6   27.18    1.11
   2 -11   6   29.71    1.13
   2 -11   6   28.15    1.17
  -3  11  -6    0.88    0.31
   3 -11   6    0.76    0.26
   3 -11   6    0.81    0.28
   3 -11   6    1.21    0.32
  -4  11  -6    5.94    0.63
   4 -11   6    5.50    0.58
   4 -11   6    6.54    0.63
  -5  11  -6   20.46    1.02
   5 -11   6   22.21    1.01
   5 -11   6   19.36    0.98
  -4 -10   6   11.21    0.69
  -4 -10   6   12.55    0.91
  -3 -10   6    7.37    0.76
  -3 -10   6    8.19    0.59
  -2 -10   6    7.45    0.57
  -1 -10   6    9.01    0.56
  -1 -10   6    9.40    0.62
   0 -10   6    0.56    0.22
   0 -10   6   -0.17    0.17
  -1  10  -6   15.64    0.78
   1 -10   6   15.06    0.79
   1 -10   6   15.51    0.75
  -2  10  -6   23.88    1.02
   2 -10   6   24.27    0.97
   2 -10   6   24.23    1.02
   2 -10   6   25.53    1.01
  -3  10  -6   25.72    1.09
   3 -10   6   27.75    1.10
   3 -10   6   28.57    1.10
   3 -10   6   26.98    1.06
  -4  10  -6    0.21    0.19
   4 -10   6   -0.01    0.19
   4 -10   6    0.01    0.18
  -5  10  -6    0.80    0.28
   5 -10   6    0.74    0.26
   5 -10   6    0.15    0.21
  -6  10  -6    0.11    0.20
   6 -10   6    0.39    0.23
   6 -10   6   -0.21    0.19
  -4  -9   6    0.43    0.31
  -4  -9   6    0.26    0.67
  -4  -9   6    0.86    0.26
  -3  -9   6   -0.23    0.16
  -3  -9   6    0.04    0.23
  -2  -9   6   56.57    1.63
  -1  -9   6    0.30    0.17
  -1  -9   6   -0.12    0.16
   0  -9   6   61.42    1.71
   0  -9   6   57.82    1.61
  -1   9  -6    7.40    0.53
   1  -9   6    7.42    0.50
   1  -9   6    8.40    0.56
   1  -9   6    8.04    0.53
  -2   9  -6   22.52    0.93
   2  -9   6   21.22    0.87
   2  -9   6   21.94    0.91
   2  -9   6   20.40    0.87
  -3   9  -6    9.09    0.61
   3  -9   6   10.14    0.60
   3  -9   6   10.07    0.63
   3  -9   6    9.37    0.58
  -4   9  -6    2.73    0.40
   4  -9   6    3.82    0.45
   4  -9   6    3.47    0.41
  -5   9  -6    0.00    0.17
   5  -9   6    0.19    0.17
   5  -9   6    0.01    0.18
  -6   9  -6   21.04    0.96
   6  -9   6   20.71    0.93
   6  -9   6   18.89    0.91
  -5  -8   6    2.04    0.45
  -5  -8   6    2.34    0.94
  -5  -8   6    1.70    0.28
  -4  -8   6    4.78    0.45
  -4  -8   6    5.29    1.10
  -4  -8   6    6.04    0.68
  -3  -8   6   18.61    0.79
  -3  -8   6   17.93    0.94
  -2  -8   6   33.94    1.12
  -1  -8   6  125.86    2.72
  -1  -8   6  122.77    2.85
   0   8  -6   10.24    0.57
   0  -8   6   10.71    0.59
   0  -8   6   10.15    0.53
  -1   8  -6    8.39    0.54
   1  -8   6    8.02    0.50
   1  -8   6    8.49    0.52
   1  -8   6    8.79    0.54
  -2   8  -6    1.93    0.30
   2  -8   6    1.89    0.31
   2  -8   6    1.93    0.30
   2  -8   6    2.09    0.31
  -3   8  -6   15.82    0.75
   3  -8   6   14.73    0.71
   3  -8   6   16.83    0.74
   3  -8   6   16.84    0.76
  -4   8  -6   20.10    0.87
   4  -8   6   19.73    0.85
   4  -8   6   20.69    0.85
  -5   8  -6    2.71    0.39
   5  -8   6    2.87    0.37
   5  -8   6    2.20    0.34
  -6   8  -6   -0.17    0.16
   6  -8   6    0.81    0.25
   6  -8   6    0.79    0.25
  -7   8  -6    5.20    0.54
   7  -8   6    5.19    0.53
   7  -8   6    4.57    0.53
  -6  -7   6    0.10    0.15
  -6  -7   6    0.22    0.28
  -5  -7   6   17.91    0.71
  -5  -7   6   16.56    0.98
  -4  -7   6   51.53    1.43
  -4  -7   6   54.79    2.89
  -4  -7   6   53.03    1.79
  -3  -7   6   22.28    1.01
  -3  -7   6   21.36    0.80
  -2  -7   6    4.11    0.40
  -1  -7   6   32.34    0.95
  -1  -7   6   31.41    1.02
   0   7  -6    2.65    0.32
   0  -7   6    2.57    0.30
   0  -7   6    3.05    0.33
   0  -7   6    2.65    0.33
  -1   7  -6   19.19    0.78
   1  -7   6   20.95    0.81
   1  -7   6   22.07    0.80
   1  -7   6   21.59    0.78
  -2   7  -6   38.54    1.17
   2  -7   6   35.45    1.12
   2  -7   6   35.29    1.13
   2  -7   6   34.06    1.08
  -3   7  -6    8.33    0.53
   3  -7   6    7.25    0.47
   3  -7   6    8.88    0.53
   3  -7   6    8.08    0.49
  -4   7  -6   14.84    0.73
   4  -7   6   16.17    0.72
   4  -7   6   17.28    0.76
  -5   7  -6    2.29    0.36
   5  -7   6    2.31    0.34
   5  -7   6    2.05    0.32
  -6   7  -6   -0.14    0.14
   6  -7   6   -0.16    0.16
   6  -7   6   -0.02    0.18
  -7   7  -6    1.81    0.33
   7  -7   6    2.39    0.36
   7  -7   6    1.94    0.35
  -6  -6   6   45.15    1.74
  -5  -6   6    0.37    0.27
  -5  -6   6    0.44    0.17
  -4  -6   6   10.11    0.51
  -4  -6   6   10.96    0.72
  -3  -6   6    7.15    0.56
  -3  -6   6    6.40    0.41
  -2  -6   6    0.12    0.11
  -2  -6   6    0.08    0.11
  -1  -6   6    0.72    0.18
  -1  -6   6    0.68    0.16
   0   6  -6    2.82    0.31
   0  -6   6    2.57    0.29
   0  -6   6    2.69    0.28
   0  -6   6    3.28    0.33
  -1   6  -6    0.17    0.13
   1  -6   6    0.04    0.11
   1  -6   6   -0.03    0.11
   1  -6   6    0.07    0.12
  -2   6  -6   41.43    1.22
   2  -6   6   42.78    1.19
   2  -6   6   43.21    1.22
   2  -6   6   42.08    1.22
  -3   6  -6   -0.23    0.09
   3  -6   6   -0.02    0.13
   3  -6   6   -0.03    0.11
   3  -6   6   -0.13    0.11
  -4   6  -6    1.02    0.23
   4  -6   6    1.06    0.23
   4  -6   6    0.85    0.21
  -5   6  -6    3.56    0.39
   5  -6   6    4.50    0.44
   5  -6   6    4.15    0.41
  -6   6  -6    6.66    0.48
   6  -6   6    5.59    0.46
   6  -6   6    5.66    0.46
  -7   6  -6    2.88    0.38
   7  -6   6    2.65    0.39
   7  -6   6    2.64    0.38
  -7  -5   6    3.64    0.60
  -6  -5   6   14.75    0.92
  -5  -5   6    7.14    0.40
  -5  -5   6    7.14    0.61
  -4  -5   6   26.62    0.81
  -4  -5   6   27.38    1.12
  -3  -5   6   20.32    0.89
  -3  -5   6   19.76    0.68
  -2  -5   6   11.96    0.51
  -2  -5   6   11.79    0.44
  -1  -5   6   11.46    0.46
  -1  -5   6   10.97    0.46
  -1  -5   6   11.01    0.51
   0   5  -6   29.51    0.90
   0  -5   6   28.02    0.86
   0  -5   6   29.79    0.90
   0  -5   6   28.69    0.84
  -1   5  -6   48.84    1.29
   1  -5   6   49.19    1.26
   1  -5   6   49.57    1.29
   1  -5   6   49.38    1.30
  -2   5  -6    0.10    0.11
   2  -5   6    0.01    0.11
   2  -5   6    0.08    0.12
   2  -5   6   -0.03    0.10
  -3   5  -6    1.17    0.22
   3  -5   6    0.86    0.19
   3  -5   6    1.04    0.21
   3  -5   6    1.29    0.23
  -4   5  -6   37.85    1.15
   4  -5   6   35.24    1.10
   4  -5   6   36.84    1.13
  -5   5  -6   34.83    1.11
   5  -5   6   30.98    1.06
   5  -5   6   33.03    1.07
  -6   5  -6    2.73    0.35
   6  -5   6    2.18    0.32
   6  -5   6    2.33    0.32
  -7   5  -6    1.09    0.25
   7  -5   6    1.35    0.27
  -7  -4   6   17.19    1.04
  -6  -4   6    8.50    0.70
  -5  -4   6    2.82    0.43
  -5  -4   6    2.64    0.25
  -4  -4   6   11.19    0.65
  -4  -4   6   10.95    0.45
  -3  -4   6   -0.06    0.13
  -3  -4   6    0.07    0.10
  -2  -4   6   25.70    0.91
  -2  -4   6   26.41    0.78
  -1  -4   6    1.89    0.22
  -1  -4   6    1.83    0.20
  -1  -4   6    1.96    0.22
   0  -4   6   41.66    1.05
   0  -4   6   39.54    1.05
   0  -4   6   41.12    1.09
  -1   4  -6    0.21    0.12
   1  -4   6    0.08    0.12
   1  -4   6    0.36    0.13
   1  -4   6    0.05    0.09
  -2   4  -6   28.54    0.90
   2  -4   6   30.38    0.91
   2  -4   6   29.43    0.87
   2  -4   6   28.25    0.89
  -3   4  -6   24.44    0.82
  -3   4  -6   22.73    1.10
   3  -4   6   23.46    0.80
   3  -4   6   23.07    0.79
   3  -4   6   21.11    0.76
  -4   4  -6   32.82    1.06
  -4   4  -6   35.55    1.63
  -4   4  -6   34.15    0.98
   4  -4   6   32.78    1.02
   4  -4   6   35.88    1.08
  -5   4  -6   38.33    1.19
   5  -4   6   40.56    1.18
   5  -4   6   38.90    1.21
  -6   4  -6    1.48    0.27
   6  -4   6    1.42    0.28
   6  -4   6    0.90    0.22
  -7   4  -6    1.13    0.25
   7  -4   6    0.72    0.24
  -7  -3   6    0.44    0.29
  -6  -3   6    5.03    0.61
  -5  -3   6    6.37    0.55
  -5  -3   6    6.83    0.31
  -4  -3   6    0.02    0.08
  -4  -3   6   -0.09    0.14
  -3  -3   6    0.49    0.12
  -3  -3   6    0.36    0.17
  -2  -3   6   22.29    0.66
  -2  -3   6   21.37    0.78
  -1  -3   6    9.56    0.41
  -1  -3   6   10.38    0.40
  -1  -3   6    9.44    0.39
  -1  -3   6    8.83    0.37
   0  -3   6   17.71    0.47
   0  -3   6   16.87    0.57
   0  -3   6   17.48    0.60
   0  -3   6   15.48    0.55
   1  -3   6   67.90    1.59
   1  -3   6   68.99    1.58
   1  -3   6   66.32    1.53
   2  -3   6   61.60    1.50
   2  -3   6   61.68    1.46
  -3   3  -6    4.73    0.31
   3  -3   6    4.34    0.32
   3  -3   6    4.33    0.32
  -4   3  -6   48.70    2.14
  -4   3  -6   49.14    1.23
   4  -3   6   47.86    1.29
   4  -3   6   48.43    1.33
  -5   3  -6    8.75    0.88
   5  -3   6    8.78    0.50
   5  -3   6    9.23    0.49
   6  -3   6    7.03    0.47
   6  -3   6    6.71    0.46
  -7   3  -6    2.42    0.33
   7  -3   6    2.67    0.36
  -8  -2   6    1.34    0.41
  -7  -2   6    0.63    0.30
  -6  -2   6    6.60    0.67
  -5  -2   6   17.56    0.48
  -5  -2   6   19.75    0.91
  -4  -2   6   22.38    0.60
  -4  -2   6   24.04    0.94
  -3  -2   6    0.03    0.08
  -3  -2   6    0.02    0.10
  -3  -2   6    0.02    0.12
  -2  -2   6    5.72    0.30
  -2  -2   6    4.97    0.36
  -2  -2   6    5.71    0.34
  -1  -2   6   86.81    1.87
  -1  -2   6   88.95    1.86
  -1  -2   6   88.09    1.84
   0  -2   6   50.28    1.21
   0  -2   6   53.40    1.12
   0  -2   6   50.62    1.23
   0  -2   6   52.17    1.19
   1  -2   6  255.74    5.02
   1  -2   6  263.74    4.94
  -2   2  -6   44.02    1.11
   2  -2   6   45.94    1.14
   2  -2   6   44.27    1.15
  -3   2  -6    0.61    0.14
   3  -2   6    0.71    0.16
   3  -2   6    0.61    0.16
  -4   2  -6   10.78    0.46
  -4   2  -6   10.93    0.88
   4  -2   6   10.91    0.52
   4  -2   6   10.43    0.50
  -5   2  -6    0.32    0.38
   5  -2   6   -0.02    0.12
   5  -2   6    0.08    0.13
  -6   2  -6   12.73    0.71
  -6   2  -6   14.26    1.31
   6  -2   6   12.96    0.63
   6  -2   6   13.60    0.66
  -7   2  -6    0.86    0.69
   7  -2   6    1.15    0.26
  -8  -1   6    0.18    0.26
  -7  -1   6    2.28    0.43
  -6  -1   6   20.13    0.98
  -5  -1   6    3.15    0.43
  -4  -1   6   14.45    0.69
  -4  -1   6   14.71    0.66
  -4  -1   6   15.55    0.43
  -3  -1   6   18.76    0.73
  -3  -1   6   19.64    0.54
  -3  -1   6   19.35    0.70
  -2  -1   6    0.13    0.09
  -2  -1   6    0.24    0.11
  -2  -1   6    0.23    0.12
  -1  -1   6  124.26    2.52
  -1  -1   6  125.06    2.49
  -1  -1   6  125.19    2.53
   0  -1   6    5.14    0.29
   0  -1   6    5.22    0.28
  -1   1  -6   86.91    1.85
  -1   1  -6   86.51    1.90
   1  -1   6   83.96    1.85
   1  -1   6   89.41    1.90
  -2   1  -6   33.86    0.96
  -2   1  -6   34.39    0.91
   2  -1   6   33.75    0.94
   2  -1   6   34.86    0.93
  -3   1  -6   45.56    1.20
  -3   1  -6   43.95    1.11
   3  -1   6   44.59    1.16
   3  -1   6   43.88    1.18
  -4   1  -6    0.65    0.14
  -4   1  -6    0.50    0.16
  -4   1  -6    1.13    0.46
   4  -1   6    0.59    0.16
   4  -1   6    0.61    0.16
  -5   1  -6   10.85    1.04
  -5   1  -6   10.61    0.57
   5  -1   6   10.34    0.53
   5  -1   6   11.18    0.54
  -6   1  -6    1.10    0.66
   6  -1   6    1.35    0.26
   6  -1   6    1.17    0.25
  -7   1  -6    5.57    1.15
   7  -1   6    7.12    0.51
  -8   0   6    1.09    0.39
  -7   0   6   13.56    0.83
  -6   0   6    7.32    0.60
  -5   0   6    3.94    0.41
  -5   0   6    5.14    0.46
  -4   0   6   10.87    0.59
  -4   0   6   10.49    0.55
  -4   0   6   11.13    0.34
  -3   0   6   29.09    0.72
  -3   0   6   30.07    0.94
  -3   0   6   29.67    0.91
  -2   0   6   55.27    1.22
  -2   0   6   54.85    1.32
  -2   0   6   55.11    1.35
   1   0  -6    2.09    0.19
  -1   0   6    2.01    0.20
  -1   0   6    1.79    0.17
   0   0  -6    0.56    0.13
   0   0   6    0.90    0.15
   0   0   6    0.80    0.14
  -1   0  -6    0.48    0.14
  -1   0  -6    0.59    0.13
   1   0   6    0.42    0.12
   1   0   6    0.19    0.10
  -2   0  -6   38.57    1.00
  -2   0  -6   38.41    1.05
   2   0   6   39.54    1.05
   2   0   6   39.90    1.03
  -3   0  -6   32.28    0.96
  -3   0  -6   31.82    0.87
  -3   0  -6   31.30    0.87
   3   0   6   31.49    0.92
   3   0   6   32.76    0.95
  -4   0  -6    0.74    0.19
  -4   0  -6    1.16    0.18
  -4   0  -6    1.99    0.60
  -4   0  -6    1.10    0.21
   4   0   6    1.29    0.22
   4   0   6    1.26    0.22
  -5   0  -6   57.07    1.48
  -5   0  -6   53.83    2.72
   5   0   6   52.70    1.47
   5   0   6   54.55    1.44
  -6   0  -6    3.19    0.90
   6   0   6    2.53    0.33
   6   0   6    2.35    0.32
  -7   0  -6   29.72    2.32
   7   0   6   31.79    1.11
  -8   1   6    5.04    0.64
  -7   1   6    2.08    0.43
  -6   1   6   51.59    1.69
  -6   1   6   54.10    1.63
  -5   1   6   62.08    1.79
  -5   1   6   62.74    1.71
  -4   1   6    3.42    0.19
  -4   1   6    4.03    0.33
  -4   1   6    3.06    0.36
  -3   1   6   16.92    0.64
  -3   1   6   17.52    0.50
  -3   1   6   17.62    0.65
  -2   1   6   -0.02    0.09
  -2   1   6    0.01    0.08
   1  -1  -6   10.32    0.40
  -1   1   6   10.49    0.39
  -1   1   6   10.53    0.41
   0  -1  -6    9.40    0.40
   0   1   6   10.69    0.41
   0   1   6    9.57    0.39
  -1  -1  -6    6.22    0.33
  -1  -1  -6    5.23    0.34
   1   1   6    5.91    0.33
   1   1   6    5.47    0.31
  -2  -1  -6    0.23    0.11
  -2  -1  -6    0.40    0.14
   2   1   6    0.61    0.15
   2   1   6    0.36    0.12
  -3  -1  -6    2.36    0.23
  -3  -1  -6    2.57    0.28
  -3  -1  -6    2.45    0.25
   3   1   6    2.11    0.26
   3   1   6    2.98    0.30
  -4  -1  -6   21.36    1.49
  -4  -1  -6   24.99    0.84
   4   1   6   22.64    0.78
   4   1   6   21.56    0.79
  -5  -1  -6   10.26    1.09
  -5  -1  -6   10.61    0.57
   5   1   6    8.88    0.51
   5   1   6    9.63    0.52
  -6  -1  -6    3.62    0.40
  -6  -1  -6    3.08    0.92
   6   1   6    3.77    0.40
  -7  -1  -6    9.49    1.40
   7   1   6   10.12    0.60
  -8   2   6   21.25    1.11
  -7   2   6   38.84    1.47
  -6   2   6    2.73    0.41
  -6   2   6    2.40    0.35
  -5   2   6    7.31    0.27
  -5   2   6    6.68    0.50
  -4   2   6   25.00    0.91
  -4   2   6   26.26    0.66
  -4   2   6   26.58    0.90
   3  -2  -6   47.19    1.05
  -3   2   6   45.93    1.25
  -3   2   6   46.36    1.07
  -3   2   6   46.73    1.25
   2  -2  -6   56.90    1.25
  -2   2   6   56.07    1.27
  -2   2   6   53.53    1.35
   1  -2  -6   28.08    0.77
  -1   2   6   28.49    0.76
  -1   2   6   27.91    0.74
  -1   2   6   28.89    0.79
   0  -2  -6    8.96    0.39
   0   2   6    8.32    0.40
   0   2   6    9.69    0.41
   0   2   6    8.40    0.37
  -1  -2  -6   22.61    0.72
  -1  -2  -6   20.80    0.67
   1   2   6   21.67    0.68
   1   2   6   22.54    0.71
  -2  -2  -6   13.47    0.51
  -2  -2  -6   13.26    0.55
   2   2   6   13.19    0.54
   2   2   6   13.45    0.54
  -3  -2  -6    5.28    0.39
  -3  -2  -6    4.65    0.31
   3   2   6    5.39    0.35
   3   2   6    4.87    0.34
  -4  -2  -6    5.20    0.41
  -4  -2  -6    5.29    0.78
   4   2   6    5.21    0.38
   4   2   6    5.13    0.38
  -5  -2  -6    8.05    0.51
  -5  -2  -6    7.15    0.97
   5   2   6    7.20    0.47
   5   2   6    7.04    0.46
  -6  -2  -6    3.28    0.96
  -6  -2  -6    2.70    0.36
   6   2   6    2.69    0.36
  -7  -2  -6   -0.27    0.68
  -7  -2  -6    0.38    0.22
   7   2   6   -0.02    0.17
  -8   3   6    0.61    0.30
  -7   3   6   15.93    0.88
  -7   3   6   14.68    0.80
  -6   3   6    0.28    0.19
  -6   3   6    0.15    0.17
  -5   3   6    8.05    0.54
  -5   3   6    7.94    0.51
  -5   3   6    8.91    0.34
   4  -3  -6    9.32    0.36
  -4   3   6    9.08    0.50
  -4   3   6    8.31    0.35
  -4   3   6    9.61    0.51
   3  -3  -6   27.41    0.73
  -3   3   6   28.23    0.86
  -3   3   6   26.71    0.75
  -3   3   6   26.75    0.87
   2  -3  -6    1.92    0.21
  -2   3   6    1.90    0.21
  -2   3   6    1.92    0.19
   1  -3  -6    1.58    0.20
  -1   3   6    1.82    0.22
  -1   3   6    1.90    0.21
   0  -3  -6    3.57    0.27
   0  -3  -6    3.66    0.28
   0   3   6    3.11    0.26
   0   3   6    3.86    0.27
   0   3   6    3.93    0.29
  -1  -3  -6    4.90    0.35
  -1  -3  -6    4.83    0.31
   1   3   6    4.80    0.32
   1   3   6    5.37    0.33
   1   3   6    4.54    0.31
  -2  -3  -6   25.88    0.85
  -2  -3  -6   25.12    0.79
   2   3   6   27.65    0.86
   2   3   6   25.25    0.81
  -3  -3  -6   13.41    0.60
  -3  -3  -6   12.69    0.52
   3   3   6   13.27    0.59
   3   3   6   13.55    0.57
  -4  -3  -6   72.85    1.84
  -4  -3  -6   74.46    3.44
   4   3   6   74.16    1.80
   4   3   6   72.21    1.86
  -5  -3  -6   -0.08    0.44
  -5  -3  -6   -0.02    0.16
   5   3   6    0.09    0.15
   5   3   6   -0.17    0.12
  -6  -3  -6    1.95    0.32
  -6  -3  -6    1.88    0.82
   6   3   6    2.13    0.34
  -8   4   6    6.85    0.67
  -8   4   6    5.78    0.69
   7  -4  -6    1.67    0.20
  -7   4   6    1.58    0.33
  -7   4   6    1.34    0.34
   6  -4  -6   13.28    0.48
  -6   4   6   12.43    0.44
  -6   4   6   13.96    0.76
  -6   4   6   12.90    0.69
  -5   4   6    4.78    0.48
  -5   4   6    5.52    0.30
  -5   4   6    5.98    0.44
   4  -4  -6    0.18    0.10
  -4   4   6    0.23    0.11
  -4   4   6    0.20    0.14
  -4   4   6    0.19    0.14
   3  -4  -6   -0.15    0.07
  -3   4   6   -0.05    0.10
  -3   4   6    0.02    0.10
  -3   4   6    0.11    0.09
   2  -4  -6    4.66    0.30
   2  -4  -6    4.65    0.21
  -2   4   6    4.68    0.28
  -2   4   6    4.86    0.31
   1  -4  -6   26.04    0.76
  -1   4   6   24.42    0.78
  -1   4   6   24.50    0.75
   0  -4  -6   33.30    0.93
   0  -4  -6   33.79    0.96
   0   4   6   31.50    0.94
   0   4   6   31.65    0.93
  -1  -4  -6   57.38    1.45
  -1  -4  -6   56.91    1.40
   1   4   6   56.77    1.45
   1   4   6   57.55    1.44
   1   4   6   55.87    1.40
  -2  -4  -6   15.28    0.64
  -2  -4  -6   13.96    0.56
   2   4   6   13.72    0.59
   2   4   6   14.07    0.60
   2   4   6   13.65    0.58
  -3  -4  -6   10.00    0.48
  -3  -4  -6    9.55    0.54
   3   4   6    9.44    0.50
   3   4   6    9.98    0.52
  -4  -4  -6   18.17    1.48
  -4  -4  -6   18.02    0.77
   4   4   6   17.42    0.76
   4   4   6   18.25    0.74
  -5  -4  -6    2.17    0.33
  -5  -4  -6    2.46    0.90
   5   4   6    2.27    0.32
   5   4   6    2.01    0.32
  -6  -4  -6    2.30    0.35
  -6  -4  -6    2.34    0.93
   6   4   6    1.60    0.31
  -8   5   6   13.69    0.81
  -8   5   6   14.85    0.93
   7  -5  -6    5.66    0.35
  -7   5   6    6.93    0.62
  -7   5   6    6.54    0.54
   6  -5  -6    0.68    0.16
  -6   5   6    0.77    0.23
  -6   5   6    0.59    0.14
  -6   5   6    0.60    0.24
   5  -5  -6   11.36    0.48
   5  -5  -6   12.21    0.50
  -5   5   6   11.76    0.66
  -5   5   6   12.14    0.49
  -5   5   6   11.73    0.63
   4  -5  -6   32.28    0.88
  -4   5   6   32.10    0.91
  -4   5   6   30.21    1.02
  -4   5   6   31.72    1.04
   3  -5  -6   19.68    0.48
   3  -5  -6   18.83    0.64
  -3   5   6   19.98    0.68
  -3   5   6   18.85    0.72
   2  -5  -6   97.82    2.10
  -2   5   6   92.79    2.14
  -2   5   6   96.99    2.09
   1  -5  -6  202.38    4.06
   1  -5  -6  213.06    4.17
  -1   5   6  207.09    4.12
  -1   5   6  197.64    4.15
   0  -5  -6  116.53    2.63
   0  -5  -6  118.04    2.57
   0   5   6  124.12    2.66
   0   5   6  124.14    2.64
  -1  -5  -6   29.36    0.91
  -1  -5  -6   29.98    0.98
   1   5   6   30.31    0.96
   1   5   6   29.15    0.94
  -2  -5  -6   16.42    0.65
  -2  -5  -6   15.87    0.70
   2   5   6   17.10    0.68
   2   5   6   17.23    0.70
  -3  -5  -6   20.79    0.75
  -3  -5  -6   21.31    0.85
   3   5   6   21.90    0.81
   3   5   6   21.02    0.82
  -4  -5  -6   15.31    0.72
  -4  -5  -6   14.51    1.36
   4   5   6   14.05    0.66
   4   5   6   13.20    0.67
  -5  -5  -6   15.91    1.53
  -5  -5  -6   16.55    0.77
   5   5   6   15.35    0.76
   5   5   6   14.82    0.73
  -6  -5  -6    1.47    0.81
  -6  -5  -6    1.06    0.28
   6   5   6    1.35    0.31
   8  -6  -6    0.59    0.20
  -8   6   6    0.15    0.20
  -8   6   6    0.56    0.29
   7  -6  -6    6.13    0.39
  -7   6   6    5.83    0.37
  -7   6   6    7.85    0.62
  -7   6   6    5.98    0.51
   6  -6  -6    0.21    0.14
  -6   6   6    0.22    0.18
  -6   6   6    0.08    0.18
  -6   6   6   -0.10    0.10
   5  -6  -6    0.57    0.16
   5  -6  -6    0.47    0.15
  -5   6   6    0.58    0.15
  -5   6   6    0.43    0.19
  -5   6   6    0.25    0.18
   4  -6  -6   64.02    1.56
   4  -6  -6   64.16    1.23
  -4   6   6   65.88    1.60
  -4   6   6   65.67    1.73
   3  -6  -6   45.23    1.21
   3  -6  -6   45.94    0.96
  -3   6   6   46.29    1.26
   2  -6  -6    0.93    0.20
   2  -6  -6    0.76    0.18
  -2   6   6    1.06    0.21
  -2   6   6    1.19    0.20
   1  -6  -6   37.44    1.07
   1  -6  -6   37.15    1.11
  -1   6   6   37.13    1.08
  -1   6   6   38.39    1.13
   0  -6  -6    2.87    0.34
   0  -6  -6    3.10    0.32
   0   6   6    2.67    0.31
   0   6   6    2.59    0.32
  -1  -6  -6    0.60    0.19
  -1  -6  -6    0.14    0.13
   1   6   6    0.36    0.17
   1   6   6    0.28    0.16
  -2  -6  -6   14.28    0.61
  -2  -6  -6   12.86    0.66
   2   6   6   13.36    0.64
  -3  -6  -6   37.87    1.23
  -3  -6  -6   38.41    1.13
  -3  -6  -6   38.88    2.32
   3   6   6   37.75    1.24
  -4  -6  -6    7.40    1.33
  -4  -6  -6    4.78    0.49
   4   6   6    5.12    0.50
  -5  -6  -6   -0.01    0.19
  -5  -6  -6    0.33    0.60
   5   6   6    0.32    0.22
   8  -7  -6    0.00    0.15
  -8   7   6    0.28    0.24
  -8   7   6    0.09    0.26
   7  -7  -6    6.22    0.43
  -7   7   6    4.70    0.53
  -7   7   6    6.09    0.40
  -7   7   6    6.89    0.72
   6  -7  -6    9.35    0.50
   6  -7  -6   10.62    0.32
  -6   7   6    9.05    0.49
  -6   7   6   10.64    0.63
   5  -7  -6   87.10    2.12
   5  -7  -6   89.93    1.65
   5  -7  -6   91.14    2.08
  -5   7   6   90.21    2.11
  -5   7   6   90.65    2.28
   4  -7  -6    0.82    0.14
   4  -7  -6    0.63    0.19
  -4   7   6    0.60    0.20
  -4   7   6    0.69    0.18
   3  -7  -6   20.30    0.76
   3  -7  -6   20.32    0.57
  -3   7   6   20.45    0.77
   2  -7  -6    5.98    0.42
   2  -7  -6    5.07    0.38
  -2   7   6    6.03    0.42
  -2   7   6    5.56    0.38
   1  -7  -6    4.37    0.42
   1  -7  -6    4.22    0.36
  -1   7   6    4.47    0.44
  -1   7   6    4.00    0.39
   0  -7  -6   16.23    0.68
   0  -7  -6   14.08    0.68
   0   7   6   15.07    0.69
   0   7   6   15.84    0.69
  -1  -7  -6    2.91    0.34
  -1  -7  -6    2.33    0.33
   1   7   6    3.08    0.36
   1   7   6    2.99    0.37
  -2  -7  -6    3.84    0.39
  -2  -7  -6    3.49    0.41
   2   7   6    3.41    0.40
  -3  -7  -6   25.09    1.83
  -3  -7  -6   23.89    0.99
   3   7   6   24.14    0.97
  -4  -7  -6    0.41    0.22
  -4  -7  -6    0.21    0.52
   4   7   6    0.24    0.18
  -5  -7  -6    7.52    1.45
  -5  -7  -6    4.28    0.50
   5   7   6    6.16    0.59
   8  -8  -6    3.61    0.22
   8  -8  -6    3.41    0.39
  -8   8   6    3.54    0.50
  -8   8   6    3.82    0.39
   7  -8  -6   11.76    0.40
   7  -8  -6   11.10    0.60
  -7   8   6   11.30    0.70
  -7   8   6   13.21    0.61
   6  -8  -6    1.45    0.27
   6  -8  -6    1.41    0.18
   6  -8  -6    1.10    0.25
  -6   8   6    1.34    0.25
  -6   8   6    2.00    0.33
   5  -8  -6   29.99    0.75
   5  -8  -6   31.20    1.01
  -5   8   6   27.52    1.06
  -5   8   6   29.44    1.00
   4  -8  -6   18.60    0.57
   4  -8  -6   18.69    0.75
  -4   8   6   18.52    0.80
  -4   8   6   18.30    0.77
   3  -8  -6    0.32    0.17
  -3   8   6    0.30    0.16
   2  -8  -6    1.61    0.28
   2  -8  -6    2.83    0.36
  -2   8   6    2.03    0.30
  -2   8   6    2.20    0.32
   1  -8  -6   22.85    0.89
   1  -8  -6   21.90    0.84
  -1   8   6   21.91    0.86
  -1   8   6   21.62    0.88
   0  -8  -6    4.26    0.43
   0  -8  -6    4.87    0.48
   0   8   6    5.10    0.42
   0   8   6    4.86    0.48
  -1  -8  -6    3.91    0.45
  -1  -8  -6    3.82    0.41
   1   8   6    5.33    0.45
   1   8   6    3.94    0.43
  -2  -8  -6    0.93    0.28
  -2  -8  -6    1.29    0.27
   2   8   6    1.15    0.27
  -3  -8  -6    8.27    0.60
  -3  -8  -6    8.16    1.06
   3   8   6    8.32    0.58
  -4  -8  -6    0.78    0.28
  -4  -8  -6    0.85    0.65
   4   8   6    1.20    0.30
   7  -9  -6   27.78    1.04
   7  -9  -6   28.63    0.76
  -7   9   6   28.32    1.01
  -7   9   6   29.31    1.18
   6  -9  -6   16.43    0.55
   6  -9  -6   14.76    0.73
   6  -9  -6   15.62    0.73
  -6   9   6   16.48    0.74
  -6   9   6   15.55    0.81
   5  -9  -6    2.99    0.27
   5  -9  -6    2.90    0.38
  -5   9   6    2.55    0.35
  -5   9   6    3.40    0.43
   4  -9  -6    4.82    0.46
  -4   9   6    6.10    0.46
   3  -9  -6   20.26    0.83
  -3   9   6   19.46    0.84
   2  -9  -6    3.97    0.42
   2  -9  -6    3.69    0.41
  -2   9   6    3.47    0.41
   1  -9  -6    8.17    0.57
   1  -9  -6    9.57    0.57
  -1   9   6    9.22    0.57
  -1   9   6    8.93    0.59
   0  -9  -6    1.51    0.30
   0  -9  -6    2.39    0.35
   0   9   6    2.12    0.34
   0   9   6    2.62    0.38
  -1  -9  -6   15.64    0.75
  -1  -9  -6   17.15    0.84
   1   9   6   15.85    0.79
  -2  -9  -6    0.05    0.21
  -2  -9  -6    0.20    0.48
  -2  -9  -6    0.04    0.16
   2   9   6    0.04    0.19
  -3  -9  -6   29.25    2.08
  -3  -9  -6   26.58    1.15
   3   9   6   29.55    1.17
   7 -10  -6    0.96    0.21
   7 -10  -6    0.61    0.25
  -7  10   6    1.37    0.29
  -7  10   6    0.87    0.30
   6 -10  -6    1.00    0.24
  -6  10   6    0.73    0.27
  -6  10   6    0.52    0.21
   5 -10  -6    9.46    0.60
  -5  10   6    8.96    0.60
  -5  10   6    8.37    0.57
   4 -10  -6    3.91    0.44
  -4  10   6    3.79    0.44
   3 -10  -6    3.59    0.44
  -3  10   6    4.30    0.47
   2 -10  -6    0.71    0.24
   2 -10  -6    1.29    0.29
  -2  10   6    1.16    0.26
   1 -10  -6    1.67    0.31
   1 -10  -6    1.74    0.32
  -1  10   6    2.16    0.34
  -1  10   6    2.49    0.39
   0 -10  -6    2.79    0.39
   0 -10  -6    2.45    0.41
   0  10   6    3.29    0.43
   0  10   6    3.90    0.49
  -1 -10  -6   11.03    0.66
  -1 -10  -6   12.35    0.75
   1  10   6   12.25    0.72
  -2 -10  -6   16.75    0.90
  -2 -10  -6   15.65    1.49
  -2 -10  -6   17.32    0.81
   2  10   6   16.66    0.88
  -3 -10  -6   18.43    1.67
  -3 -10  -6   19.32    0.99
   3  10   6   18.41    0.94
   6 -11  -6    1.08    0.29
  -6  11   6    1.60    0.34
  -6  11   6    1.35    0.30
   5 -11  -6    3.15    0.43
  -5  11   6    2.99    0.42
  -5  11   6    3.06    0.43
   4 -11  -6    0.01    0.19
  -4  11   6    0.07    0.18
   3 -11  -6    0.36    0.21
  -3  11   6    0.40    0.23
   2 -11  -6    0.05    0.18
   2 -11  -6    0.54    0.25
  -2  11   6    0.33    0.21
   1 -11  -6    7.40    0.59
   1 -11  -6    7.52    0.57
  -1  11   6    6.09    0.59
  -1  11   6    6.11    0.61
   0 -11  -6    8.69    0.62
   0 -11  -6    9.08    0.68
   0  11   6    9.66    0.69
   0  11   6    8.21    0.61
  -1 -11  -6   20.84    1.02
  -1 -11  -6   20.79    0.95
   1  11   6   20.90    1.00
  -2 -11  -6    8.65    1.13
  -2 -11  -6    7.67    0.72
   2  11   6    7.11    0.61
   5 -12  -6    3.36    0.47
  -5  12   6    3.58    0.48
  -5  12   6    3.45    0.47
   4 -12  -6    0.19    0.21
  -4  12   6    0.16    0.19
   3 -12  -6   19.52    0.94
  -3  12   6   20.45    0.97
   2 -12  -6    3.01    0.46
   2 -12  -6    3.29    0.44
  -2  12   6    2.97    0.45
   1 -12  -6    4.87    0.57
   1 -12  -6    4.84    0.53
  -1  12   6    4.76    0.57
   0 -12  -6    5.84    0.60
   0 -12  -6    5.68    0.63
   0  12   6    6.92    0.66
   4 -13  -6    0.20    0.23
  -4  13   6    0.09    0.22
   3 -13  -6   11.15    0.73
  -3  13   6   11.74    0.78
   2 -13  -6   19.94    0.97
  -2  13   6   17.18    0.96
   1 -13  -6    0.53    0.27
   1 -13  -6    0.96    0.34
  -1  13   6    0.90    0.32
   1 -13   7    0.18    0.27
   1 -13   7    0.64    0.29
  -2  13  -7    0.60    0.29
   2 -13   7    1.06    0.36
   2 -13   7    0.72    0.31
  -1 -12   7   14.50    0.87
   0 -12   7    5.86    0.65
   0 -12   7    7.66    0.59
   1 -12   7   18.95    0.93
   1 -12   7   19.25    1.01
  -2  12  -7    1.97    0.40
   2 -12   7    1.81    0.38
   2 -12   7    1.64    0.39
  -3  12  -7   -0.01    0.21
   3 -12   7   -0.18    0.20
   3 -12   7    0.02    0.20
   3 -12   7    0.28    0.28
  -4  12  -7    4.61    0.59
   4 -12   7    5.38    0.60
   4 -12   7    4.90    0.58
  -2 -11   7   20.70    0.97
  -1 -11   7   11.55    0.73
   0 -11   7    4.27    0.53
   0 -11   7    4.48    0.49
  -1  11  -7    0.30    0.22
   1 -11   7    0.02    0.19
   1 -11   7    0.45    0.24
  -2  11  -7    1.18    0.28
   2 -11   7    0.64    0.26
   2 -11   7    1.06    0.30
   2 -11   7    0.79    0.30
  -3  11  -7    7.89    0.63
   3 -11   7    8.19    0.65
   3 -11   7    7.91    0.60
   3 -11   7    7.38    0.59
  -4  11  -7    3.66    0.50
   4 -11   7    3.93    0.50
   4 -11   7    2.94    0.46
  -5  11  -7    1.18    0.33
   5 -11   7    2.80    0.44
   5 -11   7    1.77    0.38
  -3 -10   7   -0.17    0.22
  -3 -10   7    0.24    0.21
  -2 -10   7    4.72    0.52
  -1 -10   7    2.16    0.32
  -1 -10   7    3.12    0.44
   0 -10   7   57.34    1.74
   0 -10   7   56.75    1.62
  -1  10  -7   11.89    0.70
   1 -10   7   11.81    0.72
   1 -10   7   12.43    0.68
  -2  10  -7    4.10    0.50
   2 -10   7    4.28    0.47
   2 -10   7    4.18    0.48
   2 -10   7    3.51    0.46
  -3  10  -7    5.26    0.56
   3 -10   7    5.25    0.54
   3 -10   7    5.16    0.54
   3 -10   7    6.21    0.60
  -4  10  -7    4.42    0.52
   4 -10   7    4.36    0.49
   4 -10   7    3.54    0.45
  -5  10  -7    0.26    0.22
   5 -10   7    0.14    0.20
   5 -10   7    0.54    0.25
  -6  10  -7    5.15    0.59
   6 -10   7    4.63    0.54
   6 -10   7    4.66    0.54
  -4  -9   7    6.93    0.53
  -4  -9   7    5.78    0.71
  -3  -9   7    9.81    0.75
  -3  -9   7   11.40    0.65
  -2  -9   7    6.34    0.52
  -1  -9   7    0.13    0.16
  -1  -9   7    0.01    0.18
   0  -9   7   14.06    0.74
   0  -9   7   14.69    0.69
  -1   9  -7    4.61    0.48
   1  -9   7    3.55    0.43
   1  -9   7    4.13    0.45
   1  -9   7    3.79    0.42
  -2   9  -7   16.48    0.82
   2  -9   7   18.59    0.82
   2  -9   7   18.66    0.85
   2  -9   7   18.14    0.80
  -3   9  -7    0.54    0.20
   3  -9   7    0.21    0.17
   3  -9   7    0.02    0.20
   3  -9   7    0.17    0.18
  -4   9  -7   56.46    1.72
   4  -9   7   53.25    1.62
   4  -9   7   54.27    1.66
  -5   9  -7   26.95    1.11
   5  -9   7   25.34    1.07
   5  -9   7   25.09    1.03
  -6   9  -7   -0.03    0.17
   6  -9   7   -0.06    0.19
   6  -9   7    0.07    0.22
  -5  -8   7    0.13    0.18
  -5  -8   7   -0.15    0.23
  -4  -8   7    6.94    0.73
  -4  -8   7    5.39    0.46
  -3  -8   7   43.42    1.58
  -3  -8   7   43.29    1.32
  -2  -8   7    2.39    0.34
  -1  -8   7    3.71    0.37
  -1  -8   7    4.10    0.43
   0   8  -7   17.36    0.76
   0  -8   7   16.15    0.69
   0  -8   7   16.30    0.75
  -1   8  -7   37.38    1.21
   1  -8   7   36.05    1.17
   1  -8   7   35.70    1.19
   1  -8   7   35.00    1.13
  -2   8  -7   67.80    1.88
   2  -8   7   71.12    1.89
   2  -8   7   70.55    1.87
   2  -8   7   69.92    1.82
  -3   8  -7    8.62    0.56
   3  -8   7    8.62    0.54
   3  -8   7    7.82    0.52
   3  -8   7    8.70    0.57
  -4   8  -7    0.49    0.22
   4  -8   7    0.21    0.18
   4  -8   7    0.39    0.21
  -5   8  -7   11.14    0.68
   5  -8   7   11.31    0.65
   5  -8   7   11.35    0.66
  -6   8  -7    0.79    0.25
   6  -8   7    0.30    0.19
   6  -8   7    0.16    0.20
  -5  -7   7    3.77    0.39
  -5  -7   7    3.18    0.53
  -4  -7   7    0.20    0.23
  -4  -7   7    0.29    0.18
  -3  -7   7    2.13    0.40
  -3  -7   7    2.18    0.31
  -2  -7   7    2.63    0.34
  -1  -7   7   13.72    0.65
  -1  -7   7   13.20    0.58
   0   7  -7   13.57    0.64
   0  -7   7   13.38    0.60
   0  -7   7   13.92    0.66
   0  -7   7   14.47    0.65
  -1   7  -7   11.63    0.61
   1  -7   7   13.47    0.65
   1  -7   7   13.24    0.62
   1  -7   7   12.90    0.59
  -2   7  -7   13.94    0.69
   2  -7   7   14.51    0.65
   2  -7   7   15.36    0.68
   2  -7   7   15.90    0.72
  -3   7  -7   14.11    0.69
   3  -7   7   13.39    0.66
   3  -7   7   13.86    0.69
   3  -7   7   13.85    0.66
  -4   7  -7    9.83    0.59
   4  -7   7   10.17    0.59
   4  -7   7    8.91    0.55
  -5   7  -7    2.95    0.40
   5  -7   7    4.08    0.45
   5  -7   7    3.16    0.39
  -6   7  -7    2.63    0.39
   6  -7   7    2.77    0.39
   6  -7   7    2.40    0.37
  -7   7  -7    4.41    0.51
   7  -7   7    3.92    0.48
   7  -7   7    4.39    0.50
  -6  -6   7    7.69    0.82
  -5  -6   7    1.72    0.26
  -5  -6   7    1.27    0.34
  -4  -6   7    1.49    0.35
  -4  -6   7    1.36    0.23
  -3  -6   7   29.86    0.95
  -3  -6   7   29.06    1.17
  -2  -6   7   67.65    1.67
  -2  -6   7   64.62    1.52
  -1  -6   7    3.63    0.36
  -1  -6   7    4.46    0.32
   0   6  -7   70.98    1.76
   0  -6   7   71.80    1.72
   0  -6   7   68.57    1.68
  -1   6  -7   92.20    2.16
   1  -6   7   90.89    2.08
   1  -6   7   90.32    2.12
   1  -6   7   88.56    2.15
  -2   6  -7    3.43    0.36
   2  -6   7    3.68    0.38
   2  -6   7    3.75    0.36
   2  -6   7    3.41    0.36
  -3   6  -7    2.17    0.31
   3  -6   7    2.84    0.35
   3  -6   7    2.69    0.34
   3  -6   7    2.48    0.31
  -4   6  -7    2.55    0.34
   4  -6   7    2.43    0.33
   4  -6   7    2.21    0.31
  -5   6  -7    0.04    0.17
   5  -6   7    0.12    0.16
   5  -6   7    0.39    0.18
  -6   6  -7   14.29    0.73
   6  -6   7   12.10    0.69
   6  -6   7   13.35    0.70
  -7   6  -7    1.20    0.27
   7  -6   7    2.33    0.38
   7  -6   7    0.80    0.27
  -6  -5   7    0.80    0.32
  -5  -5   7   15.91    0.60
  -5  -5   7   16.59    0.92
  -4  -5   7    3.07    0.44
  -4  -5   7    3.21    0.31
  -3  -5   7    5.72    0.37
  -3  -5   7    5.77    0.49
  -2  -5   7   29.60    0.91
  -2  -5   7   28.85    0.80
  -1  -5   7   46.25    1.24
  -1  -5   7   44.07    1.15
  -1  -5   7   46.31    1.19
   0   5  -7    6.13    0.38
   0  -5   7    7.88    0.41
   0  -5   7    6.24    0.40
   0  -5   7    6.74    0.38
  -1   5  -7   29.38    0.94
   1  -5   7   29.05    0.89
   1  -5   7   29.06    0.93
   1  -5   7   27.95    0.91
  -2   5  -7    1.99    0.28
   2  -5   7    2.58    0.29
   2  -5   7    3.01    0.33
   2  -5   7    2.17    0.28
  -3   5  -7    2.02    0.29
   3  -5   7    1.84    0.27
   3  -5   7    2.04    0.29
   3  -5   7    2.52    0.31
  -4   5  -7   14.01    0.61
  -4   5  -7   13.26    0.65
   4  -5   7   12.99    0.63
   4  -5   7   13.70    0.64
  -5   5  -7   34.04    1.16
   5  -5   7   35.80    1.14
   5  -5   7   34.40    1.16
  -6   5  -7    0.58    0.22
   6  -5   7    0.54    0.21
   6  -5   7    0.36    0.21
  -7   5  -7    0.00    0.17
   7  -5   7    0.05    0.19
   7  -5   7    0.25    0.20
  -7  -4   7    1.18    0.39
  -6  -4   7   -0.05    0.21
  -5  -4   7    2.57    0.43
  -5  -4   7    2.42    0.25
  -4  -4   7   84.40    2.32
  -4  -4   7   86.42    1.88
  -3  -4   7   20.50    0.67
  -3  -4   7   19.72    0.86
  -2  -4   7   15.64    0.68
  -2  -4   7   14.51    0.56
  -2  -4   7   14.45    0.49
  -1  -4   7    5.88    0.37
  -1  -4   7    5.86    0.34
  -1  -4   7    6.32    0.33
   0   4  -7   67.65    1.65
   0  -4   7   70.22    1.64
   0  -4   7   68.81    1.67
   0  -4   7   71.68    1.61
  -1   4  -7   33.16    1.00
   1  -4   7   34.20    0.99
   1  -4   7   34.69    1.01
   1  -4   7   32.72    0.96
  -2   4  -7   11.93    0.57
   2  -4   7   12.09    0.53
   2  -4   7   12.75    0.56
   2  -4   7   12.34    0.55
  -3   4  -7   44.91    1.29
   3  -4   7   44.64    1.26
   3  -4   7   46.24    1.26
   3  -4   7   45.68    1.28
  -4   4  -7   -0.10    0.11
  -4   4  -7   -0.01    0.10
   4  -4   7   -0.10    0.10
   4  -4   7   -0.01    0.13
  -5   4  -7    9.66    0.57
   5  -4   7    9.61    0.55
   5  -4   7    9.82    0.57
  -6   4  -7    2.10    0.33
   6  -4   7    1.66    0.31
   6  -4   7    1.88    0.31
  -7   4  -7    8.05    0.55
   7  -4   7    8.21    0.58
  -7  -3   7    4.51    0.63
  -6  -3   7   23.03    1.11
  -5  -3   7   24.53    0.67
  -5  -3   7   23.05    1.05
  -4  -3   7    0.71    0.24
  -4  -3   7    0.97    0.15
  -3  -3   7   33.19    1.12
  -3  -3   7   33.11    0.88
  -2  -3   7    1.84    0.27
  -2  -3   7    2.02    0.24
  -2  -3   7    1.52    0.20
  -1  -3   7   30.72    0.84
  -1  -3   7   32.03    0.84
  -1  -3   7   30.00    0.89
  -1  -3   7   32.77    0.85
   0  -3   7  107.11    2.25
   0  -3   7  109.56    2.15
   0  -3   7  104.35    2.32
   0  -3   7  107.41    2.29
   1  -3   7    1.43    0.22
   1  -3   7    1.35    0.21
   1  -3   7    1.47    0.13
   1  -3   7    1.56    0.21
   2  -3   7    0.08    0.12
   2  -3   7    0.55    0.16
   2  -3   7    0.20    0.12
  -3   3  -7    3.42    0.31
   3  -3   7    2.79    0.30
   3  -3   7    3.64    0.35
   3  -3   7    3.71    0.36
  -4   3  -7   31.76    1.61
  -4   3  -7   30.74    0.93
   4  -3   7   31.22    1.02
   4  -3   7   29.78    0.97
  -5   3  -7   21.07    1.39
   5  -3   7   21.89    0.82
   5  -3   7   19.50    0.81
   6  -3   7    4.97    0.47
   6  -3   7    5.21    0.44
  -7   3  -7   12.71    0.68
   7  -3   7   13.15    0.70
  -7  -2   7    4.22    0.59
  -6  -2   7    1.39    0.35
  -5  -2   7    1.34    0.15
  -5  -2   7    1.37    0.32
  -4  -2   7    7.17    0.32
  -4  -2   7    6.92    0.51
  -3  -2   7   23.17    0.81
  -3  -2   7   22.28    0.84
  -3  -2   7   22.64    0.65
  -2  -2   7    4.60    0.32
  -2  -2   7    4.07    0.28
  -2  -2   7    4.53    0.34
  -1  -2   7   76.98    1.66
  -1  -2   7   77.23    1.73
  -1  -2   7   79.82    1.71
  -1  -2   7   78.16    1.70
   0  -2   7    0.29    0.11
   0  -2   7    0.22    0.11
   0  -2   7    0.31    0.13
   0  -2   7    0.40    0.10
   1  -2   7    0.11    0.11
   1  -2   7    0.06    0.10
   1  -2   7    0.36    0.13
  -2   2  -7   49.13    1.25
   2  -2   7   49.33    1.27
   2  -2   7   50.97    1.31
   2  -2   7   51.98    1.32
  -3   2  -7    4.89    0.33
   3  -2   7    4.70    0.35
   3  -2   7    4.11    0.33
  -4   2  -7   53.19    2.42
  -4   2  -7   52.36    1.33
   4  -2   7   53.23    1.45
   4  -2   7   52.77    1.41
  -5   2  -7   23.64    1.55
   5  -2   7   23.04    0.89
   5  -2   7   25.52    0.89
  -6   2  -7   10.02    1.13
   6  -2   7    8.92    0.54
   6  -2   7   10.15    0.59
   7  -2   7    0.97    0.27
  -8  -1   7    5.88    0.71
  -7  -1   7   27.39    1.27
  -6  -1   7    6.48    0.58
  -5  -1   7    8.18    0.58
  -5  -1   7    8.31    0.30
  -4  -1   7    3.25    0.39
  -4  -1   7    3.54    0.22
  -4  -1   7    3.01    0.34
  -3  -1   7   18.55    0.70
  -3  -1   7   18.22    0.72
  -3  -1   7   18.46    0.56
  -2  -1   7    2.48    0.26
  -2  -1   7    2.88    0.23
  -2  -1   7    2.39    0.26
  -1  -1   7    2.07    0.21
  -1  -1   7    2.01    0.20
  -1  -1   7    1.76    0.19
  -1  -1   7    1.60    0.20
   0  -1   7    2.12    0.22
   0  -1   7    1.90    0.22
   0  -1   7    2.73    0.26
  -1   1  -7   15.66    0.61
  -1   1  -7   16.41    0.58
   1  -1   7   17.35    0.59
   1  -1   7   16.04    0.59
   1  -1   7   16.78    0.60
  -2   1  -7    4.32    0.30
  -2   1  -7    4.38    0.34
   2  -1   7    3.81    0.29
   2  -1   7    3.73    0.31
   2  -1   7    3.85    0.30
  -3   1  -7   90.31    2.12
  -3   1  -7   90.45    2.01
   3  -1   7   93.11    2.07
   3  -1   7   91.49    2.11
  -4   1  -7    4.94    0.33
  -4   1  -7    6.09    0.96
   4  -1   7    4.86    0.37
   4  -1   7    4.67    0.36
  -5   1  -7    0.36    0.40
   5  -1   7   -0.01    0.14
   5  -1   7   -0.08    0.12
  -6   1  -7    0.05    0.48
   6  -1   7   -0.18    0.14
   6  -1   7    0.14    0.16
  -7   1  -7    0.91    0.74
   7  -1   7    1.51    0.30
  -8   0   7    5.25    0.67
  -7   0   7    0.84    0.29
  -6   0   7   30.22    1.23
  -5   0   7    9.62    0.57
  -5   0   7   10.21    0.65
  -4   0   7   49.76    1.09
  -4   0   7   50.10    1.47
  -4   0   7   48.10    1.39
  -3   0   7   -0.11    0.10
  -3   0   7   -0.01    0.08
  -3   0   7    0.03    0.11
  -2   0   7    7.40    0.38
  -2   0   7    7.66    0.39
  -2   0   7    7.46    0.35
   1   0  -7    9.74    0.40
  -1   0   7    9.47    0.38
  -1   0   7    9.95    0.42
  -1   0   7    9.35    0.40
  -1   0   7    9.71    0.39
   0   0  -7   47.37    1.14
   0   0   7   46.37    1.15
   0   0   7   43.75    1.14
   0   0   7   47.14    1.13
  -1   0  -7   22.82    0.72
  -1   0  -7   22.67    0.75
   1   0   7   23.61    0.74
   1   0   7   23.68    0.74
   1   0   7   23.05    0.72
  -2   0  -7   28.17    0.88
  -2   0  -7   27.37    0.82
   2   0   7   26.94    0.83
  -3   0  -7   13.01    0.53
  -3   0  -7   12.86    0.59
   3   0   7   12.76    0.57
   3   0   7   13.68    0.57
  -4   0  -7   36.32    1.12
  -4   0  -7   36.29    1.01
  -4   0  -7   36.28    2.01
   4   0   7   36.51    1.12
   4   0   7   36.60    1.09
  -5   0  -7    1.59    0.28
  -5   0  -7    2.23    0.75
   5   0   7    1.34    0.25
   5   0   7    1.73    0.28
  -6   0  -7    0.61    0.58
   6   0   7    0.22    0.18
   6   0   7    0.88    0.24
  -7   0  -7    0.00    0.64
   7   0   7   -0.03    0.18
  -8   1   7    5.51    0.69
  -7   1   7   18.81    1.00
  -6   1   7   27.66    1.14
  -6   1   7   28.16    1.09
  -5   1   7   13.18    0.72
  -5   1   7   14.72    0.70
  -5   1   7   14.22    0.41
  -4   1   7   27.40    0.70
  -4   1   7   27.38    0.94
  -4   1   7   26.75    0.95
   3  -1  -7   12.45    0.43
  -3   1   7   13.39    0.57
  -3   1   7   11.55    0.53
  -3   1   7   11.82    0.43
   2  -1  -7   44.30    1.06
  -2   1   7   43.13    1.15
  -2   1   7   44.73    1.08
   1  -1  -7    8.49    0.38
  -1   1   7    7.76    0.35
  -1   1   7    8.58    0.37
  -1   1   7    8.17    0.39
   0  -1  -7    1.01    0.16
   0   1   7    1.04    0.16
   0   1   7    1.14    0.18
   0   1   7    1.38    0.19
  -1  -1  -7   37.64    1.05
  -1  -1  -7   39.95    1.03
   1   1   7   37.06    1.03
   1   1   7   37.98    1.02
   1   1   7   38.42    1.05
  -2  -1  -7    0.11    0.11
  -2  -1  -7    0.27    0.13
   2   1   7    0.28    0.14
   2   1   7    0.20    0.11
   2   1   7    0.32    0.13
  -3  -1  -7    0.11    0.11
  -3  -1  -7    0.15    0.14
   3   1   7    0.21    0.12
   3   1   7    0.16    0.13
  -4  -1  -7   -0.01    0.13
  -4  -1  -7    0.34    0.43
   4   1   7    0.16    0.13
   4   1   7    0.41    0.18
  -5  -1  -7    4.83    1.04
  -5  -1  -7    3.51    0.40
   5   1   7    3.72    0.40
   5   1   7    4.03    0.41
  -6  -1  -7    0.29    0.20
  -6  -1  -7    0.70    0.62
   6   1   7    0.16    0.17
   6   1   7    0.18    0.18
  -7  -1  -7    2.30    0.86
  -8   2   7   12.88    0.88
  -7   2   7    0.89    0.27
  -7   2   7    1.98    0.41
  -6   2   7    4.75    0.50
  -6   2   7    5.64    0.58
  -5   2   7    0.82    0.23
  -5   2   7    1.05    0.13
  -5   2   7    0.68    0.21
   4  -2  -7   76.66    1.58
  -4   2   7   74.15    1.92
  -4   2   7   74.49    1.59
  -4   2   7   72.97    1.87
   3  -2  -7  101.95    2.09
  -3   2   7  103.13    2.14
  -3   2   7  101.92    2.35
  -3   2   7  101.00    2.31
   2  -2  -7    3.94    0.27
  -2   2   7    3.98    0.24
  -2   2   7    3.99    0.28
  -2   2   7    4.00    0.30
   1  -2  -7    2.17    0.23
  -1   2   7    2.17    0.22
  -1   2   7    1.97    0.21
  -1   2   7    2.75    0.26
   0  -2  -7    1.13    0.18
   0  -2  -7    1.62    0.21
   0   2   7    1.91    0.23
   0   2   7    1.45    0.19
   0   2   7    1.21    0.19
  -1  -2  -7    0.23    0.13
  -1  -2  -7    0.15    0.10
   1   2   7    0.06    0.09
   1   2   7   -0.10    0.10
   1   2   7    0.01    0.10
  -2  -2  -7   22.64    0.73
  -2  -2  -7   22.79    0.79
   2   2   7   21.45    0.75
   2   2   7   22.10    0.78
   2   2   7   21.53    0.76
  -3  -2  -7   16.98    0.62
  -3  -2  -7   16.08    0.68
   3   2   7   16.59    0.66
   3   2   7   17.29    0.70
  -4  -2  -7    1.43    0.59
  -4  -2  -7    0.66    0.21
   4   2   7    0.48    0.18
   4   2   7    0.59    0.19
  -5  -2  -7    3.20    0.39
  -5  -2  -7    3.53    0.93
   5   2   7    2.75    0.36
   5   2   7    2.99    0.36
  -6  -2  -7    9.64    1.23
  -6  -2  -7    9.25    0.59
   6   2   7    8.88    0.58
   6   2   7   10.05    0.59
  -8   3   7    0.34    0.26
  -7   3   7    6.41    0.55
  -7   3   7    6.77    0.59
  -6   3   7   58.44    1.79
  -5   3   7    4.67    0.43
  -5   3   7    4.23    0.43
  -5   3   7    4.12    0.26
   4  -3  -7    0.45    0.13
  -4   3   7    0.33    0.12
  -4   3   7    0.49    0.17
  -4   3   7    0.45    0.17
   3  -3  -7   11.42    0.44
  -3   3   7   11.18    0.50
  -3   3   7   11.15    0.54
  -3   3   7   11.88    0.46
   2  -3  -7    0.18    0.10
  -2   3   7    0.33    0.12
  -2   3   7    0.31    0.12
   1  -3  -7   27.37    0.81
  -1   3   7   27.30    0.78
  -1   3   7   28.54    0.85
  -1   3   7   28.06    0.82
   0  -3  -7    7.82    0.43
   0  -3  -7    8.43    0.41
   0   3   7    8.22    0.42
   0   3   7    7.72    0.39
   0   3   7    8.14    0.41
  -1  -3  -7    0.04    0.11
  -1  -3  -7    0.13    0.10
   1   3   7    0.26    0.12
   1   3   7    0.11    0.10
   1   3   7    0.17    0.12
  -2  -3  -7    0.30    0.14
  -2  -3  -7    0.39    0.16
   2   3   7    0.42    0.15
   2   3   7    0.17    0.14
   2   3   7    0.45    0.15
  -3  -3  -7    1.32    0.22
  -3  -3  -7    1.25    0.26
   3   3   7    1.16    0.22
   3   3   7    1.08    0.21
  -4  -3  -7    3.21    0.37
  -4  -3  -7    6.19    1.18
   4   3   7    4.28    0.41
   4   3   7    3.02    0.37
  -5  -3  -7    0.25    0.19
  -5  -3  -7   -0.10    0.45
   5   3   7    0.09    0.18
   5   3   7    0.21    0.17
  -6  -3  -7    1.90    0.34
  -6  -3  -7    2.35    0.90
   6   3   7    2.67    0.38
   6   3   7    1.80    0.32
  -8   4   7    7.83    0.71
  -8   4   7    8.65    0.66
  -7   4   7    0.17    0.19
  -7   4   7   -0.14    0.19
  -6   4   7   14.22    0.75
  -6   4   7   14.16    0.49
  -6   4   7   14.05    0.78
  -5   4   7   21.35    0.66
  -5   4   7   21.58    0.88
  -5   4   7   22.35    0.91
   4  -4  -7    0.34    0.12
  -4   4   7    0.19    0.14
  -4   4   7    0.66    0.19
  -4   4   7    0.52    0.14
   3  -4  -7    6.82    0.36
  -3   4   7    6.46    0.42
  -3   4   7    5.78    0.36
  -3   4   7    6.65    0.37
   2  -4  -7    2.75    0.27
   2  -4  -7    3.05    0.19
  -2   4   7    3.28    0.28
  -2   4   7    2.87    0.24
   1  -4  -7    8.52    0.44
   1  -4  -7    7.73    0.41
  -1   4   7    8.74    0.42
  -1   4   7    8.03    0.43
   0  -4  -7   24.70    0.79
   0  -4  -7   26.16    0.84
   0   4   7   24.64    0.82
   0   4   7   24.38    0.78
   0   4   7   22.90    0.80
  -1  -4  -7   13.00    0.55
  -1  -4  -7   12.59    0.58
   1   4   7   12.90    0.58
   1   4   7   12.88    0.58
   1   4   7   11.98    0.54
  -2  -4  -7    0.12    0.12
  -2  -4  -7   -0.02    0.13
   2   4   7    0.02    0.12
   2   4   7    0.09    0.10
   2   4   7    0.07    0.13
  -3  -4  -7    0.28    0.15
  -3  -4  -7    0.31    0.16
   3   4   7    0.25    0.16
   3   4   7    0.08    0.12
  -4  -4  -7    6.80    1.25
  -4  -4  -7    4.85    0.47
   4   4   7    5.70    0.43
   4   4   7    5.65    0.44
  -5  -4  -7    9.76    1.57
  -5  -4  -7    6.22    0.50
   5   4   7    5.64    0.46
   5   4   7    5.54    0.47
  -6  -4  -7   20.03    1.85
  -6  -4  -7   20.92    0.91
   6   4   7   19.92    0.93
  -8   5   7    0.19    0.28
  -8   5   7    0.29    0.23
  -7   5   7    1.29    0.34
  -7   5   7    0.71    0.24
  -6   5   7    2.15    0.24
  -6   5   7    1.57    0.31
  -6   5   7    2.32    0.39
   5  -5  -7    0.34    0.15
  -5   5   7    0.33    0.14
  -5   5   7    0.83    0.24
  -5   5   7    0.54    0.20
   4  -5  -7    1.50    0.22
  -4   5   7    0.72    0.20
  -4   5   7    0.71    0.20
  -4   5   7    0.97    0.18
   3  -5  -7   13.67    0.40
   3  -5  -7   13.50    0.55
  -3   5   7   13.82    0.57
   2  -5  -7   31.65    0.95
  -2   5   7   31.48    0.96
  -2   5   7   33.22    0.94
   1  -5  -7   27.86    0.88
   1  -5  -7   27.17    0.89
  -1   5   7   28.43    0.88
  -1   5   7   28.07    0.91
   0  -5  -7   51.65    1.36
   0  -5  -7   53.03    1.41
   0   5   7   52.73    1.41
   0   5   7   51.65    1.38
  -1  -5  -7    8.28    0.46
  -1  -5  -7    7.87    0.49
   1   5   7    7.90    0.47
   1   5   7    7.42    0.44
   1   5   7    8.07    0.47
  -2  -5  -7   21.95    0.80
  -2  -5  -7   22.95    0.87
   2   5   7   22.60    0.85
   2   5   7   22.16    0.82
  -3  -5  -7   62.55    1.72
  -3  -5  -7   63.74    1.60
   3   5   7   59.00    1.68
   3   5   7   61.49    1.65
  -4  -5  -7    6.84    0.51
  -4  -5  -7    8.66    1.44
   4   5   7    7.15    0.50
   4   5   7    6.47    0.49
  -5  -5  -7    3.26    0.98
  -5  -5  -7    1.01    0.26
   5   5   7    1.30    0.28
   5   5   7    1.24    0.29
  -8   6   7   -0.12    0.23
  -8   6   7    0.06    0.21
  -7   6   7   24.29    0.76
  -7   6   7   23.08    1.04
  -7   6   7   23.47    1.11
  -6   6   7    3.67    0.48
  -6   6   7    3.83    0.46
  -6   6   7    3.87    0.33
   5  -6  -7   12.34    0.55
  -5   6   7   14.06    0.70
  -5   6   7   12.24    0.69
  -5   6   7   13.22    0.57
   4  -6  -7    0.41    0.11
   4  -6  -7    0.31    0.15
  -4   6   7    0.00    0.13
  -4   6   7    0.19    0.13
   3  -6  -7    1.66    0.18
   3  -6  -7    2.10    0.26
  -3   6   7    1.26    0.22
   2  -6  -7   30.71    0.97
   2  -6  -7   29.29    0.93
  -2   6   7   28.75    0.91
  -2   6   7   29.80    0.97
   1  -6  -7    0.64    0.18
   1  -6  -7    0.24    0.14
  -1   6   7    0.65    0.18
  -1   6   7    0.21    0.14
   0  -6  -7   12.61    0.63
   0  -6  -7   12.04    0.57
   0   6   7   12.43    0.60
   0   6   7   13.16    0.62
  -1  -6  -7   49.52    1.38
  -1  -6  -7   50.15    1.44
   1   6   7   51.12    1.44
   1   6   7   48.39    1.42
  -2  -6  -7    8.47    0.55
  -2  -6  -7    8.29    0.50
   2   6   7    7.62    0.50
  -3  -6  -7   23.70    0.97
  -3  -6  -7   25.27    0.89
   3   6   7   25.20    0.98
  -4  -6  -7    7.60    1.05
  -4  -6  -7    7.55    0.55
   4   6   7    8.31    0.57
  -5  -6  -7    7.31    0.57
  -5  -6  -7   10.15    1.71
   5   6   7    7.20    0.58
  -8   7   7    0.06    0.21
  -8   7   7   -0.09    0.24
  -7   7   7   15.22    0.90
  -7   7   7   13.18    0.78
  -7   7   7   14.12    0.62
   6  -7  -7    0.14    0.09
  -6   7   7    0.09    0.13
  -6   7   7    0.16    0.18
   5  -7  -7   37.67    0.83
   5  -7  -7   37.76    1.12
  -5   7   7   37.34    1.14
  -5   7   7   37.62    1.27
   4  -7  -7    1.25    0.25
   4  -7  -7    1.30    0.18
  -4   7   7    1.78    0.30
  -4   7   7    1.21    0.23
   3  -7  -7    4.05    0.27
   3  -7  -7    3.94    0.38
  -3   7   7    3.75    0.38
   2  -7  -7   64.26    1.68
   2  -7  -7   66.96    1.72
  -2   7   7   67.05    1.75
  -2   7   7   65.90    1.68
   1  -7  -7   21.72    0.86
   1  -7  -7   23.38    0.86
  -1   7   7   24.04    0.90
  -1   7   7   22.77    0.85
   0  -7  -7    1.05    0.24
   0  -7  -7    0.85    0.23
   0   7   7    0.66    0.20
   0   7   7    0.74    0.21
  -1  -7  -7    0.09    0.13
  -1  -7  -7   -0.12    0.15
   1   7   7   -0.05    0.15
   1   7   7    0.07    0.15
  -2  -7  -7   54.13    1.61
  -2  -7  -7   52.87    1.49
   2   7   7   53.73    1.59
  -3  -7  -7   12.14    1.31
  -3  -7  -7   14.31    0.76
   3   7   7   13.82    0.73
  -4  -7  -7    1.31    0.31
  -4  -7  -7    2.39    0.91
   4   7   7    2.13    0.36
   8  -8  -7    0.83    0.15
  -8   8   7    0.36    0.24
  -8   8   7    1.06    0.23
   7  -8  -7   11.51    0.40
  -7   8   7   11.54    0.58
  -7   8   7   11.50    0.72
   6  -8  -7   15.14    0.49
  -6   8   7   14.91    0.68
  -6   8   7   13.90    0.77
   5  -8  -7   11.81    0.60
   5  -8  -7   10.97    0.42
  -5   8   7   10.51    0.59
  -5   8   7   10.81    0.64
   4  -8  -7   39.17    0.92
   4  -8  -7   37.17    1.16
  -4   8   7   37.57    1.20
  -4   8   7   36.19    1.24
   3  -8  -7   36.64    1.15
  -3   8   7   34.16    1.16
   2  -8  -7    7.35    0.49
   2  -8  -7    7.70    0.52
  -2   8   7    6.25    0.48
   1  -8  -7  109.40    2.58
   1  -8  -7  111.96    2.66
  -1   8   7  113.03    2.63
  -1   8   7  110.64    2.68
   0  -8  -7    0.48    0.18
   0  -8  -7    0.14    0.19
   0   8   7    0.29    0.18
   0   8   7    0.41    0.18
  -1  -8  -7    5.19    0.49
  -1  -8  -7    6.37    0.53
   1   8   7    6.82    0.50
   1   8   7    6.10    0.50
  -2  -8  -7    0.02    0.19
  -2  -8  -7   -0.11    0.16
   2   8   7    0.15    0.17
  -3  -8  -7    6.37    1.30
  -3  -8  -7    5.26    0.55
   3   8   7    5.83    0.58
  -4  -8  -7    0.09    0.55
  -4  -8  -7   -0.01    0.21
   4   8   7    0.05    0.20
   7  -9  -7    2.33    0.25
  -7   9   7    2.41    0.35
  -7   9   7    2.57    0.42
   6  -9  -7    0.44    0.16
   6  -9  -7    0.36    0.20
  -6   9   7    0.26    0.17
  -6   9   7    0.01    0.18
   5  -9  -7    0.34    0.20
  -5   9   7    0.58    0.24
  -5   9   7    0.70    0.22
   4  -9  -7   -0.05    0.15
  -4   9   7   -0.10    0.14
   3  -9  -7   15.94    0.74
  -3   9   7   15.12    0.75
   2  -9  -7    6.97    0.52
   2  -9  -7    8.60    0.60
  -2   9   7    9.10    0.59
   1  -9  -7    1.71    0.32
   1  -9  -7    2.44    0.35
  -1   9   7    2.12    0.36
  -1   9   7    2.20    0.33
   0  -9  -7    7.51    0.58
   0  -9  -7    7.79    0.54
   0   9   7    8.03    0.58
   0   9   7    8.44    0.56
  -1  -9  -7   14.16    0.80
  -1  -9  -7   16.13    0.77
   1   9   7   16.45    0.82
  -2  -9  -7    4.27    0.46
  -2  -9  -7    4.26    0.54
   2   9   7    4.25    0.50
  -3  -9  -7    5.95    0.62
  -3  -9  -7    5.98    1.25
   3   9   7    5.21    0.57
   7 -10  -7    2.55    0.30
  -7  10   7    2.85    0.39
  -7  10   7    3.12    0.46
   6 -10  -7    4.49    0.49
  -6  10   7    4.11    0.48
  -6  10   7    3.64    0.49
   5 -10  -7   18.61    0.85
  -5  10   7   17.62    0.88
  -5  10   7   18.32    0.85
   4 -10  -7   36.54    1.26
  -4  10   7   37.45    1.29
   3 -10  -7    0.23    0.20
  -3  10   7    0.95    0.26
   2 -10  -7   11.69    0.68
   2 -10  -7   12.17    0.73
  -2  10   7   12.00    0.71
   1 -10  -7    0.57    0.25
   1 -10  -7    0.10    0.17
  -1  10   7    0.22    0.20
  -1  10   7    0.11    0.18
   0 -10  -7    1.15    0.32
   0 -10  -7    0.61    0.24
   0  10   7    0.86    0.28
   0  10   7    0.65    0.25
  -1 -10  -7    4.65    0.55
  -1 -10  -7    3.79    0.46
   1  10   7    3.75    0.48
  -2 -10  -7    0.26    0.26
  -2 -10  -7    0.81    0.61
  -2 -10  -7    1.19    0.34
   2  10   7    0.23    0.22
   6 -11  -7    1.55    0.34
  -6  11   7    1.90    0.37
  -6  11   7    1.28    0.30
   5 -11  -7    4.18    0.50
  -5  11   7    4.68    0.54
  -5  11   7    3.44    0.45
   4 -11  -7    0.43    0.23
  -4  11   7    0.17    0.20
   3 -11  -7    0.20    0.22
  -3  11   7    0.56    0.25
   2 -11  -7    6.71    0.56
   2 -11  -7    7.21    0.61
  -2  11   7    7.86    0.60
   1 -11  -7    0.92    0.32
   1 -11  -7    0.82    0.28
  -1  11   7    1.04    0.31
   0 -11  -7    5.25    0.54
   0 -11  -7    4.77    0.57
   0  11   7    5.85    0.63
   0  11   7    6.34    0.62
  -1 -11  -7    0.65    0.30
  -1 -11  -7    0.63    0.27
   1  11   7    0.56    0.27
   5 -12  -7    0.36    0.26
  -5  12   7    0.93    0.28
  -5  12   7    0.34    0.22
   4 -12  -7   -0.05    0.21
  -4  12   7    0.02    0.21
   3 -12  -7    2.88    0.44
  -3  12   7    2.97    0.46
   2 -12  -7   -0.37    0.17
  -2  12   7    0.15    0.23
   1 -12  -7    0.44    0.28
   1 -12  -7    0.03    0.23
  -1  12   7    0.14    0.23
   0 -12  -7    0.33    0.29
   0 -12  -7    0.21    0.23
   0  12   7    0.71    0.28
   3 -13  -7    0.87    0.32
  -3  13   7    0.33    0.27
  -1 -12   8    2.04    0.42
   0 -12   8    4.79    0.55
   0 -12   8    4.47    0.58
   1 -12   8    5.85    0.65
   1 -12   8    7.09    0.59
  -2  12  -8   15.36    0.90
   2 -12   8   13.94    0.82
   2 -12   8   14.40    0.89
  -3  12  -8    2.14    0.42
   3 -12   8    1.90    0.40
   3 -12   8    2.43    0.47
   3 -12   8    1.84    0.39
  -2 -11   8   -0.07    0.21
  -1 -11   8    2.51    0.44
   0 -11   8    0.09    0.19
   0 -11   8    0.53    0.26
   1 -11   8    0.13    0.20
   1 -11   8   -0.05    0.18
  -2  11  -8   13.14    0.80
   2 -11   8   12.46    0.74
   2 -11   8   12.57    0.79
  -3  11  -8   17.14    0.93
   3 -11   8   16.05    0.88
   3 -11   8   16.95    0.91
   3 -11   8   16.91    0.88
  -4  11  -8    0.51    0.29
   4 -11   8    0.30    0.26
   4 -11   8    0.31    0.24
  -5  11  -8    0.48    0.29
   5 -11   8    0.43    0.27
   5 -11   8    0.16    0.25
  -3 -10   8   11.30    0.84
  -3 -10   8   10.39    0.68
  -2 -10   8    8.40    0.61
  -1 -10   8    0.21    0.18
  -1 -10   8    0.37    0.24
   0 -10   8   12.19    0.74
   0 -10   8   11.54    0.64
  -1  10  -8   12.52    0.74
   1 -10   8   12.68    0.75
   1 -10   8   12.43    0.68
  -2  10  -8   -0.01    0.19
   2 -10   8   -0.05    0.21
   2 -10   8    0.00    0.16
   2 -10   8   -0.22    0.18
  -3  10  -8    5.11    0.56
   3 -10   8    5.45    0.55
   3 -10   8    5.00    0.55
   3 -10   8    4.35    0.51
  -4  10  -8    0.76    0.27
   4 -10   8    0.74    0.26
   4 -10   8    0.63    0.26
  -5  10  -8    2.84    0.45
   5 -10   8    3.22    0.45
   5 -10   8    3.05    0.45
  -4  -9   8    3.30    0.41
  -4  -9   8    3.46    0.60
  -3  -9   8    1.57    0.31
  -3  -9   8    1.97    0.43
  -2  -9   8   71.20    1.96
  -1  -9   8    2.21    0.35
  -1  -9   8    2.76    0.35
   0  -9   8    0.01    0.15
   0  -9   8   -0.05    0.18
  -1   9  -8    4.41    0.48
   1  -9   8    3.87    0.43
   1  -9   8    3.91    0.48
  -2   9  -8    2.57    0.39
   2  -9   8    1.91    0.34
   2  -9   8    2.21    0.33
   2  -9   8    2.14    0.37
  -3   9  -8    2.20    0.37
   3  -9   8    1.58    0.32
   3  -9   8    2.21    0.38
   3  -9   8    3.02    0.41
  -4   9  -8    1.00    0.29
   4  -9   8    1.50    0.30
   4  -9   8    1.18    0.30
  -5   9  -8    1.40    0.34
   5  -9   8    1.00    0.29
   5  -9   8    1.75    0.35
  -6   9  -8    0.40    0.25
   6  -9   8    0.52    0.25
   6  -9   8    0.61    0.27
  -5  -8   8    0.95    0.26
  -5  -8   8    1.68    0.43
  -4  -8   8    3.36    0.56
  -4  -8   8    3.08    0.38
  -3  -8   8    0.13    0.22
  -3  -8   8    0.34    0.21
  -2  -8   8    0.59    0.22
  -1  -8   8    7.30    0.45
  -1  -8   8    6.64    0.50
   0  -8   8    1.84    0.29
   0  -8   8    2.44    0.35
  -1   8  -8   16.73    0.79
   1  -8   8   17.33    0.77
   1  -8   8   18.34    0.82
   1  -8   8   17.51    0.75
  -2   8  -8    0.04    0.17
   2  -8   8    0.39    0.16
   2  -8   8    0.09    0.20
   2  -8   8    0.25    0.18
  -3   8  -8    3.22    0.41
   3  -8   8    2.29    0.35
   3  -8   8    1.82    0.31
   3  -8   8    3.37    0.44
  -4   8  -8    3.45    0.45
   4  -8   8    3.65    0.43
   4  -8   8    3.50    0.43
  -5   8  -8    4.99    0.55
   5  -8   8    5.19    0.53
   5  -8   8    4.45    0.49
  -6   8  -8    1.13    0.30
   6  -8   8    1.05    0.29
   6  -8   8    1.50    0.33
  -5  -7   8   17.69    1.02
  -5  -7   8   17.60    0.74
  -4  -7   8    0.77    0.31
  -4  -7   8    0.63    0.22
  -3  -7   8   -0.08    0.18
  -3  -7   8    0.21    0.18
  -2  -7   8    1.10    0.24
  -1  -7   8    1.64    0.25
  -1  -7   8    1.69    0.30
   0   7  -8    0.01    0.14
   0  -7   8    0.13    0.13
   0  -7   8    0.02    0.15
  -1   7  -8    0.10    0.14
   1  -7   8    0.09    0.14
   1  -7   8   -0.09    0.14
   1  -7   8    0.19    0.16
  -2   7  -8    5.09    0.43
   2  -7   8    4.67    0.47
   2  -7   8    3.82    0.41
   2  -7   8    4.70    0.40
  -3   7  -8   12.15    0.66
   3  -7   8   11.64    0.63
   3  -7   8   12.45    0.66
   3  -7   8   12.85    0.66
  -4   7  -8   20.30    0.88
   4  -7   8   18.62    0.84
   4  -7   8   19.94    0.84
  -5   7  -8   -0.08    0.14
   5  -7   8    0.36    0.22
   5  -7   8    0.29    0.18
  -6   7  -8   10.41    0.65
   6  -7   8    9.22    0.63
   6  -7   8   10.15    0.64
  -6  -6   8    0.41    0.30
  -5  -6   8    0.02    0.22
  -5  -6   8    0.35    0.16
  -4  -6   8    0.05    0.20
  -4  -6   8    0.14    0.15
  -3  -6   8   66.81    1.70
  -3  -6   8   69.63    2.04
  -2  -6   8    0.21    0.15
  -1  -6   8   17.52    0.65
  -1  -6   8   17.59    0.72
   0   6  -8   14.18    0.66
   0  -6   8   14.88    0.64
   0  -6   8   14.45    0.66
   0  -6   8   15.63    0.63
  -1   6  -8    2.84    0.34
   1  -6   8    2.41    0.30
   1  -6   8    2.27    0.31
   1  -6   8    2.65    0.32
  -2   6  -8    1.52    0.27
   2  -6   8    1.28    0.25
   2  -6   8    1.21    0.25
   2  -6   8    1.38    0.24
  -3   6  -8    4.20    0.44
   3  -6   8    4.30    0.42
   3  -6   8    4.41    0.43
   3  -6   8    4.83    0.46
  -4   6  -8   43.07    1.36
   4  -6   8   40.00    1.31
   4  -6   8   41.53    1.29
  -5   6  -8   14.65    0.77
   5  -6   8   15.08    0.74
   5  -6   8   16.56    0.79
  -6   6  -8    0.13    0.18
   6  -6   8   -0.08    0.17
   6  -6   8    0.20    0.19
  -7   6  -8   -0.18    0.17
   7  -6   8   -0.01    0.20
   7  -6   8   -0.13    0.19
  -6  -5   8    3.62    0.58
  -5  -5   8    5.36    0.63
  -5  -5   8    4.61    0.35
  -4  -5   8   12.41    0.55
  -4  -5   8   11.75    0.74
  -3  -5   8    3.01    0.31
  -3  -5   8    3.47    0.45
  -2  -5   8   57.29    1.48
  -2  -5   8   58.66    1.37
  -1  -5   8    0.84    0.17
  -1  -5   8    0.66    0.18
   0   5  -8    6.41    0.42
   0  -5   8    6.96    0.43
   0  -5   8    6.47    0.40
   0  -5   8    7.03    0.41
  -1   5  -8    1.05    0.22
   1  -5   8    1.42    0.24
   1  -5   8    1.72    0.25
   1  -5   8    0.85    0.21
  -2   5  -8   18.56    0.77
   2  -5   8   19.28    0.76
   2  -5   8   18.43    0.73
   2  -5   8   19.61    0.77
  -3   5  -8   74.80    1.92
   3  -5   8   70.97    1.87
   3  -5   8   75.34    1.86
  -4   5  -8   21.40    0.87
  -4   5  -8   21.65    0.80
   4  -5   8   18.76    0.81
   4  -5   8   22.19    0.87
  -5   5  -8   22.23    0.91
   5  -5   8   20.63    0.88
   5  -5   8   20.87    0.87
  -6   5  -8   14.34    0.75
   6  -5   8   13.92    0.74
   6  -5   8   13.67    0.72
  -7   5  -8    1.46    0.30
   7  -5   8    1.59    0.35
   7  -5   8    1.43    0.32
  -7  -4   8    5.45    0.72
  -6  -4   8    2.92    0.50
  -5  -4   8   46.20    1.63
  -5  -4   8   45.18    1.15
  -4  -4   8    8.09    0.41
  -4  -4   8    7.72    0.57
  -3  -4   8    2.52    0.27
  -3  -4   8    3.24    0.41
  -2  -4   8    8.10    0.51
  -2  -4   8    7.20    0.36
  -2  -4   8    8.02    0.42
  -1  -4   8   15.59    0.57
  -1  -4   8   16.61    0.65
  -1  -4   8   16.17    0.60
  -1  -4   8   16.54    0.57
   0   4  -8   55.87    1.45
   0  -4   8   58.75    1.25
   0  -4   8   55.14    1.39
   0  -4   8   55.39    1.44
   0  -4   8   55.74    1.41
  -1   4  -8   19.88    0.75
   1  -4   8   19.08    0.70
   1  -4   8   19.26    0.73
   1  -4   8   18.95    0.71
  -2   4  -8   13.69    0.62
   2  -4   8   12.32    0.57
   2  -4   8   13.06    0.60
   2  -4   8   12.55    0.59
  -3   4  -8   20.15    0.76
  -3   4  -8   20.71    0.82
   3  -4   8   21.37    0.81
   3  -4   8   20.23    0.78
   3  -4   8   22.52    0.83
  -4   4  -8   20.71    0.77
  -4   4  -8   20.49    0.84
   4  -4   8   20.60    0.81
   4  -4   8   20.48    0.84
  -5   4  -8   19.10    0.83
   5  -4   8   20.45    0.86
   5  -4   8   18.70    0.80
  -6   4  -8    2.20    0.34
   6  -4   8    2.23    0.36
   6  -4   8    2.30    0.36
  -7   4  -8    0.56    0.24
   7  -4   8    1.11    0.28
   7  -4   8    0.62    0.25
  -7  -3   8   18.08    1.07
  -6  -3   8    0.37    0.25
  -5  -3   8   38.03    1.41
  -5  -3   8   38.20    0.96
  -4  -3   8   44.50    1.47
  -4  -3   8   46.04    1.14
  -3  -3   8    0.08    0.13
  -3  -3   8    0.16    0.12
  -3  -3   8   -0.04    0.14
  -2  -3   8   32.55    1.07
  -2  -3   8   34.45    0.96
  -2  -3   8   34.07    0.87
  -2  -3   8   34.38    0.99
  -1  -3   8   15.15    0.53
  -1  -3   8   14.56    0.58
  -1  -3   8   14.74    0.55
  -1  -3   8   14.53    0.53
   0  -3   8   14.41    0.55
   0  -3   8   14.60    0.46
   0  -3   8   14.11    0.58
   0  -3   8   13.80    0.56
   1  -3   8   29.11    0.88
   1  -3   8   27.44    0.89
   1  -3   8   28.96    0.90
   1  -3   8   28.80    0.69
   2  -3   8   63.17    1.62
   2  -3   8   64.74    1.64
   2  -3   8   66.51    1.61
  -3   3  -8   16.22    0.65
   3  -3   8   16.50    0.70
   3  -3   8   17.44    0.70
   3  -3   8   16.41    0.68
  -4   3  -8    0.00    0.11
  -4   3  -8    0.35    0.32
   4  -3   8   -0.05    0.14
   4  -3   8   -0.03    0.11
   5  -3   8    2.53    0.34
   5  -3   8    2.48    0.34
   6  -3   8    3.58    0.43
   6  -3   8    4.01    0.46
  -7   3  -8    0.33    0.20
   7  -3   8    0.40    0.23
   7  -3   8    0.48    0.22
  -7  -2   8    4.96    0.65
  -6  -2   8    4.32    0.56
  -5  -2   8    0.69    0.26
  -5  -2   8    0.58    0.13
  -4  -2   8   73.12    1.90
  -4  -2   8   71.18    1.99
  -4  -2   8   73.22    1.60
  -3  -2   8  107.09    2.25
  -3  -2   8  108.78    2.57
  -3  -2   8  102.40    2.41
  -2  -2   8    0.67    0.17
  -2  -2   8    0.23    0.12
  -2  -2   8    0.31    0.10
  -2  -2   8    0.56    0.14
  -1  -2   8   85.67    1.89
  -1  -2   8   88.35    1.91
  -1  -2   8   88.99    1.88
  -1  -2   8   85.21    1.95
   0  -2   8   44.27    1.06
   0  -2   8   44.03    1.17
   0  -2   8   46.54    1.16
   0  -2   8   46.63    1.21
   1  -2   8    4.28    0.32
   1  -2   8    3.82    0.30
   1  -2   8    4.20    0.33
  -2   2  -8    1.10    0.20
   2  -2   8    1.48    0.24
   2  -2   8    0.84    0.19
   2  -2   8    1.12    0.20
  -3   2  -8   27.55    0.88
   3  -2   8   26.85    0.93
   3  -2   8   28.24    0.91
   3  -2   8   26.49    0.91
  -4   2  -8   11.93    0.55
  -4   2  -8   11.68    1.01
   4  -2   8   10.94    0.58
   4  -2   8   12.89    0.62
  -5   2  -8    9.73    0.99
   5  -2   8    7.91    0.51
   5  -2   8    9.22    0.56
  -6   2  -8    1.98    0.69
   6  -2   8    1.20    0.28
   6  -2   8    0.70    0.23
   7  -2   8    0.02    0.19
  -8  -1   8   14.92    0.97
  -7  -1   8    8.52    0.71
  -6  -1   8    7.57    0.63
  -5  -1   8   23.72    0.63
  -5  -1   8   22.90    0.95
  -5  -1   8   25.09    1.04
  -4  -1   8   11.91    0.61
  -4  -1   8   12.07    0.44
  -4  -1   8   11.59    0.63
  -3  -1   8   19.78    0.74
  -3  -1   8   20.26    0.63
  -3  -1   8   19.47    0.76
  -2  -1   8    0.09    0.10
  -2  -1   8    0.00    0.11
  -2  -1   8    0.42    0.10
  -2  -1   8    0.15    0.12
  -1  -1   8   81.14    1.74
  -1  -1   8   79.99    1.78
  -1  -1   8   81.05    1.78
  -1  -1   8   78.93    1.81
   0   1  -8   52.12    1.29
   0  -1   8   53.03    1.30
   0  -1   8   52.42    1.27
   0  -1   8   51.56    1.32
  -1   1  -8   15.89    0.64
  -1   1  -8   16.34    0.61
   1  -1   8   16.58    0.64
   1  -1   8   16.54    0.61
   1  -1   8   17.85    0.66
  -2   1  -8   20.81    0.72
  -2   1  -8   20.69    0.76
   2  -1   8   21.20    0.76
   2  -1   8   21.02    0.73
   2  -1   8   21.91    0.77
  -3   1  -8    0.03    0.10
  -3   1  -8   -0.01    0.13
   3  -1   8    0.17    0.12
   3  -1   8   -0.15    0.10
   3  -1   8   -0.20    0.10
  -4   1  -8    6.98    0.84
  -4   1  -8    7.19    0.42
   4  -1   8    7.61    0.47
   4  -1   8    7.16    0.47
  -5   1  -8    5.62    0.83
   5  -1   8    6.84    0.47
   5  -1   8    6.15    0.46
  -6   1  -8    0.88    0.59
   6  -1   8    1.05    0.27
   6  -1   8    0.61    0.25
  -7   1  -8    0.62    0.73
   7  -1   8    1.12    0.29
  -8   0   8    1.44    0.41
  -7   0   8    0.52    0.28
  -6   0   8    1.23    0.32
  -6   0   8    1.57    0.32
  -5   0   8    4.24    0.24
  -5   0   8    4.33    0.48
  -5   0   8    4.36    0.47
  -4   0   8    0.24    0.15
  -4   0   8   -0.02    0.08
  -4   0   8    0.09    0.15
  -3   0   8    7.58    0.43
  -3   0   8    7.18    0.44
  -3   0   8    7.07    0.34
   2   0  -8   72.79    1.61
  -2   0   8   74.06    1.73
  -2   0   8   74.37    1.74
  -2   0   8   72.30    1.54
  -2   0   8   71.86    1.65
   1   0  -8    3.59    0.27
  -1   0   8    2.72    0.22
  -1   0   8    3.33    0.26
  -1   0   8    3.42    0.26
  -1   0   8    2.69    0.27
   0   0  -8    4.45    0.31
   0   0  -8    4.98    0.35
   0   0   8    4.56    0.30
   0   0   8    4.27    0.30
   0   0   8    5.02    0.34
  -1   0  -8    0.94    0.18
  -1   0  -8    1.35    0.23
   1   0   8    1.03    0.18
   1   0   8    0.79    0.16
   1   0   8    1.43    0.22
  -2   0  -8    0.37    0.14
  -2   0  -8    0.53    0.17
   2   0   8    0.54    0.15
   2   0   8    0.39    0.16
   2   0   8    0.61    0.17
  -3   0  -8    0.07    0.11
  -3   0  -8    0.12    0.14
   3   0   8   -0.12    0.10
   3   0   8    0.27    0.15
  -4   0  -8    2.04    0.31
  -4   0  -8    2.82    0.30
  -4   0  -8    3.02    0.75
   4   0   8    2.22    0.31
   4   0   8    2.43    0.31
  -5   0  -8   22.76    0.91
  -5   0  -8   23.12    1.66
   5   0   8   21.29    0.86
   5   0   8   22.76    0.91
  -6   0  -8   11.25    1.26
   6   0   8   10.86    0.64
   6   0   8   10.67    0.63
  -8   1   8    2.98    0.53
  -7   1   8    7.27    0.73
  -6   1   8   13.05    0.73
  -6   1   8   12.99    0.77
  -5   1   8    0.70    0.13
  -5   1   8    0.57    0.22
  -5   1   8    0.52    0.20
   4  -1  -8    0.07    0.09
  -4   1   8    0.38    0.17
  -4   1   8    0.09    0.09
  -4   1   8    0.28    0.15
   3  -1  -8    8.76    0.38
  -3   1   8    9.59    0.48
  -3   1   8    9.17    0.40
  -3   1   8    9.26    0.49
   2  -1  -8   53.94    1.29
  -2   1   8   54.02    1.39
  -2   1   8   52.76    1.22
  -2   1   8   55.81    1.26
  -2   1   8   56.81    1.34
  -2   1   8   55.12    1.35
   1  -1  -8   -0.03    0.09
  -1   1   8   -0.06    0.09
  -1   1   8   -0.08    0.09
  -1   1   8    0.03    0.08
   0  -1  -8    0.01    0.10
   0  -1  -8    0.21    0.13
   0   1   8    0.12    0.11
   0   1   8    0.17    0.12
   0   1   8    0.09    0.09
  -1  -1  -8    6.31    0.38
  -1  -1  -8    6.34    0.41
   1   1   8    6.29    0.39
   1   1   8    6.27    0.38
   1   1   8    6.38    0.37
  -2  -1  -8   10.43    0.54
  -2  -1  -8   10.61    0.49
   2   1   8   10.99    0.53
   2   1   8   10.90    0.52
   2   1   8    9.77    0.49
  -3  -1  -8    3.54    0.37
  -3  -1  -8    4.68    0.34
   3   1   8    4.16    0.35
   3   1   8    4.40    0.36
  -4  -1  -8    3.20    0.84
  -4  -1  -8    2.04    0.31
   4   1   8    2.72    0.34
   4   1   8    3.05    0.35
  -5  -1  -8   15.46    0.75
  -5  -1  -8   15.61    1.38
   5   1   8   16.89    0.74
   5   1   8   14.39    0.71
  -6  -1  -8   11.78    0.69
  -6  -1  -8   10.72    1.28
   6   1   8   11.18    0.63
   6   1   8   10.84    0.64
  -8   2   8    5.62    0.69
  -7   2   8    6.75    0.69
  -7   2   8    7.51    0.60
  -6   2   8    0.32    0.20
  -6   2   8    0.33    0.22
  -5   2   8    8.04    0.54
  -5   2   8    7.81    0.34
  -5   2   8    8.16    0.57
   4  -2  -8   18.29    0.58
  -4   2   8   17.75    0.58
  -4   2   8   18.10    0.75
  -4   2   8   18.79    0.77
   3  -2  -8   42.11    1.05
  -3   2   8   41.20    1.20
  -3   2   8   42.79    1.18
  -3   2   8   41.52    1.07
   2  -2  -8    8.87    0.41
  -2   2   8    9.41    0.46
  -2   2   8    8.63    0.38
  -2   2   8    8.96    0.42
  -2   2   8    8.83    0.37
   1  -2  -8    0.68    0.16
  -1   2   8    0.59    0.15
  -1   2   8    0.68    0.15
  -1   2   8    0.64    0.14
   0  -2  -8   15.57    0.59
   0  -2  -8   15.27    0.61
   0   2   8   14.75    0.56
   0   2   8   15.76    0.60
   0   2   8   14.97    0.61
  -1  -2  -8    6.53    0.38
  -1  -2  -8    6.10    0.42
   1   2   8    5.60    0.36
   1   2   8    6.23    0.39
   1   2   8    5.57    0.37
  -2  -2  -8    0.09    0.10
  -2  -2  -8   -0.04    0.12
   2   2   8    0.08    0.11
   2   2   8    0.13    0.13
   2   2   8   -0.04    0.09
  -3  -2  -8    5.64    0.37
  -3  -2  -8    6.24    0.45
   3   2   8    6.26    0.42
   3   2   8    5.94    0.42
  -4  -2  -8    6.57    0.49
  -4  -2  -8    8.08    1.30
   4   2   8    7.02    0.48
   4   2   8    5.73    0.44
  -5  -2  -8    7.53    1.03
  -5  -2  -8    8.74    0.57
   5   2   8    7.94    0.53
   5   2   8    7.81    0.54
  -6  -2  -8    0.22    0.21
  -6  -2  -8    0.46    0.63
   6   2   8    0.18    0.18
   6   2   8   -0.06    0.18
  -8   3   8    7.53    0.65
  -8   3   8    7.70    0.78
  -7   3   8    4.15    0.54
  -7   3   8    4.11    0.51
  -6   3   8   28.36    1.10
  -6   3   8   25.70    1.09
  -6   3   8   26.79    0.71
  -5   3   8   24.53    0.72
  -5   3   8   24.74    0.97
  -5   3   8   24.99    0.98
   4  -3  -8    6.76    0.35
  -4   3   8    6.32    0.43
  -4   3   8    6.34    0.45
  -4   3   8    6.12    0.34
   3  -3  -8    2.33    0.25
  -3   3   8    2.53    0.28
  -3   3   8    2.33    0.25
  -3   3   8    3.05    0.34
   2  -3  -8   32.75    0.91
  -2   3   8   30.56    0.91
  -2   3   8   31.05    0.87
   1  -3  -8   -0.13    0.09
   1  -3  -8    0.01    0.11
  -1   3   8    0.12    0.11
  -1   3   8    0.01    0.08
  -1   3   8    0.02    0.10
   0  -3  -8    5.60    0.39
   0  -3  -8    5.32    0.36
   0   3   8    5.62    0.34
   0   3   8    5.08    0.35
   0   3   8    6.08    0.39
  -1  -3  -8    0.05    0.12
  -1  -3  -8    0.09    0.11
   1   3   8    0.03    0.09
   1   3   8   -0.12    0.10
   1   3   8    0.11    0.12
  -2  -3  -8   40.33    1.14
  -2  -3  -8   41.02    1.22
   2   3   8   39.93    1.17
   2   3   8   40.85    1.20
   2   3   8   41.92    1.22
  -3  -3  -8    7.66    0.52
  -3  -3  -8    8.21    0.46
   3   3   8    7.47    0.49
   3   3   8    7.30    0.46
  -4  -3  -8    2.76    0.37
  -4  -3  -8    4.87    1.08
   4   3   8    3.53    0.39
   4   3   8    3.16    0.38
  -5  -3  -8    4.88    1.15
  -5  -3  -8    4.35    0.46
   5   3   8    3.88    0.44
   5   3   8    4.51    0.48
  -6  -3  -8    5.82    0.56
  -6  -3  -8    7.55    1.47
   6   3   8    6.49    0.52
   6   3   8    5.41    0.54
  -8   4   8    3.42    0.54
  -8   4   8    4.26    0.54
  -7   4   8    5.61    0.62
  -7   4   8    4.45    0.54
  -6   4   8   32.47    1.23
  -6   4   8   33.86    1.28
  -6   4   8   33.54    0.89
  -5   4   8    0.14    0.11
  -5   4   8   -0.17    0.15
  -5   4   8    0.08    0.14
   4  -4  -8   10.33    0.46
  -4   4   8   10.22    0.57
  -4   4   8   10.64    0.47
  -4   4   8   10.09    0.55
   3  -4  -8    0.10    0.11
  -3   4   8    0.00    0.11
  -3   4   8    0.04    0.12
  -3   4   8    0.01    0.11
   2  -4  -8    0.04    0.10
   2  -4  -8    0.06    0.08
  -2   4   8    0.00    0.10
  -2   4   8   -0.11    0.09
   1  -4  -8   40.68    1.14
   1  -4  -8   41.61    1.13
  -1   4   8   40.70    1.13
  -1   4   8   40.54    1.16
   0  -4  -8    0.26    0.12
   0  -4  -8    0.29    0.16
   0   4   8    0.35    0.13
   0   4   8    0.47    0.16
   0   4   8    0.60    0.17
  -1  -4  -8    9.48    0.53
  -1  -4  -8    7.75    0.45
   1   4   8    7.62    0.47
   1   4   8    8.21    0.46
   1   4   8    7.66    0.47
  -2  -4  -8    0.19    0.13
  -2  -4  -8    0.08    0.14
   2   4   8    0.27    0.16
   2   4   8    0.51    0.19
   2   4   8   -0.10    0.14
  -3  -4  -8    9.31    0.57
  -3  -4  -8    9.48    0.51
   3   4   8    9.92    0.56
   3   4   8    9.43    0.56
  -4  -4  -8    0.56    0.21
  -4  -4  -8    0.44    0.54
   4   4   8    0.42    0.19
   4   4   8    0.43    0.19
  -5  -4  -8    4.84    0.50
  -5  -4  -8    7.88    1.45
   5   4   8    6.09    0.56
   5   4   8    5.44    0.54
  -8   5   8    2.74    0.51
  -8   5   8    3.29    0.50
  -7   5   8    2.54    0.45
  -7   5   8    2.44    0.40
  -6   5   8    2.44    0.38
  -6   5   8    2.01    0.38
  -6   5   8    2.65    0.27
   5  -5  -8    0.04    0.12
  -5   5   8   -0.10    0.14
  -5   5   8    0.14    0.13
  -5   5   8    0.02    0.16
   4  -5  -8    3.59    0.33
  -4   5   8    3.11    0.35
  -4   5   8    3.04    0.37
  -4   5   8    3.53    0.33
   3  -5  -8   63.40    1.57
   3  -5  -8   63.39    1.25
  -3   5   8   65.02    1.61
   2  -5  -8    7.42    0.32
   2  -5  -8    6.46    0.42
   2  -5  -8    5.57    0.39
  -2   5   8    6.69    0.38
  -2   5   8    7.43    0.44
   1  -5  -8    0.77    0.20
   1  -5  -8    0.59    0.18
  -1   5   8    0.67    0.18
  -1   5   8    0.83    0.19
   0  -5  -8    7.09    0.47
   0  -5  -8    7.30    0.44
   0   5   8    7.68    0.46
   0   5   8    6.65    0.45
  -1  -5  -8    3.22    0.35
  -1  -5  -8    3.30    0.38
   1   5   8    3.04    0.35
   1   5   8    3.05    0.36
   1   5   8    2.66    0.32
  -2  -5  -8    0.36    0.16
  -2  -5  -8    0.36    0.19
   2   5   8    0.19    0.15
   2   5   8    0.24    0.17
  -3  -5  -8   -0.15    0.17
  -3  -5  -8    0.16    0.16
   3   5   8   -0.11    0.15
   3   5   8    0.36    0.17
  -4  -5  -8    1.37    0.28
  -4  -5  -8    3.67    0.99
   4   5   8    3.09    0.41
   4   5   8    2.33    0.37
  -5  -5  -8   14.68    1.50
  -5  -5  -8   15.27    0.79
   5   5   8   12.74    0.74
   5   5   8   14.72    0.76
  -8   6   8    0.16    0.23
  -8   6   8    1.06    0.35
  -7   6   8    2.60    0.45
  -7   6   8    2.91    0.44
  -7   6   8    3.77    0.34
  -6   6   8    7.13    0.56
  -6   6   8    6.60    0.56
  -6   6   8    7.61    0.43
   5  -6  -8    2.28    0.29
   5  -6  -8    1.92    0.17
  -5   6   8    2.33    0.35
  -5   6   8    2.51    0.37
  -5   6   8    2.84    0.31
   4  -6  -8   32.39    1.00
   4  -6  -8   32.52    0.75
  -4   6   8   32.23    1.13
  -4   6   8   31.67    1.01
   3  -6  -8    5.28    0.29
   3  -6  -8    5.60    0.40
  -3   6   8    5.88    0.41
   2  -6  -8    1.39    0.24
   2  -6  -8    0.79    0.19
  -2   6   8    1.56    0.25
   1  -6  -8    0.30    0.17
   1  -6  -8    0.16    0.14
  -1   6   8    0.23    0.15
  -1   6   8    0.19    0.14
   0  -6  -8    6.55    0.49
   0  -6  -8    6.77    0.45
   0   6   8    6.52    0.44
   0   6   8    7.07    0.48
  -1  -6  -8    1.15    0.26
  -1  -6  -8    1.22    0.24
   1   6   8    0.76    0.22
   1   6   8    1.37    0.27
  -2  -6  -8    6.99    0.54
  -2  -6  -8    7.43    0.48
   2   6   8    7.25    0.50
  -3  -6  -8   21.12    0.83
  -3  -6  -8   20.07    0.92
   3   6   8   20.27    0.90
  -4  -6  -8    0.34    0.21
  -4  -6  -8    0.69    0.61
   4   6   8    0.37    0.22
  -5  -6  -8    1.07    0.72
  -5  -6  -8    0.03    0.20
   5   6   8    0.22    0.22
  -8   7   8    0.30    0.30
  -8   7   8    0.40    0.26
  -7   7   8   37.15    1.47
  -7   7   8   38.82    1.42
  -7   7   8   36.76    1.10
   6  -7  -8    0.32    0.11
  -6   7   8    0.36    0.18
  -6   7   8    0.39    0.22
   5  -7  -8   17.38    0.51
   5  -7  -8   17.21    0.71
  -5   7   8   16.78    0.82
  -5   7   8   16.19    0.71
   4  -7  -8    0.86    0.17
   4  -7  -8    1.38    0.25
  -4   7   8    1.72    0.31
  -4   7   8    1.00    0.24
   3  -7  -8    5.80    0.42
  -3   7   8    5.36    0.43
   2  -7  -8    0.13    0.15
   2  -7  -8    0.56    0.19
  -2   7   8    0.06    0.14
   1  -7  -8   48.29    1.44
  -1   7   8   45.28    1.40
  -1   7   8   48.27    1.38
   0  -7  -8   28.25    1.03
   0  -7  -8   25.89    0.95
   0   7   8   23.13    0.94
   0   7   8   24.21    0.94
  -1  -7  -8    8.04    0.57
  -1  -7  -8    8.60    0.54
   1   7   8    8.68    0.55
   1   7   8    8.97    0.58
  -2  -7  -8    2.76    0.37
  -2  -7  -8    1.81    0.35
   2   7   8    2.12    0.35
  -3  -7  -8    5.75    0.57
   3   7   8    5.29    0.54
  -4  -7  -8    0.06    0.21
  -4  -7  -8   -0.32    0.48
   4   7   8    0.36    0.23
   7  -8  -8   -0.12    0.11
  -7   8   8    0.09    0.15
  -7   8   8    0.05    0.21
   6  -8  -8    2.16    0.23
  -6   8   8    1.84    0.30
  -6   8   8    2.15    0.38
   5  -8  -8   14.65    0.70
   5  -8  -8   16.11    0.53
  -5   8   8   16.85    0.76
  -5   8   8   16.37    0.82
   4  -8  -8   14.41    0.70
  -4   8   8   14.36    0.71
  -4   8   8   15.43    0.76
   3  -8  -8  122.16    2.84
  -3   8   8  127.34    2.93
   2  -8  -8   22.54    0.93
   2  -8  -8   21.16    0.87
  -2   8   8   22.71    0.93
   1  -8  -8   73.23    1.92
   1  -8  -8   73.13    1.97
  -1   8   8   73.43    1.94
  -1   8   8   71.31    1.95
   0  -8  -8    1.89    0.33
   0  -8  -8    2.03    0.33
   0   8   8    2.01    0.35
   0   8   8    2.68    0.36
  -1  -8  -8    6.15    0.47
  -1  -8  -8    5.39    0.54
   1   8   8    6.48    0.53
   1   8   8    5.12    0.52
  -2  -8  -8    3.87    0.48
  -2  -8  -8    4.32    0.47
   2   8   8    5.70    0.55
  -3  -8  -8    1.62    0.78
  -3  -8  -8    2.37    0.42
   3   8   8    2.67    0.41
   7  -9  -8    1.17    0.21
  -7   9   8    0.98    0.26
  -7   9   8    0.17    0.24
   6  -9  -8    0.91    0.19
   6  -9  -8    0.90    0.26
  -6   9   8    1.01    0.25
  -6   9   8    0.99    0.29
   5  -9  -8    2.80    0.39
  -5   9   8    3.08    0.40
  -5   9   8    2.82    0.42
   4  -9  -8   50.19    1.49
  -4   9   8   48.40    1.52
   3  -9  -8   -0.01    0.16
  -3   9   8    0.24    0.19
   2  -9  -8    9.49    0.64
   2  -9  -8    9.55    0.60
  -2   9   8    9.95    0.63
   1  -9  -8   12.68    0.74
   1  -9  -8   12.67    0.68
  -1   9   8   12.81    0.69
  -1   9   8   11.42    0.69
   0  -9  -8    0.00    0.17
   0  -9  -8    0.07    0.21
   0   9   8   -0.09    0.16
   0   9   8   -0.13    0.16
  -1  -9  -8   20.12    0.88
  -1  -9  -8   17.41    0.91
   1   9   8   18.88    0.91
  -2  -9  -8    0.58    0.26
  -2  -9  -8    0.16    0.25
   2   9   8    0.10    0.19
  -3  -9  -8    5.90    0.62
  -3  -9  -8    6.68    1.35
   3   9   8    4.84    0.57
   6 -10  -8   24.03    0.98
  -6  10   8   21.25    0.94
  -6  10   8   22.18    1.04
   5 -10  -8    0.17    0.20
  -5  10   8    0.44    0.20
  -5  10   8    0.44    0.24
   4 -10  -8    5.82    0.56
  -4  10   8    5.62    0.56
   3 -10  -8    4.58    0.49
  -3  10   8    4.33    0.50
   2 -10  -8    2.16    0.36
  -2  10   8    3.67    0.47
   1 -10  -8    1.71    0.34
   1 -10  -8    2.04    0.39
  -1  10   8    1.91    0.35
   0 -10  -8   11.63    0.77
   0 -10  -8   12.02    0.71
   0  10   8   12.87    0.74
   0  10   8   12.17    0.76
  -1 -10  -8    5.32    0.55
  -1 -10  -8    4.68    0.56
   1  10   8    6.16    0.61
  -2 -10  -8   25.49    1.18
  -2 -10  -8   27.39    1.09
   2  10   8   26.74    1.17
   6 -11  -8    1.37    0.34
  -6  11   8    1.10    0.34
  -6  11   8    0.69    0.24
   5 -11  -8    5.07    0.55
  -5  11   8    5.24    0.58
  -5  11   8    4.07    0.51
   4 -11  -8    0.29    0.23
  -4  11   8    0.34    0.22
   3 -11  -8   11.13    0.70
  -3  11   8   11.14    0.73
   2 -11  -8    3.37    0.47
  -2  11   8    3.11    0.47
   1 -11  -8   -0.15    0.18
   1 -11  -8    0.09    0.24
  -1  11   8    0.19    0.22
   0 -11  -8    6.09    0.66
   0 -11  -8    7.40    0.60
   0  11   8    9.15    0.65
  -1 -11  -8    7.29    0.61
  -1 -11  -8    6.73    0.72
   1  11   8    7.52    0.62
   5 -12  -8    3.24    0.47
  -5  12   8    2.92    0.46
  -5  12   8    4.27    0.54
   4 -12  -8    0.96    0.29
  -4  12   8    0.48    0.26
   3 -12  -8    2.58    0.42
  -3  12   8    3.15    0.49
   2 -12  -8    6.20    0.62
  -2  12   8    7.68    0.74
   1 -12  -8    0.13    0.28
   1 -12  -8    0.23    0.25
  -1  12   8    0.24    0.27
   0 -12   9    0.62    0.31
   0 -12   9    0.47    0.26
   1 -12   9    1.18    0.35
   1 -12   9    1.12    0.31
  -2  12  -9    0.42    0.27
   2 -12   9    0.30    0.29
   2 -12   9    0.23    0.25
  -3  12  -9   23.89    1.17
   3 -12   9   22.97    1.08
   3 -12   9   23.09    1.15
  -2 -11   9    1.59    0.36
  -1 -11   9    3.37    0.50
   0 -11   9    2.30    0.43
   0 -11   9    1.57    0.35
   1 -11   9   10.26    0.67
   1 -11   9   10.26    0.72
  -2  11  -9    8.50    0.67
   2 -11   9    8.58    0.68
   2 -11   9    9.03    0.64
  -3  11  -9   15.47    0.91
   3 -11   9   14.87    0.86
   3 -11   9   16.42    0.87
   3 -11   9   15.97    0.91
  -4  11  -9    4.03    0.56
   4 -11   9    5.14    0.57
   4 -11   9    4.46    0.55
  -3 -10   9    6.21    0.60
  -3 -10   9    6.60    0.77
  -2 -10   9   13.02    0.77
  -1 -10   9    5.50    0.59
   0 -10   9    3.93    0.47
   0 -10   9    3.13    0.45
   1 -10   9    0.19    0.23
   1 -10   9    0.05    0.18
  -2  10  -9    3.42    0.45
   2 -10   9    2.70    0.43
   2 -10   9    2.48    0.38
  -3  10  -9    1.85    0.38
   3 -10   9    2.22    0.37
   3 -10   9    2.38    0.38
   3 -10   9    1.71    0.37
  -4  10  -9    4.50    0.54
   4 -10   9    4.97    0.55
   4 -10   9    4.46    0.54
  -5  10  -9    7.14    0.72
   5 -10   9    7.48    0.70
   5 -10   9    8.03    0.64
  -4  -9   9   21.74    0.94
  -4  -9   9   21.92    1.19
  -3  -9   9   15.42    0.96
  -3  -9   9   15.09    0.78
  -2  -9   9   19.34    0.89
  -1  -9   9    0.58    0.25
  -1  -9   9    0.22    0.19
   0  -9   9    2.88    0.41
   0  -9   9    2.93    0.38
  -1   9  -9   16.06    0.81
   1  -9   9   13.61    0.72
   1  -9   9   16.19    0.81
  -2   9  -9    4.23    0.49
   2  -9   9    4.91    0.50
   2  -9   9    4.74    0.52
   2  -9   9    4.08    0.46
  -3   9  -9   11.95    0.73
   3  -9   9   11.72    0.70
   3  -9   9   11.34    0.68
   3  -9   9   12.28    0.74
  -4   9  -9    4.19    0.51
   4  -9   9    4.21    0.51
   4  -9   9    4.31    0.49
  -5   9  -9   12.59    0.79
   5  -9   9   12.60    0.77
   5  -9   9   12.84    0.76
  -4  -8   9   10.12    0.60
  -4  -8   9    9.67    0.79
  -3  -8   9    2.84    0.48
  -3  -8   9    2.14    0.34
  -2  -8   9    0.33    0.21
  -1  -8   9    2.45    0.32
  -1  -8   9    2.61    0.37
   0  -8   9   10.10    0.61
   0  -8   9    8.68    0.52
  -1   8  -9    0.31    0.19
   1  -8   9    0.51    0.20
   1  -8   9    0.60    0.23
   1  -8   9    0.63    0.21
  -2   8  -9    3.07    0.41
   2  -8   9    3.08    0.38
   2  -8   9    3.11    0.40
   2  -8   9    3.09    0.43
  -3   8  -9    6.70    0.55
   3  -8   9    6.51    0.49
   3  -8   9    6.30    0.59
   3  -8   9    6.38    0.50
  -4   8  -9    0.22    0.20
   4  -8   9    0.11    0.20
   4  -8   9    0.29    0.22
  -5   8  -9    0.06    0.19
   5  -8   9    0.08    0.18
   5  -8   9    0.18    0.19
  -6   8  -9    3.98    0.52
   6  -8   9    2.03    0.39
   6  -8   9    2.48    0.41
  -5  -7   9   19.48    1.11
  -5  -7   9   19.87    0.80
  -4  -7   9   11.62    0.62
  -4  -7   9   10.14    0.76
  -3  -7   9    0.32    0.19
  -3  -7   9   -0.02    0.20
  -2  -7   9    0.59    0.21
  -1  -7   9   20.09    0.85
  -1  -7   9   21.47    0.79
   0   7  -9    0.17    0.16
   0  -7   9    0.15    0.17
   0  -7   9    0.19    0.15
  -1   7  -9    2.61    0.36
   1  -7   9    2.92    0.37
   1  -7   9    2.95    0.35
   1  -7   9    3.00    0.38
  -2   7  -9    9.00    0.58
   2  -7   9    9.17    0.55
   2  -7   9    9.76    0.57
   2  -7   9    8.47    0.57
  -3   7  -9    2.76    0.38
   3  -7   9    2.08    0.33
   3  -7   9    2.54    0.38
   3  -7   9    2.93    0.39
  -4   7  -9    8.36    0.57
   4  -7   9    7.79    0.56
   4  -7   9    8.67    0.56
  -5   7  -9    0.08    0.18
   5  -7   9    0.24    0.20
   5  -7   9    0.23    0.17
  -6   7  -9    2.11    0.37
   6  -7   9    1.48    0.35
   6  -7   9    1.76    0.36
  -6  -6   9   10.82    0.85
  -5  -6   9    0.57    0.20
  -5  -6   9    0.47    0.28
  -4  -6   9   31.18    1.31
  -4  -6   9   33.97    1.05
  -3  -6   9    2.22    0.38
  -3  -6   9    2.26    0.31
  -2  -6   9    0.71    0.21
  -1  -6   9   61.54    1.53
  -1  -6   9   59.41    1.62
   0   6  -9   14.29    0.66
   0  -6   9   12.63    0.63
   0  -6   9   13.83    0.61
  -1   6  -9    0.27    0.16
   1  -6   9    0.08    0.14
   1  -6   9   -0.12    0.10
   1  -6   9   -0.03    0.13
  -2   6  -9    6.37    0.49
   2  -6   9    5.97    0.44
   2  -6   9    6.29    0.48
   2  -6   9    6.72    0.47
  -3   6  -9    2.05    0.34
   3  -6   9    1.38    0.28
   3  -6   9    1.51    0.27
   3  -6   9    1.60    0.31
  -4   6  -9    6.76    0.53
   4  -6   9    8.18    0.54
   4  -6   9    8.25    0.55
  -5   6  -9    1.33    0.31
   5  -6   9    1.81    0.34
   5  -6   9    1.46    0.31
  -6   6  -9    2.12    0.37
   6  -6   9    1.31    0.31
   6  -6   9    2.96    0.42
  -6  -5   9   -0.01    0.25
  -5  -5   9    0.35    0.27
  -5  -5   9    0.40    0.18
  -4  -5   9    1.13    0.32
  -4  -5   9    0.27    0.16
  -3  -5   9    2.96    0.44
  -3  -5   9    2.88    0.32
  -2  -5   9    0.64    0.23
  -2  -5   9    0.38    0.16
  -1  -5   9   32.84    1.05
  -1  -5   9   33.55    0.97
   0   5  -9    2.33    0.31
   0  -5   9    2.32    0.29
   0  -5   9    2.76    0.30
   0  -5   9    1.84    0.27
  -1   5  -9   22.68    0.86
   1  -5   9   23.23    0.85
   1  -5   9   22.95    0.87
   1  -5   9   22.45    0.82
  -2   5  -9   40.18    1.27
   2  -5   9   41.32    1.28
   2  -5   9   41.66    1.24
   2  -5   9   42.35    1.27
  -3   5  -9    0.93    0.24
   3  -5   9    0.56    0.19
   3  -5   9    0.24    0.17
   3  -5   9    1.11    0.26
  -4   5  -9   59.75    1.75
  -4   5  -9   63.73    1.65
   4  -5   9   59.47    1.73
   4  -5   9   62.18    1.71
  -5   5  -9   18.30    0.87
   5  -5   9   19.41    0.88
   5  -5   9   19.98    0.87
  -6   5  -9    7.23    0.56
   6  -5   9    5.85    0.57
   6  -5   9    6.42    0.52
  -6  -4   9    4.82    0.63
  -5  -4   9    9.62    0.70
  -5  -4   9    9.22    0.45
  -4  -4   9    0.14    0.20
  -4  -4   9    0.17    0.13
  -3  -4   9    0.45    0.15
  -3  -4   9    0.41    0.21
  -2  -4   9    6.76    0.42
  -2  -4   9    6.83    0.36
  -2  -4   9    7.32    0.49
  -1  -4   9   10.94    0.49
  -1  -4   9   10.86    0.53
  -1  -4   9   11.10    0.47
   0   4  -9    3.41    0.35
   0  -4   9    2.93    0.30
   0  -4   9    2.91    0.33
   0  -4   9    3.73    0.35
  -1   4  -9    0.25    0.16
   1  -4   9    0.36    0.16
   1  -4   9    0.22    0.14
   1  -4   9    0.03    0.11
  -2   4  -9   44.67    1.33
   2  -4   9   44.67    1.27
   2  -4   9   44.88    1.32
   2  -4   9   44.11    1.30
  -3   4  -9   30.60    0.99
   3  -4   9   30.40    1.02
   3  -4   9   31.30    1.06
   3  -4   9   28.00    1.02
  -4   4  -9    0.46    0.18
   4  -4   9    0.38    0.19
   4  -4   9    0.87    0.24
  -5   4  -9   13.02    0.71
   5  -4   9   12.61    0.67
   5  -4   9   11.92    0.68
  -6   4  -9   23.63    1.00
   6  -4   9   22.12    0.98
   6  -4   9   21.32    0.93
  -7  -3   9   19.54    1.12
  -6  -3   9    5.89    0.68
  -5  -3   9    5.84    0.61
  -5  -3   9    4.84    0.32
  -4  -3   9   19.08    0.66
  -4  -3   9   19.23    0.90
  -3  -3   9   24.35    0.87
  -3  -3   9   23.45    0.77
  -3  -3   9   23.86    0.94
  -2  -3   9    1.17    0.21
  -2  -3   9    0.99    0.16
  -2  -3   9    0.96    0.22
  -2  -3   9    0.89    0.19
  -1  -3   9   65.74    1.55
  -1  -3   9   63.49    1.59
  -1  -3   9   62.52    1.50
  -1  -3   9   64.82    1.50
   0  -3   9   52.68    1.21
   0  -3   9   53.39    1.34
   0  -3   9   50.85    1.39
   0  -3   9   54.15    1.38
   1  -3   9    1.55    0.25
   1  -3   9    2.26    0.28
   1  -3   9    2.16    0.28
  -2   3  -9   28.33    0.93
   2  -3   9   29.29    0.98
   2  -3   9   30.13    0.99
   2  -3   9   30.19    0.97
  -3   3  -9    0.56    0.18
   3  -3   9    0.27    0.15
   3  -3   9    0.04    0.15
   3  -3   9    0.00    0.14
  -4   3  -9    0.62    0.45
  -4   3  -9    0.82    0.19
   4  -3   9    0.47    0.19
   4  -3   9    0.48    0.18
   5  -3   9   25.79    0.99
   5  -3   9   24.74    1.00
   6  -3   9   22.50    0.94
   6  -3   9   20.99    0.95
  -7  -2   9   -0.14    0.24
  -6  -2   9    2.12    0.43
  -5  -2   9    2.14    0.39
  -5  -2   9    1.87    0.21
  -4  -2   9   20.22    0.66
  -4  -2   9   21.18    0.85
  -4  -2   9   18.45    0.86
  -3  -2   9   39.07    1.15
  -3  -2   9   37.51    1.02
  -3  -2   9   35.43    1.17
  -2  -2   9  152.57    3.19
  -2  -2   9  149.72    3.35
  -2  -2   9  147.43    3.13
  -2  -2   9  153.72    3.00
  -1  -2   9   31.85    0.95
  -1  -2   9   29.84    0.89
  -1  -2   9   31.41    0.92
  -1  -2   9   32.75    0.90
  -1  -2   9   30.80    0.87
   0  -2   9    0.31    0.12
   0  -2   9    0.39    0.12
   0  -2   9    0.28    0.13
   0  -2   9    0.23    0.14
  -1   2  -9   16.41    0.64
   1  -2   9   15.84    0.62
   1  -2   9   15.31    0.65
   1  -2   9   15.55    0.64
  -2   2  -9    1.23    0.22
   2  -2   9    1.46    0.25
   2  -2   9    0.79    0.20
   2  -2   9    1.69    0.25
  -3   2  -9   38.29    1.10
   3  -2   9   33.46    1.10
   3  -2   9   35.28    1.13
   3  -2   9   33.79    1.11
  -4   2  -9   69.54    1.73
   4  -2   9   67.63    1.85
   4  -2   9   70.74    1.81
  -5   2  -9    2.67    0.76
   5  -2   9    1.25    0.27
   5  -2   9    1.61    0.29
   6  -2   9    0.05    0.18
   6  -2   9    0.51    0.21
  -7  -1   9    1.16    0.37
  -6  -1   9    6.90    0.63
  -5  -1   9   72.12    1.55
  -5  -1   9   69.30    1.94
  -5  -1   9   69.34    2.05
  -4  -1   9   29.21    1.03
  -4  -1   9   29.59    1.08
  -4  -1   9   30.24    0.83
  -3  -1   9   17.67    0.62
  -3  -1   9   18.86    0.75
  -3  -1   9   18.28    0.73
  -2  -1   9    0.67    0.18
  -2  -1   9    1.10    0.16
  -2  -1   9    0.84    0.18
  -2  -1   9    0.92    0.17
  -1  -1   9    3.76    0.28
  -1  -1   9    2.99    0.28
  -1  -1   9    2.75    0.29
  -1  -1   9    3.04    0.26
  -1  -1   9    3.17    0.26
   0   1  -9   -0.11    0.08
   0  -1   9   -0.07    0.11
   0  -1   9   -0.03    0.09
   0  -1   9   -0.16    0.09
  -1   1  -9   17.70    0.67
   1  -1   9   18.22    0.67
   1  -1   9   18.03    0.69
   1  -1   9   17.13    0.69
  -2   1  -9   22.42    0.79
  -2   1  -9   22.56    0.86
   2  -1   9   23.09    0.84
   2  -1   9   22.66    0.82
   2  -1   9   21.66    0.79
  -3   1  -9   -0.02    0.11
   3  -1   9    0.27    0.16
   3  -1   9   -0.12    0.11
  -4   1  -9   28.52    0.93
   4  -1   9   28.28    1.03
   4  -1   9   29.24    1.01
  -5   1  -9    0.16    0.46
   5  -1   9   -0.09    0.14
   5  -1   9   -0.19    0.16
  -6   1  -9    1.65    0.77
   6  -1   9    1.28    0.30
   6  -1   9    1.99    0.34
  -8   0   9    0.66    0.33
  -7   0   9    8.21    0.68
  -6   0   9   12.94    0.79
  -6   0   9   13.36    0.76
  -5   0   9    7.66    0.35
  -5   0   9    8.32    0.57
  -5   0   9    8.09    0.59
  -4   0   9    0.75    0.23
  -4   0   9    1.08    0.23
  -4   0   9    0.91    0.16
  -3   0   9    1.20    0.23
  -3   0   9    0.79    0.16
  -3   0   9    1.01    0.20
   2   0  -9    4.33    0.30
  -2   0   9    4.40    0.33
  -2   0   9    4.47    0.26
  -2   0   9    4.71    0.32
  -2   0   9    4.41    0.31
   1   0  -9   11.19    0.49
  -1   0   9   11.42    0.48
  -1   0   9   11.29    0.51
  -1   0   9   10.28    0.44
  -1   0   9   10.58    0.47
   0   0  -9    1.24    0.22
   0   0  -9    1.38    0.22
   0   0   9    1.58    0.21
   0   0   9    1.33    0.22
   0   0   9    1.16    0.21
  -1   0  -9   84.80    1.98
  -1   0  -9   87.87    2.06
   1   0   9   86.30    2.04
   1   0   9   87.79    2.04
   1   0   9   86.81    1.99
  -2   0  -9   22.09    0.83
  -2   0  -9   21.07    0.77
   2   0   9   22.36    0.81
   2   0   9   22.44    0.82
   2   0   9   21.24    0.78
  -3   0  -9    0.09    0.12
  -3   0  -9   -0.02    0.14
   3   0   9   -0.17    0.10
   3   0   9    0.04    0.14
  -4   0  -9   21.15    0.78
  -4   0  -9   20.57    0.87
   4   0   9   20.78    0.83
   4   0   9   21.45    0.87
  -5   0  -9    7.68    1.30
  -5   0  -9    5.39    0.52
   5   0   9    4.36    0.46
   5   0   9    4.09    0.45
  -6   0  -9    0.71    0.69
   6   0   9    0.51    0.23
   6   0   9    0.48    0.21
  -8   1   9   12.18    0.87
  -7   1   9    9.54    0.74
  -7   1   9    8.28    0.65
  -6   1   9    0.57    0.24
  -6   1   9    0.62    0.27
  -5   1   9   25.96    1.03
  -5   1   9   23.65    0.97
  -5   1   9   23.98    0.69
   4  -1  -9    3.73    0.27
  -4   1   9    3.32    0.38
  -4   1   9    3.46    0.37
  -4   1   9    3.45    0.27
   3  -1  -9   10.87    0.46
  -3   1   9   10.17    0.50
  -3   1   9    9.74    0.45
  -3   1   9   10.17    0.53
   2  -1  -9   10.63    0.47
  -2   1   9   11.03    0.52
  -2   1   9   10.80    0.42
  -2   1   9   11.12    0.46
  -2   1   9   10.51    0.49
   1  -1  -9    3.91    0.31
  -1   1   9    4.47    0.31
  -1   1   9    4.13    0.29
  -1   1   9    4.68    0.34
   0  -1  -9    2.87    0.30
   0  -1  -9    3.72    0.35
   0   1   9    3.26    0.32
   0   1   9    3.59    0.29
   0   1   9    3.86    0.36
  -1  -1  -9    0.72    0.21
  -1  -1  -9    0.52    0.15
   1   1   9    0.59    0.15
   1   1   9    1.06    0.21
   1   1   9    0.65    0.18
  -2  -1  -9    1.31    0.22
  -2  -1  -9    0.84    0.21
   2   1   9    0.98    0.21
   2   1   9    0.63    0.19
   2   1   9    0.60    0.19
  -3  -1  -9   10.73    0.60
  -3  -1  -9   10.33    0.53
   3   1   9   10.39    0.56
   3   1   9    9.89    0.55
  -4  -1  -9   33.14    1.15
   4   1   9   32.78    1.10
   4   1   9   32.53    1.13
  -5  -1  -9    3.35    0.43
  -5  -1  -9    4.20    1.09
   5   1   9    2.60    0.37
   5   1   9    2.16    0.33
  -6  -1  -9    0.80    0.66
  -6  -1  -9    0.23    0.22
   6   1   9    0.61    0.25
   6   1   9    0.43    0.21
  -8   2   9    2.46    0.50
  -7   2   9    0.10    0.21
  -7   2   9    0.24    0.19
  -6   2   9   13.33    0.76
  -6   2   9   13.20    0.77
  -5   2   9    5.09    0.30
  -5   2   9    4.18    0.45
  -5   2   9    4.56    0.48
   4  -2  -9    0.26    0.12
  -4   2   9    0.06    0.13
  -4   2   9    0.01    0.10
  -4   2   9   -0.02    0.12
   3  -2  -9    9.46    0.44
  -3   2   9   10.46    0.50
  -3   2   9    9.61    0.52
  -3   2   9    9.50    0.45
   2  -2  -9    0.33    0.13
  -2   2   9    0.53    0.16
  -2   2   9    0.64    0.13
  -2   2   9    0.33    0.13
   1  -2  -9    0.64    0.17
   1  -2  -9    0.58    0.16
  -1   2   9    0.37    0.13
  -1   2   9    0.41    0.15
  -1   2   9    0.53    0.16
   0  -2  -9    9.16    0.49
   0  -2  -9    9.52    0.48
   0   2   9    9.58    0.46
   0   2   9    9.22    0.48
   0   2   9    9.61    0.48
  -1  -2  -9    9.91    0.53
  -1  -2  -9    9.60    0.49
   1   2   9    9.45    0.52
   1   2   9    9.60    0.49
   1   2   9    9.32    0.50
  -2  -2  -9    0.03    0.14
  -2  -2  -9    0.16    0.14
   2   2   9    0.05    0.14
   2   2   9    0.29    0.17
   2   2   9    0.24    0.15
  -3  -2  -9   13.80    0.69
  -3  -2  -9   12.46    0.59
   3   2   9   14.08    0.67
   3   2   9   13.36    0.64
  -4  -2  -9    5.76    0.49
   4   2   9    5.40    0.44
   4   2   9    6.77    0.49
  -5  -2  -9    0.56    0.60
  -5  -2  -9    0.10    0.18
   5   2   9    0.34    0.19
   5   2   9    0.34    0.20
  -6  -2  -9    2.53    0.97
  -6  -2  -9    2.05    0.38
   6   2   9    2.71    0.41
   6   2   9    2.94    0.43
  -8   3   9    0.28    0.26
  -8   3   9   -0.17    0.24
  -7   3   9    3.54    0.50
  -7   3   9    3.05    0.46
  -6   3   9    2.99    0.43
  -6   3   9    3.47    0.46
  -6   3   9    2.97    0.25
  -5   3   9   10.86    0.64
  -5   3   9   11.64    0.48
  -5   3   9   12.21    0.66
   4  -3  -9    0.24    0.13
  -4   3   9    0.15    0.12
  -4   3   9    0.09    0.14
  -4   3   9    0.24    0.16
   3  -3  -9    0.25    0.12
  -3   3   9    0.19    0.14
  -3   3   9    0.03    0.12
  -3   3   9    0.28    0.13
   2  -3  -9   21.22    0.72
  -2   3   9   19.55    0.72
   1  -3  -9   25.23    0.85
   1  -3  -9   26.38    0.84
  -1   3   9   25.95    0.86
  -1   3   9   24.74    0.80
  -1   3   9   25.10    0.82
   0  -3  -9    9.40    0.49
   0  -3  -9    9.15    0.50
   0   3   9    9.03    0.48
   0   3   9    8.35    0.48
   0   3   9    9.04    0.46
  -1  -3  -9   49.34    1.38
  -1  -3  -9   46.90    1.32
   1   3   9   47.29    1.36
   1   3   9   49.98    1.38
   1   3   9   48.32    1.32
  -2  -3  -9    0.23    0.17
  -2  -3  -9    0.09    0.13
   2   3   9    0.14    0.13
   2   3   9    0.30    0.16
   2   3   9   -0.15    0.13
  -3  -3  -9   40.24    1.19
  -3  -3  -9   40.14    1.28
   3   3   9   39.42    1.23
   3   3   9   39.97    1.28
  -4  -3  -9   10.52    0.64
   4   3   9   10.05    0.61
   4   3   9   10.37    0.60
  -5  -3  -9    3.08    1.00
  -5  -3  -9    1.99    0.35
   5   3   9    1.65    0.32
   5   3   9    1.83    0.33
  -8   4   9    4.81    0.63
  -8   4   9    3.41    0.51
  -7   4   9   12.18    0.77
  -7   4   9   11.92    0.78
  -6   4   9    3.76    0.49
  -6   4   9    3.67    0.30
  -6   4   9    3.19    0.43
  -5   4   9    4.39    0.33
  -5   4   9    4.12    0.46
  -5   4   9    4.66    0.49
   4  -4  -9    0.05    0.12
  -4   4   9   -0.02    0.11
  -4   4   9    0.08    0.14
  -4   4   9    0.02    0.13
   3  -4  -9   48.53    1.29
  -3   4   9   49.53    1.32
  -3   4   9   49.28    1.31
  -3   4   9   49.91    1.43
   2  -4  -9   19.60    0.72
   2  -4  -9   20.37    0.55
  -2   4   9   19.85    0.74
   1  -4  -9    7.83    0.45
   1  -4  -9    7.52    0.47
  -1   4   9    6.96    0.42
  -1   4   9    6.88    0.44
   0  -4  -9   12.62    0.58
   0  -4  -9   11.43    0.58
   0   4   9   11.50    0.57
   0   4   9   11.73    0.55
   0   4   9   11.52    0.59
  -1  -4  -9   14.12    0.64
  -1  -4  -9   17.47    0.73
   1   4   9   15.22    0.67
   1   4   9   16.09    0.71
   1   4   9   14.95    0.68
  -2  -4  -9   12.96    0.62
  -2  -4  -9   13.02    0.67
   2   4   9   13.69    0.65
   2   4   9   12.80    0.65
   2   4   9   13.12    0.65
  -3  -4  -9    2.75    0.34
  -3  -4  -9    2.85    0.38
   3   4   9    2.93    0.37
   3   4   9    2.89    0.38
  -4  -4  -9   11.08    1.26
  -4  -4  -9   12.78    0.70
   4   4   9   10.99    0.64
   4   4   9   11.88    0.69
  -5  -4  -9   12.51    0.72
  -5  -4  -9   11.50    1.34
   5   4   9   10.71    0.68
   5   4   9   11.54    0.68
  -8   5   9    0.81    0.34
  -8   5   9    0.71    0.29
  -7   5   9    2.23    0.39
  -7   5   9    2.24    0.43
  -6   5   9   14.16    0.80
  -6   5   9   14.31    0.58
  -6   5   9   15.44    0.81
   5  -5  -9   19.52    0.72
  -5   5   9   19.72    0.89
  -5   5   9   20.86    0.88
  -5   5   9   19.47    0.72
   4  -5  -9   59.00    1.47
  -4   5   9   57.00    1.57
  -4   5   9   56.45    1.49
  -4   5   9   58.92    1.67
   3  -5  -9    5.86    0.29
   3  -5  -9    6.81    0.42
  -3   5   9    5.99    0.41
   2  -5  -9    0.46    0.19
   2  -5  -9    0.63    0.18
  -2   5   9    0.53    0.18
   1  -5  -9   16.40    0.68
   1  -5  -9   15.78    0.68
  -1   5   9   14.86    0.68
  -1   5   9   15.78    0.66
   0  -5  -9    1.05    0.23
   0  -5  -9    0.65    0.19
   0   5   9    0.61    0.20
   0   5   9    1.09    0.24
  -1  -5  -9    7.57    0.53
  -1  -5  -9    7.24    0.46
   1   5   9    6.66    0.45
   1   5   9    5.63    0.44
   1   5   9    7.01    0.50
  -2  -5  -9   28.04    0.99
  -2  -5  -9   28.05    1.06
   2   5   9   28.14    1.05
   2   5   9   29.50    1.03
  -3  -5  -9    5.33    0.44
  -3  -5  -9    5.95    0.55
   3   5   9    4.84    0.50
   3   5   9    5.95    0.47
  -4  -5  -9    7.11    1.05
  -4  -5  -9    8.02    0.60
   4   5   9    7.80    0.55
   4   5   9    7.59    0.57
  -5  -5  -9    5.90    0.58
  -5  -5  -9    7.69    1.48
   5   5   9    6.29    0.59
   5   5   9    5.42    0.57
  -8   6   9   10.25    0.80
  -8   6   9    8.99    0.72
  -7   6   9   29.79    1.28
  -7   6   9   31.45    1.28
  -7   6   9   30.70    0.94
  -6   6   9    0.05    0.14
  -6   6   9    0.29    0.19
  -6   6   9    0.14    0.20
   5  -6  -9    5.23    0.26
   5  -6  -9    4.92    0.40
  -5   6   9    5.62    0.54
  -5   6   9    5.12    0.46
  -5   6   9    5.23    0.40
   4  -6  -9   24.64    0.65
   4  -6  -9   25.26    0.88
  -4   6   9   24.65    0.89
  -4   6   9   26.69    1.02
   3  -6  -9   24.17    0.66
   3  -6  -9   23.02    0.85
  -3   6   9   24.32    0.89
   2  -6  -9    1.47    0.27
   2  -6  -9    1.49    0.27
  -2   6   9    1.47    0.26
   1  -6  -9   10.01    0.55
   1  -6  -9   10.15    0.59
  -1   6   9   10.71    0.59
  -1   6   9   10.32    0.55
   0  -6  -9   32.48    1.12
   0  -6  -9   31.50    1.07
   0   6   9   31.38    1.10
   0   6   9   32.20    1.10
  -1  -6  -9    2.21    0.31
  -1  -6  -9    2.59    0.37
   1   6   9    2.41    0.36
   1   6   9    2.44    0.35
  -2  -6  -9    1.19    0.26
  -2  -6  -9    0.98    0.27
   2   6   9    0.78    0.23
  -3  -6  -9   12.75    0.73
  -3  -6  -9   12.59    0.66
   3   6   9   11.26    0.68
   3   6   9   11.19    0.67
  -4  -6  -9    3.05    0.43
  -4  -6  -9    4.20    1.10
   4   6   9    3.68    0.47
   4   6   9    3.17    0.43
   7  -7  -9   28.54    0.68
  -7   7   9   30.01    1.26
  -7   7   9   30.16    1.30
  -7   7   9   29.69    0.97
   6  -7  -9    5.07    0.28
  -6   7   9    5.62    0.43
  -6   7   9    6.18    0.63
   5  -7  -9   10.16    0.40
   5  -7  -9   11.43    0.59
  -5   7   9   11.27    0.69
  -5   7   9   10.51    0.57
   4  -7  -9   23.51    0.67
   4  -7  -9   23.09    0.88
  -4   7   9   23.64    0.99
  -4   7   9   25.03    0.91
   3  -7  -9   13.40    0.64
  -3   7   9   13.21    0.67
   2  -7  -9    9.76    0.58
   2  -7  -9   10.34    0.57
  -2   7   9    8.65    0.56
   1  -7  -9    1.79    0.29
   1  -7  -9    1.75    0.30
  -1   7   9    1.41    0.27
  -1   7   9    1.46    0.29
   0  -7  -9   39.48    1.31
   0  -7  -9   40.49    1.27
   0   7   9   40.36    1.33
   0   7   9   38.00    1.27
  -1  -7  -9    0.27    0.20
  -1  -7  -9    0.81    0.24
   1   7   9    0.40    0.22
   1   7   9    0.90    0.24
  -2  -7  -9    1.58    0.29
  -2  -7  -9    1.34    0.31
   2   7   9    1.55    0.31
  -3  -7  -9    2.00    0.40
   3   7   9    3.04    0.44
  -4  -7  -9    0.44    0.25
  -4  -7  -9    0.38    0.58
   4   7   9    0.46    0.25
   7  -8  -9    6.31    0.33
  -7   8   9    6.72    0.48
  -7   8   9    7.10    0.61
   6  -8  -9    1.16    0.20
  -6   8   9    0.87    0.29
  -6   8   9    0.77    0.23
   5  -8  -9   22.30    0.67
   5  -8  -9   23.09    0.91
  -5   8   9   22.62    0.92
  -5   8   9   24.78    1.05
   4  -8  -9    0.30    0.20
  -4   8   9    0.45    0.20
  -4   8   9    0.13    0.17
   3  -8  -9    2.37    0.35
  -3   8   9    3.28    0.39
   2  -8  -9    0.63    0.24
  -2   8   9    1.05    0.26
   1  -8  -9    5.73    0.47
   1  -8  -9    6.15    0.52
  -1   8   9    5.30    0.51
  -1   8   9    4.33    0.48
   0  -8  -9    0.04    0.20
   0  -8  -9    0.00    0.17
   0   8   9    0.01    0.17
   0   8   9    0.12    0.17
  -1  -8  -9    0.43    0.22
  -1  -8  -9    0.03    0.19
   1   8   9    0.18    0.20
  -2  -8  -9   29.03    1.08
  -2  -8  -9   26.41    1.13
   2   8   9   26.25    1.11
  -3  -8  -9    1.47    0.36
   3   8   9    1.97    0.38
   7  -9  -9    0.35    0.17
  -7   9   9   -0.03    0.22
  -7   9   9    0.26    0.19
   6  -9  -9    5.31    0.52
   6  -9  -9    4.53    0.36
  -6   9   9    4.45    0.48
  -6   9   9    4.59    0.55
   5  -9  -9    0.24    0.19
  -5   9   9    0.33    0.21
  -5   9   9    0.22    0.18
   4  -9  -9    3.94    0.44
  -4   9   9    4.06    0.46
   3  -9  -9    0.29    0.20
  -3   9   9    0.09    0.18
   2  -9  -9    0.35    0.20
  -2   9   9   -0.14    0.17
   1  -9  -9   24.59    1.06
   1  -9  -9   24.40    1.00
  -1   9   9   22.91    1.02
   0  -9  -9    1.64    0.36
   0  -9  -9    1.77    0.33
   0   9   9    1.22    0.28
   0   9   9    1.31    0.31
  -1  -9  -9    2.68    0.41
  -1  -9  -9    3.27    0.48
   1   9   9    2.92    0.43
  -2  -9  -9   -0.01    0.21
  -2  -9  -9   -0.02    0.23
   2   9   9   -0.01    0.19
   6 -10  -9    4.53    0.51
  -6  10   9    4.66    0.56
  -6  10   9    4.30    0.49
   5 -10  -9    1.07    0.30
  -5  10   9    1.12    0.28
  -5  10   9    0.53    0.24
   4 -10  -9    0.12    0.19
  -4  10   9    0.47    0.22
   3 -10  -9    0.10    0.20
  -3  10   9   -0.15    0.17
   2 -10  -9   10.36    0.67
  -2  10   9   12.78    0.75
   1 -10  -9    0.65    0.27
   1 -10  -9    0.53    0.28
  -1  10   9    0.56    0.26
   0 -10  -9    0.13    0.24
   0 -10  -9    0.04    0.20
   0  10   9    0.27    0.24
   0  10   9   -0.09    0.18
  -1 -10  -9    1.51    0.38
  -1 -10  -9    0.91    0.30
   1  10   9    1.54    0.34
   5 -11  -9    4.33    0.52
  -5  11   9    4.74    0.57
  -5  11   9    4.92    0.56
   4 -11  -9    0.18    0.23
  -4  11   9    0.17    0.23
   3 -11  -9    0.25    0.23
  -3  11   9    0.02    0.20
   2 -11  -9   26.61    1.14
  -2  11   9   27.79    1.20
   1 -11  -9   14.17    0.83
   1 -11  -9   16.44    0.92
  -1  11   9   16.13    0.90
   0 -11  -9    7.08    0.67
   0 -11  -9    7.84    0.75
   0  11   9    7.15    0.70
   4 -12  -9    5.89    0.61
  -4  12   9    5.14    0.61
   3 -12  -9   17.40    0.94
  -3  12   9   16.42    0.94
   2 -12  -9    1.45    0.37
  -2  12   9    0.82    0.32
  -1 -11  10    0.17    0.24
   0 -11  10   -0.07    0.19
   0 -11  10   -0.25    0.21
   1 -11  10    0.01    0.21
   1 -11  10   -0.13    0.22
  -2  11 -10    1.82    0.40
   2 -11  10    2.59    0.43
   2 -11  10    2.02    0.43
  -3  11 -10    4.69    0.61
   3 -11  10    4.24    0.54
   3 -11  10    4.63    0.59
  -2 -10  10    4.17    0.53
  -1 -10  10   -0.14    0.19
   0 -10  10    0.89    0.26
   0 -10  10    1.43    0.34
   1 -10  10    3.87    0.47
   1 -10  10    3.50    0.48
  -2  10 -10    1.28    0.32
   2 -10  10    1.20    0.31
   2 -10  10    0.89    0.31
  -3  10 -10    6.83    0.68
   3 -10  10    7.07    0.59
   3 -10  10    7.76    0.60
   3 -10  10    6.42    0.67
  -4  10 -10   13.98    0.85
   4 -10  10   13.70    0.82
   4 -10  10   11.69    0.76
  -3  -9  10    0.28    0.27
  -3  -9  10    0.36    0.25
  -2  -9  10    2.99    0.42
  -1  -9  10    0.13    0.21
  -1  -9  10    0.55    0.20
   0  -9  10    7.56    0.60
   0  -9  10    8.00    0.53
  -1   9 -10    4.56    0.51
   1  -9  10    3.92    0.48
   1  -9  10    3.65    0.42
  -2   9 -10   11.75    0.74
   2  -9  10   12.86    0.72
   2  -9  10   11.90    0.74
   2  -9  10   13.10    0.74
  -3   9 -10    0.43    0.22
   3  -9  10    0.01    0.18
   3  -9  10    0.39    0.24
   3  -9  10   -0.07    0.21
  -4   9 -10   19.43    0.98
   4  -9  10   18.49    0.91
   4  -9  10   19.77    0.97
  -5   9 -10   18.64    0.99
   5  -9  10   17.25    0.93
   5  -9  10   19.80    0.96
  -4  -8  10    0.32    0.29
  -4  -8  10    0.19    0.21
  -3  -8  10    4.62    0.49
  -3  -8  10    5.98    0.69
  -2  -8  10   37.01    1.27
  -1  -8  10   18.29    0.78
  -1  -8  10   20.42    0.89
   0  -8  10    6.58    0.53
   0  -8  10    6.48    0.47
  -1   8 -10    0.80    0.23
   1  -8  10    0.44    0.23
   1  -8  10    1.05    0.24
  -2   8 -10   23.18    1.02
   2  -8  10   24.00    0.95
   2  -8  10   22.45    0.99
   2  -8  10   23.11    0.96
  -3   8 -10    5.32    0.55
   3  -8  10    4.40    0.50
   3  -8  10    3.98    0.47
   3  -8  10    4.45    0.48
  -4   8 -10    0.54    0.25
   4  -8  10    0.74    0.26
   4  -8  10    0.66    0.27
  -5   8 -10    9.45    0.68
   5  -8  10    7.66    0.60
   5  -8  10    7.93    0.63
  -5  -7  10    0.37    0.20
  -5  -7  10    0.10    0.27
  -4  -7  10    0.01    0.22
  -4  -7  10    0.38    0.21
  -3  -7  10    0.80    0.24
  -3  -7  10    0.47    0.27
  -2  -7  10   22.33    0.91
  -1  -7  10    7.19    0.46
  -1  -7  10    7.17    0.52
   0  -7  10    0.69    0.20
   0  -7  10    0.84    0.24
  -1   7 -10    0.48    0.20
   1  -7  10    0.36    0.18
   1  -7  10    0.32    0.19
   1  -7  10    0.40    0.21
  -2   7 -10   32.54    1.17
   2  -7  10   31.62    1.14
   2  -7  10   33.05    1.18
   2  -7  10   32.60    1.12
  -3   7 -10    1.82    0.33
   3  -7  10    2.11    0.35
   3  -7  10    2.35    0.35
   3  -7  10    2.25    0.36
  -4   7 -10    3.27    0.45
   4  -7  10    2.69    0.41
   4  -7  10    3.33    0.43
  -5   7 -10    2.67    0.43
   5  -7  10    2.26    0.38
   5  -7  10    2.46    0.40
  -6   7 -10    2.79    0.45
   6  -7  10    4.39    0.53
   6  -7  10    3.63    0.49
  -5  -6  10    6.16    0.45
  -5  -6  10    6.72    0.74
  -4  -6  10    3.19    0.37
  -4  -6  10    2.30    0.44
  -3  -6  10   57.78    1.57
  -3  -6  10   56.86    1.84
  -2  -6  10   69.93    1.83
  -1  -6  10   28.14    1.00
  -1  -6  10   28.03    0.91
   0   6 -10   33.48    1.13
   0  -6  10   37.15    1.19
   0  -6  10   35.87    1.11
  -1   6 -10   57.63    1.62
   1  -6  10   55.25    1.59
   1  -6  10   52.34    1.55
   1  -6  10   55.77    1.53
  -2   6 -10    7.87    0.55
   2  -6  10    7.15    0.49
   2  -6  10    7.36    0.52
   2  -6  10    5.80    0.47
  -3   6 -10    5.19    0.51
   3  -6  10    6.04    0.49
   3  -6  10    5.78    0.48
   3  -6  10    5.59    0.46
  -4   6 -10    0.91    0.23
  -4   6 -10    0.34    0.20
   4  -6  10    1.10    0.27
   4  -6  10    1.18    0.27
  -5   6 -10    0.20    0.20
   5  -6  10    0.33    0.21
   5  -6  10    0.64    0.22
  -6   6 -10    3.98    0.50
   6  -6  10    4.42    0.52
   6  -6  10    5.34    0.57
  -6  -5  10    4.16    0.63
  -5  -5  10    9.62    0.77
  -5  -5  10   10.71    0.53
  -4  -5  10    9.93    0.70
  -4  -5  10   10.54    0.55
  -3  -5  10    4.42    0.38
  -3  -5  10    5.03    0.55
  -2  -5  10    0.92    0.21
  -2  -5  10    1.38    0.30
  -1  -5  10    7.48    0.49
  -1  -5  10    7.87    0.44
   0   5 -10   11.63    0.61
   0  -5  10   11.63    0.62
   0  -5  10   12.67    0.61
   0  -5  10   11.88    0.57
  -1   5 -10    0.17    0.16
   1  -5  10    0.25    0.16
   1  -5  10    0.13    0.13
   1  -5  10    0.05    0.16
  -2   5 -10   85.74    2.20
   2  -5  10   84.13    2.17
   2  -5  10   86.96    2.17
   2  -5  10   85.09    2.11
  -3   5 -10   48.12    1.50
   3  -5  10   50.69    1.49
   3  -5  10   46.09    1.45
   3  -5  10   45.52    1.41
  -4   5 -10    1.92    0.35
  -4   5 -10    1.93    0.30
   4  -5  10    2.76    0.37
   4  -5  10    1.76    0.33
  -5   5 -10    1.40    0.32
   5  -5  10    0.76    0.27
   5  -5  10    1.22    0.28
  -6   5 -10    2.03    0.36
   6  -5  10    2.10    0.40
   6  -5  10    2.03    0.37
  -6  -4  10    8.10    0.70
  -5  -4  10    8.16    0.45
  -5  -4  10    9.71    0.72
  -4  -4  10    5.23    0.38
  -4  -4  10    4.10    0.51
  -3  -4  10    0.90    0.27
  -3  -4  10    0.98    0.21
  -2  -4  10   22.61    0.79
  -2  -4  10   20.78    0.79
  -2  -4  10   20.88    0.88
  -2  -4  10   21.26    0.70
  -1  -4  10    0.09    0.12
  -1  -4  10   -0.01    0.13
  -1  -4  10    0.14    0.13
   0   4 -10    2.81    0.33
   0  -4  10    2.92    0.33
   0  -4  10    3.33    0.34
   0  -4  10    2.85    0.34
  -1   4 -10   12.23    0.61
   1  -4  10   12.08    0.59
   1  -4  10   11.82    0.58
   1  -4  10   10.42    0.59
   2  -4  10    0.30    0.18
   2  -4  10    0.56    0.20
   2  -4  10    0.31    0.15
  -3   4 -10    0.30    0.17
   3  -4  10    0.14    0.16
   3  -4  10    0.74    0.24
   3  -4  10    0.28    0.17
  -4   4 -10   28.44    0.99
   4  -4  10   24.17    0.98
   4  -4  10   28.04    1.07
  -5   4 -10    0.34    0.20
   5  -4  10    0.66    0.23
   5  -4  10    0.21    0.21
  -6   4 -10   24.79    1.06
   6  -4  10   22.81    1.04
   6  -4  10   23.65    1.03
  -7  -3  10    1.84    0.46
  -6  -3  10   23.98    1.18
  -5  -3  10   27.88    0.84
  -5  -3  10   27.74    1.20
  -4  -3  10   14.24    0.78
  -4  -3  10   13.37    0.56
  -3  -3  10   24.66    0.83
  -3  -3  10   27.21    0.94
  -3  -3  10   26.04    1.00
  -2  -3  10   13.94    0.54
  -2  -3  10   14.44    0.67
  -2  -3  10   15.46    0.62
  -2  -3  10   14.88    0.63
  -1  -3  10    0.08    0.13
  -1  -3  10    0.11    0.12
  -1  -3  10    0.25    0.12
   0  -3  10   -0.03    0.10
   0  -3  10    0.03    0.12
   0  -3  10    0.17    0.13
   0  -3  10    0.24    0.11
   1  -3  10    0.03    0.14
   1  -3  10    0.08    0.12
   1  -3  10    0.05    0.14
  -2   3 -10    0.24    0.13
   2  -3  10   -0.12    0.15
   2  -3  10   -0.05    0.11
   2  -3  10   -0.11    0.13
  -3   3 -10   16.62    0.72
   3  -3  10   16.82    0.75
   3  -3  10   14.16    0.69
   3  -3  10   15.56    0.73
  -4   3 -10   44.50    1.29
   4  -3  10   42.11    1.38
   4  -3  10   42.43    1.36
   5  -3  10    1.36    0.31
   5  -3  10    1.14    0.28
   6  -3  10    1.02    0.29
   6  -3  10    1.40    0.31
  -7  -2  10    1.93    0.45
  -6  -2  10    0.53    0.28
  -5  -2  10    7.51    0.58
  -5  -2  10    8.28    0.40
  -5  -2  10    8.44    0.65
  -4  -2  10    5.71    0.46
  -4  -2  10    5.29    0.48
  -4  -2  10    6.23    0.37
  -3  -2  10   22.26    0.87
  -3  -2  10   21.28    0.74
  -3  -2  10   21.20    0.82
  -2  -2  10    0.24    0.11
  -2  -2  10    0.20    0.13
  -2  -2  10    0.05    0.12
  -2  -2  10    0.04    0.13
  -1  -2  10    0.54    0.13
  -1  -2  10    0.44    0.16
  -1  -2  10    0.23    0.11
  -1  -2  10    0.38    0.14
   0  -2  10    6.85    0.42
   0  -2  10    6.38    0.34
   0  -2  10    7.98    0.47
   0  -2  10    7.16    0.41
  -1   2 -10   22.44    0.81
   1  -2  10   23.64    0.84
   1  -2  10   22.25    0.79
   1  -2  10   21.77    0.84
  -2   2 -10   32.05    1.04
   2  -2  10   32.91    1.09
   2  -2  10   32.68    1.05
   2  -2  10   32.95    1.08
  -3   2 -10   10.74    0.56
   3  -2  10    9.67    0.55
   3  -2  10    9.96    0.59
   3  -2  10   10.26    0.58
  -4   2 -10   17.89    0.75
   4  -2  10   17.83    0.81
   4  -2  10   17.40    0.79
   5  -2  10   13.66    0.73
   5  -2  10   13.21    0.72
   6  -2  10    1.29    0.30
   6  -2  10    1.03    0.28
  -7  -1  10   -0.02    0.24
  -6  -1  10    6.20    0.66
  -6  -1  10    5.20    0.57
  -5  -1  10    8.63    0.63
  -5  -1  10    7.78    0.56
  -5  -1  10    7.92    0.39
  -4  -1  10    0.37    0.14
  -4  -1  10    0.11    0.15
  -4  -1  10    0.29    0.19
  -3  -1  10   -0.05    0.11
  -3  -1  10   -0.09    0.12
  -3  -1  10   -0.03    0.13
  -2  -1  10    8.44    0.46
  -2  -1  10    8.25    0.44
  -2  -1  10    7.75    0.43
  -2  -1  10    7.70    0.38
   1   1 -10   32.11    0.96
  -1  -1  10   32.95    1.00
  -1  -1  10   33.26    0.95
  -1  -1  10   31.40    0.92
  -1  -1  10   32.64    0.91
  -1  -1  10   30.04    0.94
   0   1 -10   67.46    1.68
   0  -1  10   70.90    1.71
   0  -1  10   70.02    1.66
   0  -1  10   67.09    1.73
  -1   1 -10   26.31    0.90
   1  -1  10   28.63    0.94
   1  -1  10   26.69    0.93
   1  -1  10   26.69    0.89
  -2   1 -10    8.86    0.49
   2  -1  10    8.70    0.52
   2  -1  10    8.56    0.50
   2  -1  10    8.73    0.52
  -3   1 -10    7.72    0.48
   3  -1  10    8.54    0.53
   3  -1  10    8.02    0.50
  -4   1 -10   34.28    1.07
   4  -1  10   33.73    1.14
   4  -1  10   31.70    1.16
  -5   1 -10   14.64    1.33
   5  -1  10   14.46    0.75
   5  -1  10   13.99    0.76
  -6   1 -10    0.33    0.54
   6  -1  10    0.10    0.20
   6  -1  10    0.01    0.18
  -7   0  10   -0.01    0.22
  -6   0  10    0.05    0.18
  -6   0  10    0.12    0.22
  -5   0  10   23.19    1.01
  -5   0  10   24.11    0.72
  -5   0  10   23.19    0.98
   4   0 -10    1.77    0.23
  -4   0  10    1.67    0.29
  -4   0  10    1.82    0.23
  -4   0  10    1.62    0.31
   3   0 -10   15.25    0.58
  -3   0  10   14.97    0.65
  -3   0  10   15.54    0.60
  -3   0  10   15.08    0.67
   2   0 -10    9.61    0.46
  -2   0  10    8.33    0.46
  -2   0  10    8.96    0.46
  -2   0  10    9.15    0.40
  -2   0  10    8.91    0.44
   1   0 -10   -0.15    0.10
   1   0 -10   -0.09    0.12
  -1   0  10    0.12    0.10
  -1   0  10    0.03    0.12
  -1   0  10    0.03    0.11
  -1   0  10    0.04    0.12
   0   0 -10    0.24    0.16
   0   0 -10   -0.15    0.09
   0   0  10    0.06    0.10
   0   0  10   -0.05    0.11
   0   0  10    0.03    0.14
  -1   0 -10   66.19    1.65
  -1   0 -10   64.31    1.70
   1   0  10   66.64    1.69
   1   0  10   64.09    1.64
   1   0  10   66.73    1.70
  -2   0 -10    1.21    0.25
  -2   0 -10    1.19    0.23
   2   0  10    0.80    0.20
   2   0  10    1.13    0.24
   2   0  10    1.29    0.26
  -3   0 -10    2.52    0.35
  -3   0 -10    2.08    0.29
   3   0  10    2.07    0.32
   3   0  10    2.74    0.35
  -4   0 -10    4.77    0.50
  -4   0 -10    4.85    0.44
   4   0  10    4.68    0.47
   4   0  10    4.86    0.48
  -5   0 -10    1.62    0.72
   5   0  10    1.42    0.30
   5   0  10    1.86    0.33
  -6   0 -10    8.83    1.54
   6   0  10    8.78    0.61
   6   0  10    7.92    0.59
  -7   1  10    4.38    0.55
  -7   1  10    4.11    0.57
  -6   1  10    0.01    0.19
  -6   1  10    0.01    0.16
  -5   1  10   22.84    0.70
  -5   1  10   22.26    0.96
  -5   1  10   20.95    0.93
   4  -1 -10   18.65    0.65
  -4   1  10   18.60    0.80
  -4   1  10   18.84    0.66
  -4   1  10   19.92    0.81
   3  -1 -10    0.09    0.12
  -3   1  10    0.03    0.12
  -3   1  10    0.15    0.12
  -3   1  10    0.24    0.14
   2  -1 -10    4.11    0.32
  -2   1  10    4.38    0.30
  -2   1  10    5.06    0.37
  -2   1  10    3.99    0.34
  -2   1  10    4.74    0.30
   1  -1 -10   49.74    1.35
   1  -1 -10   49.12    1.31
  -1   1  10   49.49    1.31
  -1   1  10   51.70    1.36
  -1   1  10   49.70    1.27
   0  -1 -10    0.04    0.12
   0  -1 -10    0.14    0.13
   0   1  10   -0.08    0.11
   0   1  10    0.10    0.11
   0   1  10    0.18    0.14
  -1  -1 -10   22.73    0.81
  -1  -1 -10   22.61    0.86
   1   1  10   23.04    0.80
   1   1  10   21.16    0.82
   1   1  10   21.89    0.82
  -2  -1 -10    0.05    0.13
  -2  -1 -10    0.15    0.17
   2   1  10    0.08    0.13
   2   1  10   -0.03    0.14
   2   1  10    0.01    0.11
  -3  -1 -10    3.06    0.39
  -3  -1 -10    3.37    0.36
   3   1  10    3.78    0.40
   3   1  10    3.39    0.39
  -4  -1 -10    0.88    0.23
  -4  -1 -10    1.06    0.26
   4   1  10    1.03    0.26
   4   1  10    0.88    0.24
  -5  -1 -10   17.49    1.58
  -5  -1 -10   20.11    0.91
   5   1  10   19.56    0.86
   5   1  10   18.90    0.89
  -6  -1 -10    0.02    0.60
   6   1  10    0.01    0.18
   6   1  10    0.43    0.24
  -8   2  10    3.84    0.55
  -8   2  10    3.94    0.58
  -7   2  10   16.57    0.91
  -7   2  10   16.64    0.94
  -6   2  10    3.01    0.26
  -6   2  10    2.68    0.42
  -6   2  10    2.58    0.42
  -5   2  10   13.82    0.53
  -5   2  10   12.59    0.71
  -5   2  10   13.88    0.73
   4  -2 -10   28.77    0.87
  -4   2  10   29.29    1.02
  -4   2  10   30.52    1.07
  -4   2  10   29.34    0.89
   3  -2 -10   36.34    1.04
  -3   2  10   37.12    1.07
  -3   2  10   37.75    1.18
  -3   2  10   37.81    1.10
   2  -2 -10    2.82    0.30
  -2   2  10    3.11    0.28
  -2   2  10    3.57    0.36
  -2   2  10    3.43    0.34
   1  -2 -10   24.70    0.85
   1  -2 -10   24.95    0.85
  -1   2  10   25.01    0.82
  -1   2  10   25.76    0.87
  -1   2  10   24.25    0.79
   0  -2 -10    6.15    0.44
   0  -2 -10    6.74    0.43
   0   2  10    7.30    0.47
   0   2  10    7.26    0.42
   0   2  10    7.03    0.43
  -1  -2 -10    7.65    0.51
  -1  -2 -10    6.77    0.44
   1   2  10    7.82    0.49
   1   2  10    8.09    0.46
   1   2  10    7.96    0.48
  -2  -2 -10    7.96    0.53
  -2  -2 -10    8.02    0.49
   2   2  10    8.96    0.54
   2   2  10    7.06    0.48
   2   2  10    7.85    0.49
  -3  -2 -10   31.32    1.14
  -3  -2 -10   32.06    1.05
   3   2  10   31.93    1.12
   3   2  10   31.67    1.09
  -4  -2 -10    1.07    0.27
   4   2  10    0.84    0.24
   4   2  10    1.39    0.28
  -5  -2 -10    2.45    0.40
  -5  -2 -10    3.19    0.97
   5   2  10    3.04    0.42
   5   2  10    2.79    0.39
  -8   3  10    0.74    0.31
  -8   3  10    0.78    0.35
  -7   3  10    9.82    0.70
  -7   3  10    8.59    0.68
  -6   3  10    0.05    0.19
  -6   3  10    0.17    0.20
  -6   3  10    0.21    0.13
  -5   3  10    0.40    0.20
  -5   3  10    0.42    0.21
  -5   3  10    0.42    0.16
   4  -3 -10    4.49    0.34
  -4   3  10    4.27    0.34
  -4   3  10    3.78    0.39
  -4   3  10    4.52    0.47
   3  -3 -10    0.51    0.16
  -3   3  10    0.53    0.19
  -3   3  10    0.42    0.15
   2  -3 -10    5.49    0.28
   2  -3 -10    4.90    0.36
  -2   3  10    5.36    0.38
   1  -3 -10   23.95    0.85
   1  -3 -10   22.52    0.81
  -1   3  10   23.40    0.79
  -1   3  10   23.87    0.85
  -1   3  10   23.16    0.81
   0  -3 -10   12.03    0.61
   0  -3 -10   13.26    0.61
   0   3  10   12.78    0.58
   0   3  10   12.03    0.59
   0   3  10   13.48    0.63
  -1  -3 -10    2.94    0.37
  -1  -3 -10    3.47    0.36
   1   3  10    3.11    0.36
   1   3  10    2.79    0.34
   1   3  10    2.80    0.34
  -2  -3 -10    0.09    0.17
  -2  -3 -10    0.52    0.18
   2   3  10    0.24    0.17
   2   3  10    0.03    0.13
   2   3  10    0.13    0.14
  -3  -3 -10    0.16    0.16
  -3  -3 -10    0.16    0.18
   3   3  10   -0.12    0.13
   3   3  10   -0.17    0.13
  -4  -3 -10    3.18    0.43
   4   3  10    3.13    0.42
   4   3  10    3.70    0.44
  -5  -3 -10   29.54    1.17
  -5  -3 -10   29.55    2.20
   5   3  10   31.66    1.17
   5   3  10   32.52    1.23
  -8   4  10   10.31    0.80
  -8   4  10    9.33    0.74
  -7   4  10   13.36    0.82
  -7   4  10   13.86    0.85
  -6   4  10    0.37    0.22
  -6   4  10    0.17    0.20
  -6   4  10    0.16    0.13
  -5   4  10   11.04    0.64
  -5   4  10   11.40    0.53
  -5   4  10   11.97    0.69
   4  -4 -10    0.77    0.19
  -4   4  10    0.67    0.21
  -4   4  10    1.16    0.22
  -4   4  10    0.76    0.23
   3  -4 -10    5.52    0.40
  -3   4  10    6.05    0.41
  -3   4  10    5.89    0.45
   2  -4 -10   14.15    0.63
  -2   4  10   14.71    0.65
   1  -4 -10   13.98    0.65
   1  -4 -10   13.91    0.64
  -1   4  10   12.89    0.63
  -1   4  10   13.23    0.61
  -1   4  10   13.76    0.59
   0  -4 -10    2.25    0.30
   0  -4 -10    3.20    0.37
   0   4  10    2.66    0.34
   0   4  10    1.96    0.28
   0   4  10    3.08    0.36
  -1  -4 -10    9.85    0.59
  -1  -4 -10    9.69    0.54
   1   4  10   10.30    0.58
   1   4  10    9.12    0.54
   1   4  10    8.90    0.52
  -2  -4 -10    5.02    0.42
  -2  -4 -10    5.45    0.52
   2   4  10    4.89    0.48
   2   4  10    4.18    0.43
  -3  -4 -10    2.75    0.36
  -3  -4 -10    2.77    0.39
   3   4  10    2.58    0.37
   3   4  10    3.07    0.39
  -4  -4 -10   -0.03    0.19
   4   4  10   -0.24    0.14
   4   4  10    0.22    0.21
  -5  -4 -10   10.48    1.73
  -5  -4 -10    6.10    0.60
   5   4  10    6.80    0.57
   5   4  10    7.58    0.58
  -7   5  10    0.18    0.23
  -7   5  10    0.31    0.25
  -6   5  10    5.41    0.56
  -6   5  10    4.77    0.54
  -6   5  10    5.61    0.39
   5  -5 -10   14.90    0.63
  -5   5  10   14.46    0.63
  -5   5  10   14.19    0.77
  -5   5  10   14.85    0.74
   4  -5 -10    0.80    0.14
   4  -5 -10    0.61    0.19
  -4   5  10    0.98    0.26
  -4   5  10    0.89    0.21
   3  -5 -10   23.05    0.64
   3  -5 -10   25.86    0.88
  -3   5  10   23.95    0.93
  -3   5  10   22.64    0.86
   2  -5 -10    8.41    0.50
  -2   5  10    8.31    0.51
   1  -5 -10   12.60    0.61
   1  -5 -10   11.20    0.62
  -1   5  10   11.23    0.59
  -1   5  10   12.45    0.63
   0  -5 -10   22.30    0.90
   0  -5 -10   23.83    0.90
   0   5  10   25.19    0.93
   0   5  10   24.18    0.94
  -1  -5 -10   10.52    0.59
  -1  -5 -10    8.97    0.59
   1   5  10   10.65    0.62
   1   5  10   10.56    0.57
   1   5  10    9.02    0.57
  -2  -5 -10   16.39    0.74
  -2  -5 -10   13.93    0.75
   2   5  10   13.71    0.72
   2   5  10   13.97    0.71
  -3  -5 -10   48.15    1.43
  -3  -5 -10   48.80    1.54
   3   5  10   45.79    1.47
   3   5  10   46.22    1.53
  -4  -5 -10    9.21    1.22
  -4  -5 -10    8.35    0.63
   4   5  10    8.69    0.60
   4   5  10    7.71    0.60
  -7   6  10   24.58    1.14
  -7   6  10   24.96    1.15
  -7   6  10   24.48    0.83
  -6   6  10    2.27    0.39
  -6   6  10    2.95    0.35
  -6   6  10    2.69    0.44
   5  -6 -10    4.95    0.41
   5  -6 -10    5.02    0.28
  -5   6  10    5.93    0.51
  -5   6  10    5.16    0.47
  -5   6  10    5.06    0.41
   4  -6 -10   -0.01    0.14
   4  -6 -10    0.11    0.13
  -4   6  10    0.03    0.15
  -4   6  10    0.12    0.17
   3  -6 -10   11.69    0.61
  -3   6  10   11.82    0.62
   2  -6 -10   10.09    0.57
  -2   6  10    9.40    0.56
   1  -6 -10    4.74    0.46
   1  -6 -10    2.64    0.36
  -1   6  10    4.75    0.47
  -1   6  10    3.99    0.42
   0  -6 -10    9.82    0.58
   0  -6 -10   10.10    0.62
   0   6  10   10.56    0.60
   0   6  10   11.03    0.64
  -1  -6 -10   24.00    1.00
  -1  -6 -10   24.04    0.94
   1   6  10   24.24    0.98
   1   6  10   22.65    0.97
  -2  -6 -10    0.93    0.24
  -2  -6 -10    1.65    0.32
   2   6  10    0.71    0.24
  -3  -6 -10    1.94    0.35
  -3  -6 -10    2.71    0.42
   3   6  10    2.10    0.36
   3   6  10    1.51    0.32
  -4  -6 -10    1.17    0.80
  -4  -6 -10    0.57    0.27
   4   6  10    0.59    0.27
   4   6  10    0.41    0.23
   7  -7 -10    4.59    0.27
  -7   7  10    4.61    0.39
  -7   7  10    4.53    0.59
  -7   7  10    4.55    0.57
   6  -7 -10    7.76    0.35
  -6   7  10    6.71    0.48
  -6   7  10    8.05    0.63
   5  -7 -10    0.74    0.22
   5  -7 -10    1.55    0.21
  -5   7  10    1.79    0.35
  -5   7  10    1.14    0.24
   4  -7 -10    0.26    0.18
  -4   7  10    0.32    0.20
  -4   7  10    0.14    0.17
   3  -7 -10    1.98    0.31
  -3   7  10    1.82    0.31
   2  -7 -10   51.94    1.50
  -2   7  10   47.63    1.50
   1  -7 -10   18.30    0.85
   1  -7 -10   18.45    0.82
  -1   7  10   18.49    0.85
   0  -7 -10   39.44    1.34
   0  -7 -10   40.82    1.30
   0   7  10   38.12    1.33
   0   7  10   38.48    1.31
  -1  -7 -10    0.73    0.24
  -1  -7 -10    0.48    0.23
   1   7  10    1.20    0.29
   1   7  10    0.82    0.26
  -2  -7 -10    9.23    0.61
  -2  -7 -10    9.18    0.67
   2   7  10   10.09    0.66
  -3  -7 -10    2.71    0.44
   3   7  10    2.34    0.42
   7  -8 -10   23.72    0.69
  -7   8  10   24.81    0.93
  -7   8  10   23.49    1.15
   6  -8 -10    0.75    0.18
  -6   8  10    0.75    0.22
  -6   8  10    0.83    0.30
   5  -8 -10   22.55    0.92
  -5   8  10   23.44    0.94
  -5   8  10   22.17    1.02
   4  -8 -10   14.76    0.73
  -4   8  10   13.38    0.72
  -4   8  10   13.91    0.77
   3  -8 -10   32.88    1.16
  -3   8  10   34.06    1.22
   2  -8 -10    4.01    0.45
  -2   8  10    5.24    0.53
   1  -8 -10    3.35    0.42
   1  -8 -10    2.68    0.38
  -1   8  10    1.92    0.35
   0  -8 -10    0.25    0.21
   0  -8 -10    0.59    0.27
   0   8  10    0.29    0.22
   0   8  10    0.31    0.19
  -1  -8 -10    1.07    0.28
  -1  -8 -10    0.58    0.27
   1   8  10    1.20    0.30
  -2  -8 -10    0.49    0.26
  -2  -8 -10    0.64    0.26
   2   8  10    0.33    0.23
   6  -9 -10   11.30    0.67
  -6   9  10   11.62    0.77
  -6   9  10   11.15    0.66
   5  -9 -10   11.47    0.67
  -5   9  10   10.42    0.71
  -5   9  10    9.88    0.63
   4  -9 -10    1.09    0.29
  -4   9  10    1.23    0.30
   3  -9 -10    0.93    0.27
  -3   9  10    1.01    0.26
   2  -9 -10    5.43    0.55
  -2   9  10    4.42    0.53
   1  -9 -10    2.69    0.42
   1  -9 -10    1.69    0.37
  -1   9  10    3.16    0.45
   0  -9 -10    3.68    0.47
   0  -9 -10    4.99    0.56
   0   9  10    4.74    0.53
   0   9  10    3.98    0.51
  -1  -9 -10   13.81    0.78
  -1  -9 -10   14.07    0.85
   1   9  10   15.33    0.84
  -2  -9 -10   -0.05    0.21
  -2  -9 -10    0.05    0.23
   2   9  10   -0.04    0.21
   6 -10 -10    0.36    0.24
  -6  10  10    0.45    0.23
  -6  10  10   -0.08    0.20
   5 -10 -10   11.60    0.70
  -5  10  10   10.26    0.67
  -5  10  10   10.80    0.75
   4 -10 -10   14.29    0.78
  -4  10  10   14.36    0.80
   3 -10 -10    0.35    0.22
  -3  10  10    0.66    0.25
   2 -10 -10    3.86    0.47
  -2  10  10    4.26    0.54
   1 -10 -10    1.92    0.42
   1 -10 -10    1.39    0.33
  -1  10  10    1.53    0.37
   0 -10 -10    1.83    0.41
   0 -10 -10    1.63    0.36
   0  10  10    2.09    0.40
   0  10  10    2.18    0.41
  -1 -10 -10    1.25    0.38
  -1 -10 -10    1.43    0.36
   1  10  10    1.76    0.38
   5 -11 -10   13.38    0.80
  -5  11  10   13.91    0.86
  -5  11  10   12.41    0.78
   4 -11 -10    5.29    0.60
  -4  11  10    4.92    0.57
   3 -11 -10   12.14    0.77
  -3  11  10   11.80    0.77
   2 -11 -10    5.06    0.58
  -2  11  10    7.04    0.70
   1 -11 -10    2.22    0.44
   1 -11 -10    2.03    0.40
  -1  11  10    1.99    0.41
   0 -11  11   21.34    1.06
   0 -11  11   19.87    0.95
   1 -11  11    1.55    0.35
   1 -11  11    1.48    0.38
  -2  11 -11    1.62    0.40
   2 -11  11    1.76    0.38
   2 -11  11    2.86    0.49
  -2 -10  11   15.74    0.87
  -1 -10  11    0.11    0.23
   0 -10  11    7.19    0.56
   0 -10  11    6.90    0.69
   1 -10  11    5.52    0.61
   1 -10  11    6.17    0.59
  -2  10 -11    0.22    0.24
   2 -10  11    0.05    0.20
   2 -10  11    0.03    0.23
  -3  10 -11    6.46    0.68
   3 -10  11    5.52    0.61
   3 -10  11    6.30    0.63
   3 -10  11    6.22    0.66
  -3  -9  11    1.40    0.33
  -3  -9  11    1.48    0.43
  -2  -9  11    1.14    0.31
  -1  -9  11   12.29    0.74
   0  -9  11   11.77    0.67
   0  -9  11   12.91    0.77
   1  -9  11   12.18    0.78
   1  -9  11   14.56    0.75
  -2   9 -11    0.33    0.23
   2  -9  11    0.10    0.18
   2  -9  11    0.46    0.27
  -3   9 -11    1.66    0.36
   3  -9  11    1.52    0.33
   3  -9  11    1.22    0.33
   3  -9  11    1.26    0.37
  -4   9 -11    0.56    0.28
   4  -9  11    0.38    0.28
   4  -9  11    1.28    0.32
  -4  -8  11    0.69    0.34
  -4  -8  11    1.29    0.29
  -3  -8  11    1.44    0.31
  -3  -8  11    1.32    0.41
  -2  -8  11    1.36    0.31
  -1  -8  11    1.17    0.31
  -1  -8  11    0.98    0.25
   0  -8  11    2.12    0.38
   0  -8  11    2.76    0.37
  -1   8 -11   12.37    0.74
   1  -8  11   13.18    0.70
   1  -8  11   12.14    0.73
  -2   8 -11    6.36    0.54
   2  -8  11    8.00    0.60
   2  -8  11    7.68    0.56
   2  -8  11    7.38    0.55
  -3   8 -11   35.12    1.34
   3  -8  11   36.61    1.31
   3  -8  11   36.98    1.35
   3  -8  11   34.45    1.30
  -4   8 -11   -0.01    0.19
   4  -8  11    0.42    0.24
   4  -8  11    0.37    0.24
  -5   8 -11    0.88    0.31
   5  -8  11    0.32    0.24
   5  -8  11    0.11    0.24
  -4  -7  11   36.40    1.20
  -4  -7  11   35.11    1.49
  -3  -7  11    4.66    0.48
  -3  -7  11    4.52    0.58
  -2  -7  11    3.77    0.44
  -1  -7  11    9.48    0.54
  -1  -7  11   10.33    0.63
   0  -7  11    0.62    0.21
   0  -7  11    0.96    0.27
  -1   7 -11    5.79    0.48
   1  -7  11    5.68    0.45
   1  -7  11    6.18    0.51
  -2   7 -11    0.56    0.23
   2  -7  11    0.82    0.22
   2  -7  11    0.86    0.25
   2  -7  11    0.65    0.25
  -3   7 -11    0.66    0.25
   3  -7  11    0.75    0.26
   3  -7  11    0.57    0.22
   3  -7  11   -0.10    0.20
  -4   7 -11   23.52    0.98
  -4   7 -11   22.38    1.05
   4  -7  11   22.86    1.00
   4  -7  11   23.02    1.03
  -5   7 -11   22.26    1.07
   5  -7  11   22.02    1.01
   5  -7  11   21.48    1.03
  -5  -6  11    0.08    0.25
  -5  -6  11    0.32    0.19
  -4  -6  11   21.50    0.86
  -4  -6  11   21.76    1.10
  -3  -6  11   21.05    0.87
  -3  -6  11   22.74    1.07
  -2  -6  11    3.66    0.48
  -2  -6  11    2.76    0.37
  -1  -6  11   46.13    1.41
  -1  -6  11   47.10    1.32
   0  -6  11    4.59    0.43
   0  -6  11    4.67    0.48
  -1   6 -11    0.14    0.19
   1  -6  11    0.01    0.18
   1  -6  11    0.15    0.17
   1  -6  11    0.00    0.17
  -2   6 -11   12.19    0.70
   2  -6  11   11.96    0.70
   2  -6  11   11.57    0.67
   2  -6  11   12.41    0.66
  -3   6 -11    2.55    0.40
   3  -6  11    2.31    0.37
   3  -6  11    3.11    0.40
   3  -6  11    2.49    0.40
  -4   6 -11    5.48    0.57
  -4   6 -11    4.42    0.48
   4  -6  11    4.83    0.52
   4  -6  11    5.79    0.56
  -5   6 -11   19.99    0.99
   5  -6  11   21.09    1.00
   5  -6  11   21.96    0.99
  -6  -5  11    1.88    0.46
  -5  -5  11    3.62    0.56
  -5  -5  11    4.38    0.41
  -4  -5  11    0.29    0.25
  -4  -5  11    0.66    0.22
  -3  -5  11    6.22    0.45
  -3  -5  11    6.18    0.63
  -2  -5  11   -0.09    0.17
  -2  -5  11   -0.04    0.14
  -1  -5  11    3.81    0.37
  -1  -5  11    3.84    0.41
   0   5 -11   64.05    1.74
   0  -5  11   63.23    1.75
   0  -5  11   64.22    1.67
  -1   5 -11    4.31    0.44
   1  -5  11    4.37    0.46
   1  -5  11    4.43    0.43
   1  -5  11    4.39    0.44
  -2   5 -11    6.08    0.50
   2  -5  11    5.45    0.43
   2  -5  11    4.61    0.47
   2  -5  11    5.55    0.53
  -3   5 -11   82.08    2.22
  -3   5 -11   82.30    2.09
   3  -5  11   80.02    2.12
   3  -5  11   79.95    2.17
   3  -5  11   83.97    2.19
  -4   5 -11   18.54    0.83
  -4   5 -11   18.74    0.90
   4  -5  11   16.96    0.86
   4  -5  11   18.28    0.86
  -5   5 -11    0.24    0.22
   5  -5  11   -0.12    0.20
   5  -5  11    0.25    0.21
  -6  -4  11    5.31    0.68
  -5  -4  11    0.02    0.13
  -5  -4  11    0.10    0.23
  -4  -4  11    5.66    0.60
  -4  -4  11    5.03    0.39
  -3  -4  11   26.65    0.93
  -3  -4  11   27.74    1.10
  -2  -4  11   54.76    1.44
  -2  -4  11   52.57    1.59
  -2  -4  11   53.07    1.48
  -1  -4  11   11.82    0.56
  -1  -4  11   14.04    0.66
   0   4 -11   26.53    0.97
   0  -4  11   26.03    0.96
   0  -4  11   26.35    0.92
  -1   4 -11   48.42    1.46
   1  -4  11   48.68    1.43
   1  -4  11   50.91    1.49
   1  -4  11   48.92    1.40
  -2   4 -11   11.95    0.63
   2  -4  11   11.57    0.62
   2  -4  11   11.56    0.65
   2  -4  11   13.40    0.68
  -3   4 -11    1.62    0.29
   3  -4  11    1.53    0.29
   3  -4  11    2.13    0.35
   3  -4  11    1.95    0.32
  -4   4 -11   10.58    0.62
   4  -4  11   10.75    0.67
   4  -4  11   11.23    0.66
   5  -4  11   36.34    1.35
   5  -4  11   35.96    1.31
  -6   4 -11    7.33    0.60
   6  -4  11    6.09    0.62
   6  -4  11    6.39    0.64
  -6  -3  11    0.13    0.27
  -5  -3  11   19.39    0.70
  -5  -3  11   19.44    1.00
  -4  -3  11    4.18    0.47
  -4  -3  11    4.41    0.52
  -4  -3  11    4.15    0.35
  -3  -3  11   28.80    0.99
  -3  -3  11   27.03    1.04
  -3  -3  11   27.31    0.92
  -2  -3  11   63.31    1.63
  -2  -3  11   63.97    1.67
  -2  -3  11   63.66    1.75
  -2  -3  11   64.61    1.53
  -1  -3  11   13.79    0.56
  -1  -3  11   13.86    0.64
  -1  -3  11   12.44    0.60
  -1  -3  11   13.29    0.57
   0  -3  11    1.58    0.26
   0  -3  11    1.54    0.25
   0  -3  11    1.74    0.29
  -1   3 -11    8.43    0.51
   1  -3  11    8.96    0.51
   1  -3  11    8.28    0.54
   1  -3  11    8.56    0.52
  -2   3 -11    1.63    0.28
   2  -3  11    1.30    0.28
   2  -3  11    1.85    0.29
   2  -3  11    1.83    0.31
  -3   3 -11    4.11    0.43
   3  -3  11    4.57    0.45
   3  -3  11    5.02    0.50
   3  -3  11    4.47    0.47
  -4   3 -11    5.54    0.50
   4  -3  11    5.55    0.53
   4  -3  11    4.57    0.49
   5  -3  11   15.62    0.83
   5  -3  11   17.99    0.85
   6  -3  11    7.81    0.60
   6  -3  11    6.83    0.58
  -7  -2  11    1.12    0.37
  -6  -2  11    0.28    0.25
  -5  -2  11    2.07    0.26
  -5  -2  11    2.62    0.41
  -5  -2  11    2.75    0.44
  -4  -2  11   64.15    1.79
  -4  -2  11   62.68    1.57
  -4  -2  11   62.17    1.85
  -3  -2  11   44.20    1.23
  -3  -2  11   43.87    1.31
  -3  -2  11   42.51    1.35
  -2  -2  11    8.23    0.47
  -2  -2  11    7.56    0.45
  -2  -2  11    7.49    0.39
  -2  -2  11    7.46    0.47
  -1  -2  11   10.82    0.50
  -1  -2  11   10.41    0.56
  -1  -2  11   11.50    0.51
  -1  -2  11   10.72    0.50
   0   2 -11    7.47    0.46
   0  -2  11    6.78    0.37
   0  -2  11    6.98    0.45
   0  -2  11    7.01    0.43
   0  -2  11    6.72    0.47
  -1   2 -11    0.65    0.19
   1  -2  11    0.84    0.20
   1  -2  11    0.31    0.18
   1  -2  11    0.43    0.19
  -2   2 -11    0.40    0.17
   2  -2  11    0.40    0.18
   2  -2  11    0.95    0.24
  -3   2 -11   16.54    0.73
   3  -2  11   15.86    0.77
   3  -2  11   15.93    0.75
  -4   2 -11    4.54    0.45
   4  -2  11    3.64    0.44
   4  -2  11    4.71    0.50
   5  -2  11    6.25    0.59
   5  -2  11    6.17    0.52
   6  -2  11   25.58    1.12
   6  -2  11   27.51    1.13
  -7  -1  11    2.40    0.49
  -6  -1  11    7.50    0.66
  -6  -1  11    7.95    0.62
  -5  -1  11    0.88    0.19
  -5  -1  11    0.77    0.29
  -5  -1  11    0.40    0.22
  -4  -1  11    0.85    0.26
  -4  -1  11    0.45    0.22
  -4  -1  11    0.95    0.20
  -3  -1  11    0.51    0.19
  -3  -1  11    0.63    0.19
  -3  -1  11    0.50    0.17
   2   1 -11   15.85    0.65
  -2  -1  11   16.38    0.65
  -2  -1  11   15.64    0.65
  -2  -1  11   14.99    0.57
  -2  -1  11   15.58    0.65
   1   1 -11   34.95    1.06
  -1  -1  11   35.04    1.02
  -1  -1  11   34.61    1.01
  -1  -1  11   33.28    1.07
   0   1 -11    3.37    0.36
   0  -1  11    3.25    0.27
   0  -1  11    3.26    0.35
   0  -1  11    2.80    0.31
   0  -1  11    3.17    0.36
  -1   1 -11   12.38    0.60
   1  -1  11   11.15    0.61
   1  -1  11   11.84    0.60
   1  -1  11   11.81    0.58
  -2   1 -11    1.16    0.23
   2  -1  11    0.67    0.22
   2  -1  11    1.00    0.24
   2  -1  11    1.13    0.24
  -3   1 -11   18.79    0.78
   3  -1  11   17.94    0.80
   3  -1  11   19.28    0.85
  -4   1 -11    0.90    0.24
   4  -1  11    1.04    0.27
   4  -1  11    0.79    0.25
  -5   1 -11   13.38    1.30
   5  -1  11   12.04    0.71
   5  -1  11   12.52    0.73
  -7   0  11    2.76    0.46
  -7   0  11    4.02    0.58
  -6   0  11    0.69    0.27
  -6   0  11    2.15    0.42
  -5   0  11    0.17    0.18
  -5   0  11    0.04    0.13
  -5   0  11   -0.11    0.18
   4   0 -11    0.06    0.13
  -4   0  11    0.25    0.19
  -4   0  11    0.18    0.14
  -4   0  11    0.29    0.20
   3   0 -11    1.47    0.24
  -3   0  11    1.28    0.25
  -3   0  11    1.30    0.25
  -3   0  11    1.29    0.23
   2   0 -11    1.58    0.25
  -2   0  11    1.66    0.26
  -2   0  11    2.10    0.24
  -2   0  11    1.54    0.25
   1   0 -11   14.43    0.63
   1   0 -11   14.97    0.66
  -1   0  11   14.86    0.65
  -1   0  11   14.84    0.60
  -1   0  11   14.44    0.61
   0   0 -11    2.26    0.30
   0   0 -11    2.09    0.31
   0   0  11    2.38    0.31
   0   0  11    2.34    0.29
   0   0  11    2.89    0.34
  -1   0 -11    0.93    0.22
  -1   0 -11    1.15    0.25
   1   0  11    1.25    0.22
   1   0  11    1.02    0.24
   1   0  11    1.31    0.26
  -2   0 -11    7.72    0.55
  -2   0 -11    7.24    0.48
   2   0  11    8.08    0.52
   2   0  11    7.57    0.51
   2   0  11    7.48    0.49
  -3   0 -11    0.15    0.19
  -3   0 -11    0.13    0.15
   3   0  11    0.10    0.17
   3   0  11    0.06    0.14
  -4   0 -11   31.68    1.18
  -4   0 -11   30.59    1.05
   4   0  11   28.57    1.12
   4   0  11   30.12    1.11
  -5   0 -11   14.73    1.42
   5   0  11   14.09    0.76
   5   0  11   14.80    0.79
  -7   1  11    9.73    0.76
  -7   1  11   11.08    0.76
  -6   1  11    3.65    0.50
  -6   1  11    3.63    0.48
  -5   1  11   32.60    1.22
  -5   1  11   34.49    0.97
  -5   1  11   33.53    1.24
   4  -1 -11    1.23    0.22
  -4   1  11    1.39    0.29
  -4   1  11    1.89    0.31
  -4   1  11    1.42    0.23
   3  -1 -11   56.02    1.44
  -3   1  11   56.36    1.46
  -3   1  11   56.11    1.50
  -3   1  11   58.09    1.59
   2  -1 -11   21.85    0.79
  -2   1  11   22.34    0.83
  -2   1  11   22.41    0.73
  -2   1  11   23.12    0.82
   1  -1 -11    4.84    0.38
   1  -1 -11    5.15    0.42
  -1   1  11    4.27    0.35
  -1   1  11    5.04    0.35
  -1   1  11    4.41    0.37
   0  -1 -11    3.77    0.41
   0  -1 -11    4.66    0.38
   0   1  11    3.81    0.37
   0   1  11    4.27    0.36
   0   1  11    4.48    0.43
  -1  -1 -11    2.02    0.29
  -1  -1 -11    2.06    0.32
   1   1  11    2.93    0.34
   1   1  11    2.99    0.36
   1   1  11    2.24    0.31
  -2  -1 -11   21.58    0.90
  -2  -1 -11   21.01    0.82
   2   1  11   20.82    0.87
   2   1  11   21.25    0.84
   2   1  11   20.60    0.86
  -3  -1 -11   67.18    1.76
  -3  -1 -11   69.31    1.89
   3   1  11   63.17    1.77
   3   1  11   65.40    1.85
  -4  -1 -11    1.71    0.30
  -4  -1 -11    1.35    0.32
   4   1  11    1.64    0.31
   4   1  11    1.09    0.26
  -5  -1 -11    4.80    1.18
  -5  -1 -11    3.00    0.44
   5   1  11    3.36    0.44
   5   1  11    3.52    0.46
  -7   2  11   13.42    0.85
  -7   2  11   11.73    0.80
  -6   2  11   23.03    1.05
  -6   2  11   21.46    1.01
  -6   2  11   21.81    0.70
  -5   2  11   56.68    1.42
  -5   2  11   57.36    1.73
  -5   2  11   58.64    1.73
   4  -2 -11   22.04    0.77
  -4   2  11   22.84    0.93
  -4   2  11   22.26    0.78
  -4   2  11   22.64    0.88
   3  -2 -11   11.00    0.54
  -3   2  11   11.46    0.61
  -3   2  11   11.63    0.56
   2  -2 -11   30.95    1.00
  -2   2  11   32.03    1.03
  -2   2  11   32.37    0.94
  -2   2  11   31.29    1.05
   1  -2 -11    0.08    0.13
   1  -2 -11    0.14    0.16
  -1   2  11    0.00    0.11
  -1   2  11    0.10    0.14
  -1   2  11    0.02    0.14
   0  -2 -11    3.31    0.35
   0  -2 -11    3.96    0.42
   0   2  11    3.34    0.37
   0   2  11    3.36    0.38
   0   2  11    3.36    0.35
  -1  -2 -11   54.01    1.50
  -1  -2 -11   54.76    1.56
   1   2  11   52.65    1.54
   1   2  11   54.68    1.53
   1   2  11   52.74    1.47
  -2  -2 -11    3.67    0.40
  -2  -2 -11    3.90    0.45
   2   2  11    4.11    0.44
   2   2  11    4.64    0.45
   2   2  11    4.44    0.47
  -3  -2 -11   35.88    1.25
  -3  -2 -11   34.49    1.14
   3   2  11   34.65    1.22
   3   2  11   32.87    1.17
  -4  -2 -11   21.16    0.97
   4   2  11   20.70    0.92
   4   2  11   21.51    0.96
  -5  -2 -11    1.29    0.33
  -5  -2 -11    1.10    0.74
   5   2  11    0.96    0.28
   5   2  11    1.19    0.30
  -7   3  11    2.75    0.46
  -6   3  11   28.52    1.15
  -6   3  11   27.77    1.18
  -6   3  11   26.28    0.83
  -5   3  11    4.72    0.50
  -5   3  11    4.11    0.35
  -5   3  11    4.28    0.48
   4  -3 -11    3.43    0.34
  -4   3  11    3.76    0.43
  -4   3  11    3.49    0.34
  -4   3  11    3.52    0.37
   3  -3 -11   27.96    0.93
  -3   3  11   29.45    0.96
  -3   3  11   28.51    1.04
   2  -3 -11   13.28    0.60
  -2   3  11   11.22    0.58
   1  -3 -11   55.00    1.50
   1  -3 -11   56.52    1.53
  -1   3  11   53.68    1.52
  -1   3  11   54.69    1.48
  -1   3  11   56.80    1.46
   0  -3 -11    3.24    0.37
   0  -3 -11    3.87    0.41
   0   3  11    2.64    0.33
   0   3  11    3.51    0.39
   0   3  11    3.43    0.36
  -1  -3 -11   12.86    0.68
  -1  -3 -11   12.05    0.63
   1   3  11   12.91    0.66
   1   3  11   13.77    0.65
   1   3  11   13.27    0.69
  -2  -3 -11   18.69    0.85
  -2  -3 -11   17.16    0.76
   2   3  11   17.80    0.82
   2   3  11   17.52    0.81
   2   3  11   17.86    0.78
  -3  -3 -11    5.26    0.53
  -3  -3 -11    4.48    0.45
   3   3  11    4.23    0.47
   3   3  11    5.25    0.51
  -4  -3 -11    4.94    0.54
   4   3  11    4.77    0.50
   4   3  11    3.96    0.48
  -5  -3 -11    3.78    0.50
  -5  -3 -11    4.94    1.28
   5   3  11    4.37    0.51
   5   3  11    3.56    0.48
  -7   4  11    0.19    0.24
  -7   4  11    0.14    0.26
  -6   4  11    3.27    0.46
  -6   4  11    2.55    0.29
  -6   4  11    2.91    0.43
  -5   4  11    6.16    0.52
  -5   4  11    5.90    0.41
  -5   4  11    6.13    0.51
   4  -4 -11   33.43    1.05
  -4   4  11   34.18    1.22
  -4   4  11   33.12    1.04
   3  -4 -11   28.08    0.96
   3  -4 -11   29.01    0.74
  -3   4  11   28.81    0.98
  -3   4  11   28.40    1.06
   2  -4 -11   32.23    1.04
  -2   4  11   28.39    1.01
   1  -4 -11   30.32    1.05
   1  -4 -11   31.55    1.05
  -1   4  11   29.45    1.01
  -1   4  11   30.55    0.99
  -1   4  11   31.73    1.07
   0  -4 -11    0.25    0.16
   0  -4 -11    0.25    0.19
   0   4  11    0.57    0.18
   0   4  11    0.66    0.22
   0   4  11    0.43    0.19
  -1  -4 -11   20.76    0.90
  -1  -4 -11   21.88    0.87
   1   4  11   21.70    0.90
   1   4  11   20.66    0.84
   1   4  11   21.88    0.90
  -2  -4 -11    2.50    0.35
  -2  -4 -11    2.11    0.35
   2   4  11    2.96    0.38
   2   4  11    2.62    0.37
  -3  -4 -11   11.89    0.72
  -3  -4 -11   12.51    0.66
   3   4  11   12.32    0.71
   3   4  11   12.59    0.70
  -4  -4 -11    6.09    0.60
   4   4  11    6.26    0.61
   4   4  11    7.15    0.56
  -7   5  11    1.92    0.26
  -7   5  11    1.59    0.39
  -7   5  11    1.91    0.41
  -6   5  11   24.80    0.85
  -6   5  11   23.72    1.09
  -6   5  11   25.37    1.08
   5  -5 -11    1.10    0.24
  -5   5  11    1.16    0.24
  -5   5  11    0.76    0.26
   4  -5 -11   -0.04    0.13
   4  -5 -11    0.06    0.11
  -4   5  11    0.07    0.15
  -4   5  11    0.01    0.16
   3  -5 -11   21.06    0.82
  -3   5  11   21.29    0.90
  -3   5  11   20.62    0.83
   2  -5 -11    0.79    0.21
  -2   5  11    1.30    0.26
   1  -5 -11   -0.05    0.14
   1  -5 -11    0.24    0.17
  -1   5  11   -0.30    0.12
   0  -5 -11    8.86    0.58
   0  -5 -11    8.56    0.54
   0   5  11    7.07    0.51
   0   5  11    8.32    0.57
   0   5  11    9.00    0.53
  -1  -5 -11   24.94    1.00
  -1  -5 -11   24.32    0.95
   1   5  11   23.08    0.92
   1   5  11   23.40    0.96
   1   5  11   23.11    0.97
  -2  -5 -11    0.10    0.20
  -2  -5 -11   -0.01    0.15
   2   5  11    0.06    0.18
   2   5  11    0.01    0.15
  -3  -5 -11    5.65    0.47
  -3  -5 -11    5.78    0.59
   3   5  11    6.26    0.52
   3   5  11    6.19    0.53
  -4  -5 -11    0.92    0.31
   4   5  11    1.53    0.34
   4   5  11    1.49    0.35
  -7   6  11    0.70    0.30
  -7   6  11    0.72    0.21
  -7   6  11    0.95    0.32
  -6   6  11   11.54    0.76
  -6   6  11   14.26    0.80
  -6   6  11   13.10    0.63
   5  -6 -11    0.79    0.23
   5  -6 -11    0.77    0.15
  -5   6  11    0.88    0.28
  -5   6  11    0.66    0.22
   4  -6 -11    3.91    0.42
   4  -6 -11    3.96    0.31
  -4   6  11    3.43    0.44
  -4   6  11    4.98    0.42
   3  -6 -11    4.94    0.47
  -3   6  11    4.46    0.45
   2  -6 -11    2.88    0.37
  -2   6  11    3.39    0.40
   1  -6 -11   32.19    1.14
   1  -6 -11   32.48    1.16
  -1   6  11   31.64    1.15
   0  -6 -11   25.67    1.00
   0  -6 -11   25.92    1.05
   0   6  11   26.84    1.03
   0   6  11   26.81    1.07
  -1  -6 -11    3.74    0.47
  -1  -6 -11    4.77    0.49
   1   6  11    3.76    0.48
   1   6  11    4.27    0.48
  -2  -6 -11    0.89    0.29
  -2  -6 -11    0.26    0.21
   2   6  11    0.78    0.26
   2   6  11    0.67    0.26
  -3  -6 -11    2.64    0.44
  -3  -6 -11    2.83    0.41
   3   6  11    3.17    0.44
   3   6  11    4.17    0.52
   7  -7 -11   -0.03    0.13
  -7   7  11    0.01    0.22
  -7   7  11    0.14    0.26
  -7   7  11    0.25    0.18
   6  -7 -11    0.70    0.16
  -6   7  11    0.45    0.20
  -6   7  11    0.20    0.23
   5  -7 -11    2.83    0.27
   5  -7 -11    2.48    0.35
  -5   7  11    2.55    0.36
  -5   7  11    2.32    0.40
   4  -7 -11    4.94    0.49
  -4   7  11    4.23    0.46
  -4   7  11    4.60    0.53
   3  -7 -11    9.70    0.60
  -3   7  11    9.13    0.59
   2  -7 -11    4.19    0.46
  -2   7  11    6.75    0.52
   1  -7 -11    0.77    0.27
   1  -7 -11    0.88    0.25
  -1   7  11    1.37    0.31
   0  -7 -11    0.12    0.20
   0  -7 -11   -0.08    0.18
   0   7  11    0.29    0.21
   0   7  11    0.13    0.19
  -1  -7 -11   -0.06    0.17
  -1  -7 -11    0.16    0.22
   1   7  11    0.38    0.22
   1   7  11    0.45    0.26
  -2  -7 -11    1.26    0.34
  -2  -7 -11    1.10    0.29
   2   7  11    1.23    0.32
  -3  -7 -11    5.63    0.61
   3   7  11    7.18    0.69
   6  -8 -11    5.82    0.37
  -6   8  11    5.69    0.47
  -6   8  11    5.25    0.60
   5  -8 -11   16.84    0.79
  -5   8  11   15.50    0.77
  -5   8  11   16.30    0.89
   4  -8 -11    7.63    0.56
  -4   8  11    8.41    0.62
  -4   8  11    8.48    0.58
   3  -8 -11    2.76    0.39
  -3   8  11    3.38    0.43
   2  -8 -11   15.69    0.79
  -2   8  11   15.30    0.82
   1  -8 -11    2.58    0.39
   1  -8 -11    2.12    0.39
  -1   8  11    2.74    0.43
   0  -8 -11   14.03    0.80
   0  -8 -11   12.60    0.74
   0   8  11   12.85    0.75
   0   8  11   12.82    0.77
  -1  -8 -11   10.61    0.76
  -1  -8 -11   12.54    0.74
   1   8  11   13.32    0.79
  -2  -8 -11    0.75    0.28
  -2  -8 -11    0.36    0.29
   2   8  11    0.58    0.29
   6  -9 -11   11.47    0.70
  -6   9  11   10.21    0.76
  -6   9  11   12.31    0.70
   5  -9 -11    0.39    0.24
  -5   9  11   -0.11    0.18
  -5   9  11    0.34    0.21
   4  -9 -11    4.17    0.49
  -4   9  11    3.90    0.51
  -4   9  11    4.22    0.49
   3  -9 -11   10.10    0.66
  -3   9  11    9.09    0.65
   2  -9 -11    1.44    0.32
  -2   9  11    1.91    0.37
   1  -9 -11   46.13    1.60
   1  -9 -11   47.92    1.58
  -1   9  11   47.99    1.64
   0  -9 -11    4.36    0.57
   0  -9 -11    3.31    0.48
   0   9  11    4.56    0.56
  -1  -9 -11    3.02    0.48
  -1  -9 -11    1.87    0.38
   1   9  11    2.68    0.45
   5 -10 -11    0.26    0.23
  -5  10  11    0.60    0.26
  -5  10  11    0.32    0.25
   4 -10 -11    7.55    0.61
  -4  10  11    9.10    0.67
   3 -10 -11    0.02    0.21
  -3  10  11   -0.08    0.19
   2 -10 -11    3.83    0.50
  -2  10  11    4.47    0.57
   1 -10 -11   25.48    1.16
   1 -10 -11   24.68    1.11
  -1  10  11   25.79    1.18
   0 -10 -11    2.72    0.47
   0 -10 -11    2.63    0.43
   0  10  11    2.74    0.48
   3 -11 -11    6.82    0.67
  -3  11  11    7.70    0.74
   2 -11 -11    3.87    0.52
  -2  11  11    3.86    0.55
  -1 -10  12   22.49    1.06
   0 -10  12    4.40    0.51
   0 -10  12    3.14    0.47
   1 -10  12    0.80    0.29
   1 -10  12    0.26    0.26
  -2  10 -12    2.93    0.48
   2 -10  12    3.09    0.46
   2 -10  12    2.90    0.49
  -2  -9  12    4.72    0.63
  -2  -9  12    3.88    0.48
  -1  -9  12    0.76    0.29
   0  -9  12    2.46    0.44
   0  -9  12    1.43    0.31
   1  -9  12    0.24    0.22
   1  -9  12    0.37    0.26
  -2   9 -12    2.23    0.43
   2  -9  12    1.91    0.40
   2  -9  12    2.10    0.40
  -3   9 -12   40.36    1.55
   3  -9  12   41.71    1.49
   3  -9  12   40.68    1.52
   3  -9  12   39.26    1.44
  -3  -8  12    5.36    0.55
  -3  -8  12    4.97    0.65
  -2  -8  12    0.22    0.21
  -2  -8  12    0.76    0.31
  -1  -8  12    0.59    0.27
   0  -8  12    5.20    0.56
   0  -8  12    4.41    0.46
   1  -8  12   17.64    0.84
   1  -8  12   17.61    0.89
  -2   8 -12   10.37    0.70
   2  -8  12    9.46    0.63
   2  -8  12   10.40    0.70
  -3   8 -12    0.57    0.25
   3  -8  12    1.27    0.35
   3  -8  12    1.42    0.32
   3  -8  12    1.29    0.33
  -4   8 -12    0.53    0.26
   4  -8  12    0.30    0.27
   4  -8  12    0.73    0.28
  -4  -7  12    6.17    0.51
  -4  -7  12    6.48    0.75
  -3  -7  12    1.28    0.30
  -3  -7  12    1.26    0.36
  -2  -7  12    2.79    0.40
  -2  -7  12    2.42    0.44
  -1  -7  12    0.16    0.18
  -1  -7  12    0.19    0.21
   0  -7  12    2.21    0.34
   0  -7  12    2.61    0.40
  -1   7 -12   20.08    0.90
   1  -7  12   17.90    0.87
   1  -7  12   17.28    0.81
  -2   7 -12    0.60    0.26
   2  -7  12    0.26    0.22
   2  -7  12    0.06    0.20
   2  -7  12    0.12    0.19
  -3   7 -12   18.13    0.93
   3  -7  12   18.33    0.91
   3  -7  12   18.64    0.92
   3  -7  12   17.36    0.87
  -4   7 -12    0.18    0.24
  -4   7 -12    0.25    0.21
   4  -7  12    0.26    0.21
   4  -7  12    0.37    0.25
  -5   7 -12    4.96    0.60
   5  -7  12    5.80    0.61
   5  -7  12    6.69    0.67
  -5  -6  12    2.33    0.49
  -5  -6  12    1.89    0.32
  -4  -6  12   12.27    0.65
  -4  -6  12   13.05    0.87
  -3  -6  12    8.08    0.56
  -3  -6  12    9.89    0.73
  -2  -6  12   35.91    1.33
  -2  -6  12   34.12    1.19
  -1  -6  12    0.95    0.26
  -1  -6  12    1.31    0.26
   0  -6  12    3.97    0.46
   0  -6  12    4.14    0.43
  -1   6 -12   16.02    0.82
   1  -6  12   16.61    0.82
   1  -6  12   17.29    0.78
  -2   6 -12    3.79    0.47
   2  -6  12    3.74    0.47
   2  -6  12    4.04    0.46
   2  -6  12    3.97    0.47
  -3   6 -12   10.71    0.65
  -3   6 -12   10.61    0.71
   3  -6  12   10.18    0.67
   3  -6  12   10.23    0.70
   3  -6  12   10.98    0.67
  -4   6 -12   20.39    0.93
  -4   6 -12   21.90    1.03
   4  -6  12   19.46    0.97
   4  -6  12   20.43    0.95
  -5   6 -12    1.33    0.34
   5  -6  12    1.50    0.36
   5  -6  12    2.37    0.41
  -5  -5  12    0.11    0.17
  -5  -5  12    0.31    0.28
  -4  -5  12    0.71    0.30
  -4  -5  12    0.53    0.22
  -3  -5  12    1.16    0.32
  -3  -5  12    1.63    0.28
  -2  -5  12   29.97    1.08
  -2  -5  12   30.73    1.17
  -1  -5  12    2.64    0.32
  -1  -5  12    3.09    0.40
   0  -5  12   13.27    0.65
   0  -5  12   12.75    0.69
  -1   5 -12   84.07    2.21
   1  -5  12   80.06    2.16
   1  -5  12   82.90    2.09
  -2   5 -12    0.57    0.24
   2  -5  12    0.63    0.24
   2  -5  12    0.98    0.25
   2  -5  12    0.91    0.26
  -3   5 -12    0.44    0.24
  -3   5 -12    0.50    0.21
   3  -5  12    0.52    0.24
   3  -5  12    0.42    0.21
   3  -5  12    0.43    0.23
  -4   5 -12    1.05    0.31
  -4   5 -12    1.45    0.31
   4  -5  12    1.39    0.33
   4  -5  12    1.15    0.31
  -5   5 -12    0.57    0.27
   5  -5  12    0.43    0.26
   5  -5  12    0.53    0.24
  -6  -4  12   -0.03    0.26
  -5  -4  12    1.84    0.41
  -5  -4  12    1.71    0.28
  -4  -4  12    0.09    0.20
  -4  -4  12   -0.19    0.13
  -3  -4  12   10.40    0.62
  -3  -4  12   10.66    0.58
  -3  -4  12   10.47    0.67
  -2  -4  12    6.67    0.47
  -2  -4  12    5.62    0.49
  -1  -4  12    2.04    0.29
  -1  -4  12    1.60    0.29
   0   4 -12    4.18    0.45
   0  -4  12    4.93    0.48
   0  -4  12    3.51    0.40
  -1   4 -12   38.63    1.29
   1  -4  12   36.50    1.22
   1  -4  12   36.40    1.20
   1  -4  12   37.26    1.27
  -2   4 -12   19.89    0.84
   2  -4  12   18.45    0.83
   2  -4  12   18.99    0.86
   2  -4  12   16.28    0.82
  -3   4 -12    1.60    0.31
   3  -4  12    1.54    0.31
   3  -4  12    1.24    0.29
  -4   4 -12   14.83    0.75
   4  -4  12   14.81    0.79
   4  -4  12   14.14    0.80
   5  -4  12   38.26    1.38
   5  -4  12   39.31    1.45
  -6  -3  12   11.35    0.85
  -5  -3  12    2.07    0.40
  -5  -3  12    2.40    0.30
  -4  -3  12   12.76    0.77
  -4  -3  12   12.73    0.71
  -4  -3  12   11.79    0.59
  -3  -3  12   31.95    1.10
  -3  -3  12   32.33    1.06
  -3  -3  12   33.31    1.18
  -2  -3  12   61.99    1.61
  -2  -3  12   59.79    1.64
  -2  -3  12   60.07    1.70
  -1  -3  12    5.84    0.45
  -1  -3  12    6.50    0.42
   0  -3  12    3.83    0.41
   0  -3  12    2.93    0.34
  -1   3 -12    0.65    0.21
   1  -3  12    0.98    0.26
   1  -3  12    1.40    0.27
   1  -3  12    1.03    0.26
  -2   3 -12   42.28    1.34
   2  -3  12   44.33    1.41
   2  -3  12   42.26    1.33
   2  -3  12   43.09    1.39
  -3   3 -12   11.04    0.64
   3  -3  12   12.91    0.71
   3  -3  12   11.75    0.66
  -4   3 -12   12.60    0.67
   4  -3  12   10.34    0.68
   4  -3  12   10.97    0.68
   5  -3  12   -0.17    0.18
   5  -3  12    0.39    0.23
  -6  -2  12   13.00    0.87
  -5  -2  12   51.26    1.73
  -5  -2  12   52.43    1.36
  -5  -2  12   49.56    1.64
  -4  -2  12    2.46    0.40
  -4  -2  12    1.78    0.33
  -4  -2  12    2.23    0.29
  -3  -2  12    1.39    0.25
  -3  -2  12    1.37    0.29
  -3  -2  12    0.65    0.23
  -2  -2  12    6.11    0.44
  -2  -2  12    5.95    0.42
  -2  -2  12    6.14    0.37
  -2  -2  12    5.59    0.42
   1   2 -12   48.69    1.37
  -1  -2  12   48.01    1.29
  -1  -2  12   47.56    1.31
  -1  -2  12   46.27    1.40
   0   2 -12    1.12    0.24
   0  -2  12    1.53    0.28
   0  -2  12    1.94    0.28
   0  -2  12    1.82    0.31
  -1   2 -12   27.38    0.99
   1  -2  12   28.10    1.05
   1  -2  12   28.51    1.02
   1  -2  12   27.14    0.97
  -2   2 -12   12.19    0.65
   2  -2  12   11.95    0.64
   2  -2  12   12.04    0.67
   2  -2  12   12.21    0.69
  -3   2 -12   31.62    1.11
   3  -2  12   31.45    1.14
   3  -2  12   32.80    1.19
  -4   2 -12    0.45    0.21
   4  -2  12    0.46    0.21
   4  -2  12    0.63    0.25
   5  -2  12   -0.04    0.18
   5  -2  12    0.23    0.23
  -7  -1  12   14.46    0.95
  -6  -1  12    5.82    0.65
  -6  -1  12    3.95    0.52
  -5  -1  12    8.89    0.67
  -5  -1  12    8.81    0.47
  -5  -1  12    9.90    0.66
  -4  -1  12   17.60    0.83
  -4  -1  12   19.14    0.72
  -4  -1  12   17.90    0.85
   3   1 -12    1.63    0.26
  -3  -1  12    0.85    0.22
  -3  -1  12    1.15    0.25
  -3  -1  12    1.08    0.23
   2   1 -12   40.13    1.18
  -2  -1  12   38.36    1.18
  -2  -1  12   40.36    1.10
  -2  -1  12   39.73    1.19
   1   1 -12   24.16    0.89
  -1  -1  12   25.24    0.84
  -1  -1  12   25.52    0.86
  -1  -1  12   24.65    0.91
   0   1 -12   20.81    0.83
   0  -1  12   20.71    0.73
   0  -1  12   20.91    0.82
   0  -1  12   21.06    0.85
   0  -1  12   21.08    0.80
  -1   1 -12   28.26    1.00
   1  -1  12   25.24    0.94
   1  -1  12   27.67    1.00
   1  -1  12   26.88    1.01
  -2   1 -12   13.69    0.68
   2  -1  12   13.25    0.70
   2  -1  12   13.80    0.68
   2  -1  12   15.15    0.74
  -3   1 -12    3.06    0.38
   3  -1  12    3.99    0.47
   3  -1  12    4.00    0.44
  -4   1 -12    1.08    0.26
   4  -1  12    1.59    0.34
   4  -1  12    1.49    0.30
   5  -1  12    1.38    0.33
   5  -1  12    1.12    0.30
  -7   0  12    7.69    0.78
  -7   0  12    6.85    0.72
  -6   0  12    7.58    0.65
  -6   0  12    6.05    0.62
  -5   0  12    3.22    0.44
  -5   0  12    4.01    0.34
  -5   0  12    4.45    0.51
   4   0 -12    4.94    0.38
  -4   0  12    5.32    0.52
  -4   0  12    5.20    0.38
  -4   0  12    4.32    0.46
   3   0 -12   33.67    1.04
  -3   0  12   34.11    1.07
  -3   0  12   33.05    1.13
   2   0 -12   -0.02    0.13
  -2   0  12   -0.09    0.09
  -2   0  12   -0.04    0.13
  -2   0  12   -0.21    0.12
   1   0 -12   27.25    0.95
  -1   0  12   26.02    0.89
  -1   0  12   27.53    0.92
  -1   0  12   26.44    0.96
   0   0 -12    0.14    0.15
   0   0 -12    0.18    0.17
   0   0  12    0.22    0.18
   0   0  12    0.06    0.11
   0   0  12    0.10    0.16
  -1   0 -12   28.02    1.03
  -1   0 -12   27.13    0.97
   1   0  12   26.10    0.94
   1   0  12   25.09    0.98
   1   0  12   25.08    0.97
  -2   0 -12    2.67    0.36
  -2   0 -12    3.36    0.42
   2   0  12    3.30    0.43
   2   0  12    2.66    0.38
   2   0  12    3.63    0.41
  -3   0 -12    1.33    0.31
  -3   0 -12    1.33    0.27
   3   0  12    1.85    0.33
   3   0  12    1.41    0.30
  -4   0 -12    2.51    0.37
   4   0  12    2.36    0.38
   4   0  12    2.23    0.36
  -5   0 -12   23.32    1.84
   5   0  12   22.17    1.00
   5   0  12   23.68    1.07
  -7   1  12    0.02    0.21
  -7   1  12   -0.12    0.23
  -6   1  12    1.33    0.22
  -6   1  12    1.75    0.36
  -6   1  12    0.79    0.30
  -5   1  12    0.36    0.17
  -5   1  12    0.23    0.20
  -5   1  12    0.83    0.27
   4  -1 -12    1.17    0.24
  -4   1  12    1.70    0.30
  -4   1  12    1.08    0.27
  -4   1  12    1.22    0.22
   3  -1 -12   31.41    1.01
  -3   1  12   31.26    1.02
  -3   1  12   31.01    1.09
   2  -1 -12    0.06    0.13
  -2   1  12   -0.03    0.14
  -2   1  12    0.15    0.11
  -2   1  12   -0.01    0.13
   1  -1 -12   24.32    0.90
   1  -1 -12   26.32    0.94
  -1   1  12   23.49    0.83
  -1   1  12   24.80    0.92
   0  -1 -12    7.00    0.53
   0  -1 -12    8.32    0.51
   0   1  12    6.41    0.48
   0   1  12    7.31    0.48
   0   1  12    6.56    0.44
  -1  -1 -12    8.47    0.58
  -1  -1 -12    9.60    0.55
   1   1  12    8.80    0.56
   1   1  12    9.46    0.54
   1   1  12    9.05    0.55
  -2  -1 -12    5.65    0.55
  -2  -1 -12    5.87    0.46
   2   1  12    5.91    0.45
   2   1  12    5.62    0.53
   2   1  12    5.72    0.47
  -3  -1 -12    7.13    0.58
  -3  -1 -12    7.18    0.51
   3   1  12    7.89    0.56
   3   1  12    7.28    0.53
  -4  -1 -12    0.37    0.24
   4   1  12    0.66    0.25
   4   1  12    0.07    0.18
  -5  -1 -12    5.91    0.62
  -5  -1 -12    6.61    1.39
   5   1  12    4.33    0.52
   5   1  12    5.25    0.58
  -7   2  12   23.84    1.15
  -7   2  12   22.21    1.11
  -6   2  12   -0.02    0.18
  -6   2  12    0.12    0.22
  -6   2  12    0.46    0.16
  -5   2  12    3.05    0.33
  -5   2  12    2.97    0.42
  -5   2  12    2.54    0.38
   4  -2 -12   11.10    0.55
  -4   2  12   10.08    0.53
  -4   2  12   10.22    0.63
   3  -2 -12    0.14    0.15
  -3   2  12    0.05    0.15
  -3   2  12    0.06    0.14
   2  -2 -12    4.15    0.41
  -2   2  12    4.56    0.39
  -2   2  12    4.37    0.34
  -2   2  12    4.06    0.41
   1  -2 -12   48.90    1.43
   1  -2 -12   48.28    1.40
  -1   2  12   49.18    1.44
  -1   2  12   49.46    1.35
   0  -2 -12    7.39    0.49
   0  -2 -12    8.02    0.55
   0   2  12    6.49    0.44
   0   2  12    6.24    0.46
   0   2  12    7.13    0.50
  -1  -2 -12    2.24    0.33
  -1  -2 -12    1.92    0.34
   1   2  12    2.37    0.32
   1   2  12    2.40    0.34
   1   2  12    1.94    0.33
  -2  -2 -12   23.27    0.92
  -2  -2 -12   24.21    1.00
   2   2  12   22.70    0.95
   2   2  12   22.74    0.95
   2   2  12   21.25    0.89
  -3  -2 -12    6.26    0.60
  -3  -2 -12    5.98    0.48
   3   2  12    5.55    0.55
   3   2  12    5.68    0.48
  -4  -2 -12   13.22    0.80
   4   2  12   14.43    0.81
   4   2  12   14.14    0.76
  -7   3  12    0.79    0.31
  -7   3  12    1.63    0.39
  -6   3  12    4.87    0.57
  -6   3  12    4.71    0.36
  -6   3  12    5.03    0.55
  -5   3  12   23.70    0.85
  -5   3  12   26.26    1.09
   4  -3 -12    1.15    0.24
  -4   3  12    0.71    0.21
  -4   3  12    0.80    0.26
   3  -3 -12   29.79    1.00
  -3   3  12   29.99    1.10
  -3   3  12   31.71    1.04
   2  -3 -12    1.10    0.24
  -2   3  12    0.75    0.21
  -2   3  12    0.76    0.18
   1  -3 -12   -0.01    0.15
   1  -3 -12    0.12    0.16
  -1   3  12    0.00    0.11
  -1   3  12   -0.10    0.14
   0  -3 -12   82.93    2.09
   0  -3 -12   83.22    2.13
   0   3  12   80.81    2.13
   0   3  12   80.63    2.03
   0   3  12   83.26    2.10
  -1  -3 -12    5.23    0.44
  -1  -3 -12    5.97    0.55
   1   3  12    4.60    0.49
   1   3  12    4.67    0.48
   1   3  12    5.46    0.44
  -2  -3 -12    0.46    0.23
  -2  -3 -12    0.08    0.16
   2   3  12    0.20    0.22
   2   3  12    0.10    0.15
   2   3  12    0.16    0.15
  -3  -3 -12    3.85    0.43
  -3  -3 -12    3.04    0.44
   3   3  12    3.64    0.45
   3   3  12    4.35    0.48
  -4  -3 -12   -0.28    0.18
   4   3  12    1.02    0.30
   4   3  12    0.62    0.24
  -7   4  12    3.71    0.53
  -7   4  12    3.82    0.55
  -6   4  12    6.12    0.43
  -6   4  12    6.29    0.65
  -6   4  12    6.29    0.58
  -5   4  12    2.35    0.41
  -5   4  12    1.94    0.28
   4  -4 -12    6.05    0.45
  -4   4  12    5.26    0.42
  -4   4  12    6.00    0.51
   3  -4 -12   44.23    1.31
  -3   4  12   44.40    1.43
  -3   4  12   42.24    1.31
   2  -4 -12    6.11    0.47
  -2   4  12    6.80    0.49
   1  -4 -12    7.95    0.53
   1  -4 -12    9.65    0.60
  -1   4  12    9.58    0.53
  -1   4  12    9.03    0.57
   0  -4 -12    0.06    0.19
   0  -4 -12    0.02    0.16
   0   4  12    0.16    0.17
   0   4  12    0.08    0.16
   0   4  12    0.29    0.16
  -1  -4 -12   11.19    0.63
  -1  -4 -12   10.74    0.65
   1   4  12    9.97    0.59
   1   4  12   10.21    0.62
   1   4  12    8.79    0.60
  -2  -4 -12    3.76    0.46
  -2  -4 -12    3.46    0.42
   2   4  12    3.31    0.42
   2   4  12    3.73    0.46
  -3  -4 -12    0.83    0.25
  -3  -4 -12    0.33    0.24
   3   4  12    0.92    0.28
   3   4  12    1.01    0.27
  -4  -4 -12   14.43    0.86
   4   4  12   13.99    0.80
   4   4  12   14.62    0.83
  -7   5  12    0.28    0.17
  -7   5  12    0.27    0.24
  -7   5  12    0.40    0.27
  -6   5  12    4.72    0.41
  -6   5  12    6.14    0.65
   5  -5 -12   11.35    0.60
  -5   5  12   11.34    0.59
  -5   5  12   11.14    0.72
   4  -5 -12   32.09    0.83
   4  -5 -12   32.56    1.09
  -4   5  12   32.55    1.23
  -4   5  12   32.65    1.11
   3  -5 -12   15.25    0.72
  -3   5  12   14.06    0.70
  -3   5  12   14.44    0.75
   2  -5 -12    3.66    0.41
  -2   5  12    3.78    0.43
   1  -5 -12   12.03    0.68
   1  -5 -12   10.98    0.62
  -1   5  12   12.15    0.67
   0  -5 -12    3.65    0.45
   0  -5 -12    4.78    0.48
   0   5  12    4.41    0.46
   0   5  12    3.14    0.38
   0   5  12    4.01    0.47
  -1  -5 -12   54.89    1.63
  -1  -5 -12   51.77    1.65
   1   5  12   55.36    1.61
   1   5  12   52.83    1.65
  -2  -5 -12   14.55    0.82
  -2  -5 -12   15.44    0.78
   2   5  12   14.12    0.76
   2   5  12   16.35    0.84
  -3  -5 -12   22.51    0.96
  -3  -5 -12   20.46    1.00
   3   5  12   20.87    1.00
   3   5  12   23.32    1.02
  -7   6  12    0.37    0.18
  -7   6  12    0.16    0.23
  -6   6  12   12.56    0.64
  -6   6  12   12.50    0.80
   5  -6 -12    2.13    0.24
   5  -6 -12    2.39    0.34
  -5   6  12    1.79    0.36
  -5   6  12    2.09    0.33
   4  -6 -12    0.02    0.17
  -4   6  12    0.03    0.19
  -4   6  12    0.41    0.21
   3  -6 -12    0.18    0.18
  -3   6  12    0.01    0.16
   2  -6 -12   -0.01    0.17
  -2   6  12    0.12    0.18
   1  -6 -12    0.18    0.20
   1  -6 -12    0.89    0.26
  -1   6  12    0.35    0.22
   0  -6 -12    0.00    0.16
   0  -6 -12    0.27    0.22
   0   6  12   -0.12    0.17
   0   6  12    0.08    0.18
  -1  -6 -12    0.27    0.22
  -1  -6 -12   -0.22    0.15
   1   6  12    0.03    0.20
   1   6  12    0.37    0.22
  -2  -6 -12    1.77    0.34
  -2  -6 -12    1.94    0.38
   2   6  12    1.78    0.36
   2   6  12    1.77    0.34
  -3  -6 -12   16.54    0.84
  -3  -6 -12   16.06    0.91
   3   6  12   15.70    0.85
   3   6  12   17.32    0.92
   6  -7 -12    1.98    0.24
  -6   7  12    2.02    0.42
  -6   7  12    2.46    0.36
   5  -7 -12    0.05    0.17
  -5   7  12    0.01    0.18
  -5   7  12   -0.27    0.17
   4  -7 -12    0.84    0.27
  -4   7  12    1.25    0.32
  -4   7  12    1.27    0.30
   3  -7 -12    2.63    0.39
  -3   7  12    2.97    0.41
   2  -7 -12   13.60    0.74
  -2   7  12   13.99    0.77
   1  -7 -12    6.48    0.53
   1  -7 -12    5.98    0.59
  -1   7  12    6.68    0.56
   0  -7 -12    0.60    0.28
   0  -7 -12    0.74    0.26
   0   7  12    0.08    0.22
   0   7  12    0.24    0.23
  -1  -7 -12    2.69    0.45
  -1  -7 -12    2.52    0.39
   1   7  12    2.92    0.45
   1   7  12    3.52    0.48
  -2  -7 -12    0.85    0.31
  -2  -7 -12    1.08    0.31
   2   7  12    2.11    0.40
  -6   8  12    5.00    0.61
  -6   8  12    4.88    0.50
   5  -8 -12    0.98    0.29
  -5   8  12    0.94    0.27
  -5   8  12    1.31    0.33
   4  -8 -12    6.75    0.53
  -4   8  12    6.06    0.62
  -4   8  12    6.38    0.54
   3  -8 -12    0.12    0.18
  -3   8  12    0.03    0.20
   2  -8 -12    0.67    0.26
  -2   8  12    0.28    0.24
   1  -8 -12    0.62    0.28
   1  -8 -12    0.78    0.30
  -1   8  12    1.63    0.36
   0  -8 -12    3.68    0.51
   0  -8 -12    4.03    0.49
   0   8  12    3.16    0.47
  -1  -8 -12    0.12    0.25
  -1  -8 -12   -0.17    0.21
   1   8  12   -0.14    0.20
   5  -9 -12   -0.01    0.21
  -5   9  12   -0.18    0.17
  -5   9  12   -0.23    0.18
   4  -9 -12   -0.06    0.21
  -4   9  12   -0.01    0.20
  -4   9  12    0.08    0.21
   3  -9 -12    1.19    0.32
  -3   9  12    0.78    0.29
   2  -9 -12    1.71    0.36
  -2   9  12    2.55    0.44
   1  -9 -12    3.27    0.47
   1  -9 -12    2.73    0.46
  -1   9  12    3.20    0.49
   0  -9 -12   12.37    0.83
   0  -9 -12   10.65    0.73
   0   9  12   12.28    0.82
   4 -10 -12    6.01    0.61
  -4  10  12    6.59    0.67
   3 -10 -12    2.21    0.42
  -3  10  12    3.45    0.51
   2 -10 -12   20.35    1.01
  -2  10  12   19.65    1.04
   1 -10 -12   26.58    1.18
  -1  10  12   27.56    1.25
  -2  -9  13    2.97    0.45
  -2  -9  13    2.26    0.49
  -1  -9  13    4.92    0.58
   0  -9  13    2.46    0.40
   0  -9  13    2.34    0.43
   1  -9  13   16.03    0.84
   1  -9  13   13.89    0.86
  -2   9 -13    1.24    0.35
   2  -9  13    2.18    0.43
   2  -9  13    1.33    0.34
  -3   9 -13    0.70    0.31
   3  -9  13    1.34    0.33
  -3  -8  13    0.88    0.28
  -3  -8  13    1.66    0.43
  -2  -8  13    8.45    0.63
  -2  -8  13    8.83    0.72
  -1  -8  13   39.01    1.42
   0  -8  13    0.73    0.27
   0  -8  13    0.79    0.26
   1  -8  13    6.32    0.64
   1  -8  13    5.15    0.55
  -2   8 -13   12.64    0.80
   2  -8  13   12.70    0.74
   2  -8  13   12.22    0.79
  -3   8 -13    2.80    0.46
   3  -8  13    3.01    0.47
   3  -8  13    3.04    0.45
  -4  -7  13    1.82    0.34
  -4  -7  13    1.60    0.44
  -3  -7  13   30.01    1.34
  -3  -7  13   27.80    1.11
  -2  -7  13    1.37    0.31
  -2  -7  13    1.59    0.37
  -1  -7  13    0.67    0.23
  -1  -7  13    1.19    0.30
   0  -7  13   12.17    0.67
   0  -7  13   13.05    0.76
  -1   7 -13    0.06    0.18
   1  -7  13    0.04    0.20
   1  -7  13   -0.19    0.16
  -2   7 -13    2.23    0.39
   2  -7  13    2.37    0.41
   2  -7  13    2.06    0.37
  -3   7 -13    5.79    0.63
   3  -7  13    6.09    0.61
   3  -7  13    5.65    0.61
  -4   7 -13   -0.31    0.17
  -4   7 -13    0.10    0.23
   4  -7  13    0.06    0.24
   4  -7  13   -0.08    0.18
  -4  -6  13    0.89    0.34
  -4  -6  13    1.04    0.28
  -3  -6  13   21.49    1.06
  -3  -6  13   18.98    0.86
  -2  -6  13   10.43    0.64
  -2  -6  13   11.30    0.74
  -1  -6  13    2.66    0.39
  -1  -6  13    3.77    0.41
   0  -6  13   10.41    0.67
   0  -6  13    9.42    0.58
  -1   6 -13    0.16    0.18
   1  -6  13   -0.08    0.15
   1  -6  13    0.24    0.22
  -2   6 -13    0.76    0.27
   2  -6  13    0.25    0.20
   2  -6  13    0.55    0.22
   2  -6  13    0.31    0.24
  -3   6 -13    2.06    0.40
  -3   6 -13    1.12    0.29
   3  -6  13    1.24    0.32
   3  -6  13    1.35    0.32
  -4   6 -13    0.25    0.23
  -4   6 -13    0.01    0.20
   4  -6  13    0.61    0.25
   4  -6  13    0.72    0.29
  -5  -5  13   19.45    0.82
  -5  -5  13   20.68    1.13
  -4  -5  13    0.08    0.16
  -4  -5  13    0.04    0.23
  -3  -5  13    2.85    0.46
  -3  -5  13    3.26    0.40
  -2  -5  13    6.26    0.50
  -2  -5  13    6.68    0.55
  -1  -5  13   20.29    0.82
  -1  -5  13   22.06    0.94
   0  -5  13    1.18    0.25
   0  -5  13    0.89    0.26
  -1   5 -13    0.40    0.21
   1  -5  13    0.73    0.26
   1  -5  13    0.51    0.22
  -2   5 -13   21.49    0.99
  -2   5 -13   21.32    0.93
   2  -5  13   19.99    0.95
   2  -5  13   20.40    0.92
   2  -5  13   21.71    0.96
  -3   5 -13    0.23    0.21
  -3   5 -13   -0.09    0.20
   3  -5  13    0.19    0.21
   3  -5  13    0.02    0.19
  -4   5 -13    0.68    0.28
  -4   5 -13    0.49    0.25
   4  -5  13    0.63    0.26
   4  -5  13    0.55    0.26
  -5  -4  13    0.16    0.28
  -5  -4  13    0.42    0.20
  -4  -4  13    1.12    0.33
  -4  -4  13    0.71    0.22
  -3  -4  13    9.66    0.66
  -3  -4  13   10.24    0.61
  -2  -4  13    3.10    0.42
  -2  -4  13    3.29    0.41
  -1  -4  13    8.61    0.58
  -1  -4  13    9.17    0.52
   0  -4  13   11.64    0.62
   0  -4  13   12.17    0.70
  -1   4 -13   11.70    0.67
  -1   4 -13   11.21    0.68
   1  -4  13   12.00    0.67
   1  -4  13   11.88    0.64
   1  -4  13   12.08    0.72
  -2   4 -13    2.52    0.37
   2  -4  13    3.67    0.48
   2  -4  13    2.77    0.40
   2  -4  13    2.88    0.39
  -3   4 -13   33.53    1.22
   3  -4  13   34.02    1.24
   3  -4  13   33.54    1.27
  -4   4 -13   13.73    0.75
   4  -4  13   11.64    0.73
   4  -4  13   12.51    0.77
   5  -4  13    1.49    0.35
   5  -4  13    0.87    0.30
  -6  -3  13    0.48    0.31
  -5  -3  13    1.00    0.34
  -5  -3  13    0.94    0.23
  -4  -3  13    5.66    0.44
  -4  -3  13    5.08    0.53
  -4  -3  13    5.32    0.58
  -3  -3  13    4.29    0.49
  -3  -3  13    3.75    0.41
  -3  -3  13    3.47    0.42
  -2  -3  13   27.49    1.02
  -1  -3  13   16.75    0.78
  -1  -3  13   15.76    0.68
   0   3 -13   22.50    0.91
   0  -3  13   21.76    0.92
   0  -3  13   21.14    0.84
  -1   3 -13   56.92    1.61
   1  -3  13   55.23    1.63
   1  -3  13   54.82    1.58
   1  -3  13   53.51    1.65
  -2   3 -13    4.34    0.47
   2  -3  13    4.20    0.47
   2  -3  13    4.21    0.46
   2  -3  13    4.66    0.52
  -3   3 -13    0.38    0.21
   3  -3  13    0.46    0.21
   3  -3  13    0.90    0.27
  -4   3 -13    3.55    0.45
   4  -3  13    3.31    0.47
   4  -3  13    3.42    0.46
   5  -3  13    3.03    0.46
   5  -3  13    2.25    0.43
  -6  -2  13    0.13    0.26
  -5  -2  13    6.97    0.46
  -5  -2  13    7.26    0.59
  -5  -2  13    8.58    0.67
  -4  -2  13    0.00    0.19
  -4  -2  13    0.01    0.15
  -4  -2  13   -0.05    0.18
  -3  -2  13   22.04    0.86
  -3  -2  13   21.96    0.92
  -3  -2  13   22.03    0.90
  -2  -2  13    0.54    0.22
  -2  -2  13    0.74    0.22
   1   2 -13   15.24    0.72
  -1  -2  13   17.30    0.70
  -1  -2  13   15.66    0.75
   0   2 -13   20.13    0.85
   0  -2  13   22.02    0.92
   0  -2  13   21.07    0.83
  -1   2 -13    4.99    0.50
   1  -2  13    4.73    0.48
   1  -2  13    5.96    0.47
   1  -2  13    4.56    0.48
  -2   2 -13   20.41    0.88
   2  -2  13   19.11    0.86
   2  -2  13   19.43    0.91
   2  -2  13   21.22    0.92
  -3   2 -13    2.36    0.36
   3  -2  13    2.19    0.36
   3  -2  13    2.43    0.39
  -4   2 -13    9.29    0.61
   4  -2  13    9.28    0.64
   4  -2  13    8.85    0.64
   5  -2  13   -0.11    0.20
   5  -2  13    0.24    0.24
  -6  -1  13    1.17    0.23
  -6  -1  13    0.74    0.32
  -6  -1  13    1.30    0.36
  -5  -1  13    3.93    0.38
  -5  -1  13    4.34    0.51
  -5  -1  13    4.18    0.53
   4   1 -13   34.18    1.08
  -4  -1  13   34.00    1.08
  -4  -1  13   32.46    1.22
  -4  -1  13   34.14    1.23
   3   1 -13   84.02    2.04
  -3  -1  13   83.65    2.14
  -3  -1  13   82.51    2.07
   2   1 -13    1.83    0.29
  -2  -1  13    1.68    0.28
  -2  -1  13    1.64    0.25
  -2  -1  13    1.25    0.26
   1   1 -13    4.62    0.45
  -1  -1  13    5.08    0.39
  -1  -1  13    5.05    0.37
  -1  -1  13    4.58    0.45
   0   1 -13   35.26    1.19
   0  -1  13   37.06    1.16
   0  -1  13   36.50    1.23
  -1   1 -13   25.79    0.99
   1  -1  13   26.05    0.98
   1  -1  13   26.20    1.01
   1  -1  13   27.02    1.04
  -2   1 -13    0.87    0.23
   2  -1  13    0.85    0.24
   2  -1  13    0.96    0.26
   2  -1  13    0.49    0.22
  -3   1 -13    2.83    0.38
   3  -1  13    2.44    0.39
   3  -1  13    2.98    0.40
  -4   1 -13    0.96    0.26
   4  -1  13    0.93    0.28
   4  -1  13    0.85    0.28
  -6   0  13    5.69    0.64
  -6   0  13    5.26    0.39
  -6   0  13    4.40    0.56
  -5   0  13   31.59    1.24
  -5   0  13   31.14    1.22
  -5   0  13   33.74    1.03
   4   0 -13   -0.03    0.14
  -4   0  13    0.21    0.20
  -4   0  13    0.12    0.15
   3   0 -13   59.87    1.60
  -3   0  13   59.61    1.62
  -3   0  13   57.65    1.68
   2   0 -13   49.13    1.41
  -2   0  13   47.09    1.42
  -2   0  13   49.50    1.42
  -2   0  13   47.03    1.28
   1   0 -13    1.43    0.27
  -1   0  13    2.04    0.29
  -1   0  13    1.99    0.32
  -1   0  13    1.84    0.29
   0   0 -13    3.73    0.42
   0   0 -13    4.36    0.47
   0   0  13    4.43    0.46
   0   0  13    4.52    0.43
  -1   0 -13    0.80    0.24
  -1   0 -13    1.00    0.28
   1   0  13    1.17    0.27
   1   0  13    0.56    0.19
   1   0  13    0.68    0.25
  -2   0 -13    1.62    0.34
  -2   0 -13    1.48    0.30
   2   0  13    1.45    0.31
   2   0  13    1.42    0.28
   2   0  13    0.90    0.26
  -3   0 -13    0.99    0.32
  -3   0 -13    1.21    0.27
   3   0  13    1.85    0.34
   3   0  13    1.86    0.33
  -4   0 -13   41.99    1.35
   4   0  13   36.82    1.35
   4   0  13   39.60    1.45
  -7   1  13    7.31    0.73
  -7   1  13    8.40    0.73
  -6   1  13    0.11    0.15
  -6   1  13    0.06    0.23
  -6   1  13   -0.06    0.19
  -5   1  13   36.16    1.35
  -5   1  13   36.04    1.30
  -5   1  13   36.33    1.09
   4  -1 -13   29.31    1.00
  -4   1  13   30.47    1.02
  -4   1  13   31.15    1.16
   3  -1 -13    5.83    0.45
  -3   1  13    5.46    0.43
  -3   1  13    5.38    0.52
   2  -1 -13   13.98    0.68
  -2   1  13   15.11    0.70
  -2   1  13   14.40    0.71
  -2   1  13   15.30    0.63
   1  -1 -13    2.27    0.33
  -1   1  13    2.48    0.32
  -1   1  13    2.07    0.32
  -1   1  13    3.12    0.36
   0  -1 -13    0.82    0.24
   0  -1 -13    0.79    0.25
   0   1  13    0.75    0.25
   0   1  13    0.60    0.22
   0   1  13    1.05    0.23
  -1  -1 -13   31.08    1.10
  -1  -1 -13   30.80    1.16
   1   1  13   32.00    1.16
   1   1  13   30.57    1.09
   1   1  13   29.08    1.10
  -2  -1 -13    3.19    0.40
  -2  -1 -13    3.83    0.48
   2   1  13    4.46    0.50
   2   1  13    3.81    0.45
   2   1  13    3.72    0.44
  -3  -1 -13    3.48    0.46
  -3  -1 -13    4.75    0.49
   3   1  13    4.88    0.51
   3   1  13    5.32    0.54
  -4  -1 -13   12.18    0.79
   4   1  13   12.84    0.76
   4   1  13   13.80    0.79
  -7   2  13   28.35    1.27
  -7   2  13   26.68    1.27
  -6   2  13    4.82    0.38
  -6   2  13    3.62    0.51
  -6   2  13    3.83    0.53
  -5   2  13    7.03    0.46
  -5   2  13    6.79    0.57
   4  -2 -13    9.93    0.56
  -4   2  13   10.39    0.56
  -4   2  13    9.51    0.63
   3  -2 -13    4.27    0.43
  -3   2  13    4.95    0.46
  -3   2  13    4.05    0.45
   2  -2 -13    0.02    0.16
  -2   2  13   -0.06    0.16
  -2   2  13    0.01    0.12
  -2   2  13    0.20    0.17
   1  -2 -13    2.35    0.33
  -1   2  13    4.03    0.41
  -1   2  13    2.95    0.38
   0  -2 -13   34.20    1.16
   0  -2 -13   35.29    1.23
   0   2  13   33.53    1.20
   0   2  13   34.56    1.17
   0   2  13   34.55    1.13
  -1  -2 -13   22.07    0.98
  -1  -2 -13   22.37    0.92
   1   2  13   23.11    0.91
   1   2  13   22.75    0.96
   1   2  13   22.41    0.94
  -2  -2 -13    2.10    0.34
  -2  -2 -13    2.06    0.38
   2   2  13    1.79    0.32
   2   2  13    2.54    0.41
   2   2  13    2.75    0.39
  -3  -2 -13    3.09    0.46
  -3  -2 -13    1.49    0.32
   3   2  13    2.15    0.36
   3   2  13    2.50    0.38
  -4  -2 -13   12.21    0.80
   4   2  13   12.80    0.78
   4   2  13   12.37    0.75
  -7   3  13    2.97    0.50
  -7   3  13    2.54    0.46
  -6   3  13    0.35    0.25
  -6   3  13    0.12    0.15
  -5   3  13   10.01    0.56
  -5   3  13    9.02    0.65
   4  -3 -13    5.91    0.44
  -4   3  13    5.66    0.45
  -4   3  13    5.20    0.55
   3  -3 -13   13.64    0.65
  -3   3  13   11.93    0.69
  -3   3  13   11.23    0.63
   2  -3 -13   25.86    0.97
  -2   3  13   25.38    0.99
  -2   3  13   27.75    0.91
  -2   3  13   25.45    0.99
   1  -3 -13    2.13    0.33
  -1   3  13    1.52    0.27
  -1   3  13    1.60    0.32
   0  -3 -13    1.19    0.27
   0  -3 -13    1.34    0.28
   0   3  13    1.66    0.33
   0   3  13    1.61    0.31
   0   3  13    1.02    0.24
  -1  -3 -13   16.92    0.79
  -1  -3 -13   16.29    0.84
   1   3  13   14.46    0.79
   1   3  13   15.28    0.75
   1   3  13   15.21    0.77
  -2  -3 -13    0.51    0.25
  -2  -3 -13    0.17    0.19
   2   3  13    0.21    0.20
   2   3  13    0.70    0.23
  -3  -3 -13   14.06    0.75
  -3  -3 -13   14.77    0.84
   3   3  13   14.42    0.78
   3   3  13   14.10    0.80
  -4  -3 -13   28.73    1.23
   4   3  13   27.38    1.15
   4   3  13   28.40    1.22
  -7   4  13    4.67    0.60
  -6   4  13   10.03    0.73
  -6   4  13   12.35    0.60
  -5   4  13    0.35    0.18
  -5   4  13    0.46    0.25
   4  -4 -13    0.24    0.19
  -4   4  13    0.26    0.21
  -4   4  13    0.31    0.18
   3  -4 -13    9.85    0.59
  -3   4  13    9.50    0.57
  -3   4  13    9.20    0.62
   2  -4 -13    2.54    0.36
  -2   4  13    2.25    0.34
   1  -4 -13   19.59    0.87
  -1   4  13   19.61    0.81
  -1   4  13   20.43    0.89
   0  -4 -13   11.28    0.70
   0  -4 -13   11.92    0.67
   0   4  13   11.67    0.64
   0   4  13   11.77    0.70
  -1  -4 -13    5.97    0.51
  -1  -4 -13    6.78    0.58
   1   4  13    6.79    0.53
   1   4  13    6.88    0.52
   1   4  13    6.77    0.57
  -2  -4 -13   22.59    0.97
  -2  -4 -13   24.13    1.06
   2   4  13   24.20    1.01
   2   4  13   24.36    1.05
  -3  -4 -13    0.48    0.25
  -3  -4 -13    0.42    0.26
   3   4  13    0.46    0.24
   3   4  13    0.72    0.27
  -6   5  13   21.07    0.84
  -6   5  13   22.27    1.09
   5  -5 -13   -0.17    0.17
  -5   5  13   -0.13    0.13
  -5   5  13    0.11    0.20
   4  -5 -13    0.60    0.23
  -4   5  13    0.50    0.23
  -4   5  13    0.43    0.20
   3  -5 -13    6.18    0.50
  -3   5  13    6.76    0.55
  -3   5  13    6.74    0.51
   2  -5 -13    9.59    0.60
  -2   5  13    9.63    0.61
   1  -5 -13   26.69    1.05
  -1   5  13   26.58    1.07
   0  -5 -13   28.18    1.13
   0  -5 -13   27.75    1.07
   0   5  13   27.22    1.11
   0   5  13   27.66    1.05
  -1  -5 -13    0.26    0.22
  -1  -5 -13   -0.47    0.16
   1   5  13    0.13    0.21
   1   5  13    0.24    0.21
   1   5  13    0.03    0.16
  -2  -5 -13    1.21    0.30
  -2  -5 -13    1.23    0.34
   2   5  13    0.77    0.27
   2   5  13    0.78    0.28
  -3  -5 -13    9.01    0.70
  -3  -5 -13   10.76    0.70
   3   5  13   11.21    0.72
   3   5  13   12.18    0.77
   6  -6 -13    1.18    0.21
  -6   6  13    0.53    0.22
  -6   6  13    0.83    0.29
   5  -6 -13    7.32    0.40
   5  -6 -13    7.19    0.54
  -5   6  13    7.81    0.63
  -5   6  13    6.63    0.50
   4  -6 -13    0.94    0.27
  -4   6  13    1.46    0.30
  -4   6  13    1.28    0.32
   3  -6 -13    5.19    0.51
  -3   6  13    5.60    0.55
   2  -6 -13   46.98    1.48
  -2   6  13   45.21    1.50
   1  -6 -13    0.84    0.27
  -1   6  13    1.15    0.30
   0  -6 -13    1.62    0.33
   0  -6 -13    1.46    0.34
   0   6  13    1.59    0.35
  -1  -6 -13    0.00    0.22
  -1  -6 -13   -0.05    0.19
   1   6  13    0.11    0.22
   1   6  13    0.18    0.20
  -2  -6 -13    3.55    0.48
  -2  -6 -13    2.70    0.44
   2   6  13    4.05    0.49
   2   6  13    3.23    0.47
   6  -7 -13    5.66    0.38
  -6   7  13    5.70    0.49
  -6   7  13    5.63    0.65
   5  -7 -13   11.89    0.69
  -5   7  13   11.07    0.76
  -5   7  13   12.16    0.69
   4  -7 -13   31.30    1.16
  -4   7  13   29.21    1.25
  -4   7  13   29.90    1.15
   3  -7 -13   -0.40    0.16
  -3   7  13    0.14    0.19
   2  -7 -13    1.07    0.29
  -2   7  13    0.84    0.29
   1  -7 -13    6.15    0.60
  -1   7  13    6.72    0.66
   0  -7 -13    3.51    0.47
   0  -7 -13    3.65    0.50
   0   7  13    2.78    0.45
  -1  -7 -13    1.27    0.33
  -1  -7 -13    1.41    0.35
   1   7  13    1.78    0.37
   5  -8 -13    0.02    0.21
  -5   8  13    0.09    0.17
  -5   8  13   -0.09    0.19
   4  -8 -13   24.33    1.03
  -4   8  13   22.16    1.02
  -4   8  13   22.63    1.10
   3  -8 -13    4.32    0.52
  -3   8  13    5.18    0.57
   2  -8 -13    1.23    0.30
  -2   8  13    0.48    0.26
   1  -8 -13    0.22    0.22
  -1   8  13    0.78    0.28
   0  -8 -13   12.67    0.77
   0  -8 -13   10.84    0.78
   0   8  13   11.04    0.77
   4  -9 -13    0.39    0.25
  -4   9  13    0.09    0.19
  -4   9  13   -0.04    0.20
   3  -9 -13    2.04    0.39
  -3   9  13    1.71    0.38
   2  -9 -13   10.39    0.72
  -2   9  13   10.84    0.76
   1  -9 -13    2.95    0.47
  -1   9  13    3.85    0.55
   0  -9  14    0.45    0.25
   0  -9  14    0.74    0.31
   1  -9  14    2.18    0.40
   1  -9  14    1.40    0.36
  -2  -8  14    0.12    0.22
  -2  -8  14    0.16    0.28
  -1  -8  14   -0.03    0.22
   0  -8  14    0.09    0.20
   0  -8  14   -0.20    0.21
   1  -8  14   -0.13    0.22
   1  -8  14    0.16    0.21
  -2   8 -14    0.33    0.24
   2  -8  14    0.68    0.29
   2  -8  14    0.84    0.29
  -3  -7  14    0.16    0.29
  -3  -7  14    0.26    0.24
  -2  -7  14   11.12    0.69
  -2  -7  14   10.89    0.78
  -1  -7  14    0.61    0.28
   0  -7  14    4.82    0.56
   0  -7  14    5.42    0.54
   1  -7  14   14.95    0.85
   1  -7  14   14.84    0.79
  -2   7 -14    2.03    0.41
   2  -7  14    2.10    0.39
   2  -7  14    1.70    0.37
  -3   7 -14   15.01    0.93
  -3   7 -14   16.96    0.88
   3  -7  14   17.50    0.91
   3  -7  14   17.38    0.95
  -4  -6  14    1.31    0.39
  -4  -6  14    1.04    0.29
  -3  -6  14    1.33    0.32
  -3  -6  14    2.48    0.48
  -2  -6  14    3.13    0.43
  -2  -6  14    3.01    0.47
  -1  -6  14    2.43    0.35
  -1  -6  14    2.50    0.41
   0  -6  14   -0.25    0.18
   0  -6  14    0.17    0.18
  -1   6 -14    7.00    0.66
   1  -6  14    6.65    0.55
   1  -6  14    7.90    0.63
  -2   6 -14   39.58    1.48
  -2   6 -14   40.81    1.41
   2  -6  14   40.37    1.41
   2  -6  14   38.88    1.47
  -3   6 -14   -0.03    0.20
  -3   6 -14    0.23    0.21
   3  -6  14    0.29    0.22
   3  -6  14    0.07    0.24
  -4  -5  14    3.70    0.43
  -4  -5  14    3.73    0.55
  -3  -5  14    2.30    0.44
  -3  -5  14    1.55    0.31
  -2  -5  14    2.13    0.35
  -2  -5  14    1.79    0.36
  -1  -5  14   26.67    1.09
  -1  -5  14   27.36    0.99
   0  -5  14    2.44    0.40
   0  -5  14    2.25    0.34
  -1   5 -14    0.32    0.23
   1  -5  14    0.48    0.25
   1  -5  14    0.48    0.22
  -2   5 -14    0.21    0.19
  -2   5 -14   -0.02    0.21
   2  -5  14    0.19    0.23
   2  -5  14    0.12    0.22
   2  -5  14    0.03    0.20
  -3   5 -14    0.00    0.19
  -3   5 -14   -0.17    0.20
   3  -5  14   -0.04    0.17
   3  -5  14    0.10    0.21
  -4   5 -14    1.01    0.31
  -4   5 -14    1.23    0.36
   4  -5  14    1.53    0.36
   4  -5  14    1.11    0.34
  -5  -4  14    8.20    0.54
  -5  -4  14    8.37    0.73
  -4  -4  14   14.69    0.72
  -4  -4  14   16.93    0.94
  -3  -4  14   28.51    1.15
  -3  -4  14   28.37    1.07
  -2  -4  14   26.75    1.06
  -1  -4  14    0.13    0.20
  -1  -4  14    0.03    0.15
   0  -4  14   -0.23    0.16
   0  -4  14   -0.02    0.15
  -1   4 -14    0.28    0.20
  -1   4 -14    0.26    0.20
   1  -4  14   -0.11    0.20
   1  -4  14   -0.16    0.15
  -2   4 -14    0.60    0.24
   2  -4  14    0.47    0.25
   2  -4  14    0.30    0.20
   2  -4  14    0.67    0.26
  -3   4 -14    0.56    0.23
   3  -4  14    0.81    0.28
   3  -4  14    1.02    0.30
  -4   4 -14   -0.19    0.19
   4  -4  14   -0.23    0.21
   4  -4  14    0.43    0.26
  -5  -3  14    0.64    0.21
  -5  -3  14    0.70    0.32
  -4  -3  14   17.85    0.88
  -4  -3  14   18.33    0.80
  -4  -3  14   18.64    0.93
  -3  -3  14    3.21    0.41
  -3  -3  14    3.06    0.40
  -2  -3  14    3.35    0.42
   1   3 -14   11.81    0.66
  -1  -3  14   12.22    0.69
  -1  -3  14   11.82    0.61
   0   3 -14    0.86    0.25
   0  -3  14    1.26    0.30
   0  -3  14    1.51    0.29
  -1   3 -14    9.92    0.63
   1  -3  14    8.86    0.58
   1  -3  14    9.75    0.66
  -2   3 -14    3.61    0.47
   2  -3  14    3.16    0.42
   2  -3  14    3.46    0.45
   2  -3  14    4.17    0.52
  -3   3 -14    5.72    0.58
   3  -3  14    5.89    0.61
   3  -3  14    5.53    0.57
  -4   3 -14    0.52    0.26
   4  -3  14    0.23    0.22
   4  -3  14    0.11    0.20
  -6  -2  14    0.61    0.19
  -6  -2  14    0.90    0.34
  -5  -2  14    1.63    0.28
  -5  -2  14    1.74    0.42
  -5  -2  14    1.67    0.37
  -4  -2  14    1.03    0.30
  -4  -2  14    1.47    0.29
  -4  -2  14    1.55    0.34
   3   2 -14    9.38    0.58
  -3  -2  14   10.08    0.60
  -3  -2  14   11.17    0.64
   2   2 -14    0.16    0.17
  -2  -2  14    0.33    0.20
  -2  -2  14    0.15    0.17
   1   2 -14    0.25    0.18
  -1  -2  14    0.09    0.19
  -1  -2  14    0.50    0.19
   0   2 -14   12.79    0.70
   0  -2  14   13.23    0.66
   0  -2  14   11.97    0.70
  -1   2 -14    3.87    0.47
   1  -2  14    4.06    0.49
   1  -2  14    4.38    0.47
   1  -2  14    4.15    0.47
  -2   2 -14    6.52    0.52
   2  -2  14    6.89    0.53
   2  -2  14    5.51    0.56
   2  -2  14    5.70    0.60
  -3   2 -14    0.64    0.24
   3  -2  14    0.71    0.24
   3  -2  14    0.84    0.30
  -4   2 -14    0.83    0.28
   4  -2  14    0.67    0.27
   4  -2  14    0.87    0.31
  -6  -1  14    1.20    0.35
  -6  -1  14    1.36    0.26
  -6  -1  14    1.68    0.38
  -5  -1  14   12.24    0.61
  -5  -1  14   10.63    0.73
  -5  -1  14   11.42    0.75
   4   1 -14    0.19    0.17
  -4  -1  14    0.09    0.16
  -4  -1  14   -0.06    0.18
   3   1 -14    1.44    0.28
  -3  -1  14    1.25    0.29
  -3  -1  14    1.32    0.29
   2   1 -14    0.13    0.17
  -2  -1  14    0.36    0.19
  -2  -1  14    0.45    0.19
   1   1 -14   37.25    1.25
  -1  -1  14   36.56    1.15
  -1  -1  14   36.70    1.24
  -1  -1  14   35.49    1.14
   0   1 -14   10.70    0.64
   0  -1  14   10.40    0.64
   0  -1  14   10.80    0.59
  -1   1 -14   -0.16    0.15
   1  -1  14    0.32    0.20
   1  -1  14    0.05    0.14
   1  -1  14   -0.08    0.18
  -2   1 -14    1.26    0.28
   2  -1  14    1.18    0.30
   2  -1  14    1.80    0.33
   2  -1  14    1.42    0.32
  -3   1 -14    3.71    0.46
   3  -1  14    3.80    0.50
   3  -1  14    4.96    0.52
  -4   1 -14   14.02    0.77
   4  -1  14   14.36    0.83
   4  -1  14   12.51    0.78
  -6   0  14    5.19    0.40
  -6   0  14    4.04    0.54
  -6   0  14    5.60    0.64
  -5   0  14    1.00    0.32
  -5   0  14    1.35    0.27
   4   0 -14   34.41    1.12
  -4   0  14   31.41    1.08
  -4   0  14   32.03    1.20
   3   0 -14    0.17    0.16
  -3   0  14   -0.03    0.16
  -3   0  14    0.09    0.19
   2   0 -14   10.50    0.61
  -2   0  14   10.93    0.54
  -2   0  14    9.52    0.60
  -2   0  14    9.99    0.59
   1   0 -14    4.05    0.44
  -1   0  14    4.86    0.50
  -1   0  14    4.36    0.43
  -1   0  14    4.86    0.39
   0   0 -14    0.49    0.22
   0   0  14    0.83    0.25
   0   0  14    0.62    0.21
  -1   0 -14    6.94    0.53
   1   0  14    6.98    0.54
   1   0  14    7.86    0.53
   1   0  14    7.78    0.58
  -2   0 -14   17.07    0.83
   2   0  14   17.72    0.84
   2   0  14   16.82    0.87
   2   0  14   17.30    0.87
  -3   0 -14   11.46    0.69
   3   0  14   12.17    0.72
   3   0  14   11.85    0.74
  -4   0 -14    2.21    0.38
   4   0  14    2.77    0.45
   4   0  14    2.03    0.40
  -6   1  14   15.37    0.66
  -6   1  14   15.60    0.91
  -5   1  14    1.19    0.25
  -5   1  14    1.64    0.36
   4  -1 -14    0.19    0.19
  -4   1  14    0.14    0.17
  -4   1  14    0.39    0.22
   3  -1 -14    1.17    0.26
  -3   1  14    0.64    0.23
  -3   1  14    0.33    0.18
   2  -1 -14    3.61    0.42
  -2   1  14    3.69    0.37
  -2   1  14    3.84    0.43
  -2   1  14    4.24    0.45
   1  -1 -14   15.82    0.77
  -1   1  14   16.99    0.76
  -1   1  14   16.35    0.79
  -1   1  14   16.64    0.72
   0  -1 -14   51.23    1.57
   0  -1 -14   53.67    1.61
   0   1  14   51.75    1.51
  -1  -1 -14    0.15    0.19
  -1  -1 -14    0.10    0.21
   1   1  14    0.06    0.18
   1   1  14    0.21    0.18
   1   1  14    0.08    0.20
  -2  -1 -14    4.88    0.51
  -2  -1 -14    4.69    0.55
   2   1  14    6.29    0.61
   2   1  14    5.72    0.57
   2   1  14    6.39    0.52
  -3  -1 -14   11.01    0.75
  -3  -1 -14   10.88    0.68
   3   1  14   11.95    0.74
   3   1  14   13.38    0.77
  -4  -1 -14    7.28    0.70
   4   1  14    7.11    0.69
   4   1  14    6.57    0.66
  -6   2  14    3.98    0.53
  -6   2  14    3.21    0.35
  -5   2  14    3.29    0.48
  -5   2  14    4.53    0.44
   4  -2 -14    0.16    0.18
  -4   2  14    0.12    0.20
  -4   2  14    0.44    0.20
   3  -2 -14   24.12    0.95
  -3   2  14   24.13    1.00
  -3   2  14   23.43    0.93
   2  -2 -14   13.29    0.70
  -2   2  14   14.30    0.64
  -2   2  14   12.56    0.69
  -2   2  14   13.79    0.71
   1  -2 -14   21.78    0.91
  -1   2  14   21.99    0.93
  -1   2  14   21.20    0.85
   0  -2 -14    1.43    0.30
   0  -2 -14    1.29    0.31
   0   2  14    1.26    0.27
   0   2  14    1.41    0.30
  -1  -2 -14   13.06    0.77
  -1  -2 -14   14.13    0.74
   1   2  14   13.21    0.74
   1   2  14   13.78    0.71
   1   2  14   13.12    0.75
  -2  -2 -14    5.50    0.58
  -2  -2 -14    5.44    0.54
   2   2  14    5.37    0.55
   2   2  14    5.92    0.58
   2   2  14    6.85    0.58
  -3  -2 -14    1.83    0.39
  -3  -2 -14    1.14    0.30
   3   2  14    1.40    0.32
   3   2  14    1.75    0.35
  -6   3  14    2.18    0.31
  -6   3  14    2.76    0.47
  -5   3  14   17.08    0.74
  -5   3  14   14.85    0.86
   4  -3 -14   19.96    0.82
  -4   3  14   18.11    0.92
  -4   3  14   17.82    0.81
   3  -3 -14    5.76    0.46
  -3   3  14    6.81    0.54
  -3   3  14    6.00    0.49
   2  -3 -14   47.77    1.48
  -2   3  14   50.99    1.41
  -2   3  14   48.32    1.53
  -2   3  14   50.48    1.55
   1  -3 -14   15.59    0.78
  -1   3  14   15.25    0.79
  -1   3  14   15.51    0.72
   0  -3 -14   -0.08    0.17
   0  -3 -14   -0.07    0.19
   0   3  14    0.05    0.17
   0   3  14    0.09    0.14
  -1  -3 -14    8.49    0.60
  -1  -3 -14    7.19    0.67
   1   3  14    8.27    0.59
   1   3  14    7.77    0.60
   1   3  14    7.94    0.56
  -2  -3 -14    3.15    0.47
  -2  -3 -14    4.56    0.51
   2   3  14    2.29    0.39
   2   3  14    3.87    0.48
  -3  -3 -14    5.20    0.61
  -3  -3 -14    4.65    0.52
   3   3  14    5.59    0.59
   3   3  14    5.38    0.59
  -6   4  14    1.42    0.27
  -6   4  14    0.94    0.32
   5  -4 -14   32.07    1.13
  -5   4  14   33.87    1.14
  -5   4  14   32.30    1.32
   4  -4 -14   11.52    0.65
  -4   4  14   10.88    0.71
  -4   4  14   13.06    0.69
   3  -4 -14    0.12    0.19
  -3   4  14    0.29    0.20
  -3   4  14    0.58    0.25
   2  -4 -14    0.06    0.19
  -2   4  14    0.45    0.21
   1  -4 -14    1.16    0.28
  -1   4  14    1.25    0.30
  -1   4  14    0.53    0.19
   0  -4 -14    4.18    0.48
   0  -4 -14    4.63    0.53
   0   4  14    5.47    0.58
   0   4  14    5.06    0.51
  -1  -4 -14    8.58    0.65
  -1  -4 -14   10.26    0.66
   1   4  14    9.59    0.63
   1   4  14    8.21    0.61
   1   4  14    9.38    0.68
  -2  -4 -14    0.87    0.31
  -2  -4 -14    0.82    0.28
   2   4  14    0.88    0.29
   2   4  14    1.07    0.29
  -6   5  14    0.07    0.22
  -6   5  14    0.10    0.17
   5  -5 -14    4.73    0.37
   5  -5 -14    3.97    0.44
  -5   5  14    4.16    0.45
  -5   5  14    5.05    0.60
   4  -5 -14    0.21    0.21
  -4   5  14   -0.09    0.15
  -4   5  14   -0.03    0.18
   3  -5 -14    7.81    0.56
  -3   5  14    7.04    0.58
  -3   5  14    7.94    0.57
   2  -5 -14    1.45    0.32
  -2   5  14    1.32    0.31
   1  -5 -14    5.80    0.56
  -1   5  14    7.75    0.58
   0  -5 -14    6.46    0.63
   0  -5 -14    6.34    0.53
   0   5  14    5.43    0.57
   0   5  14    5.72    0.55
  -1  -5 -14    0.81    0.27
  -1  -5 -14    0.87    0.30
   1   5  14    0.74    0.30
   1   5  14    1.20    0.28
   1   5  14    1.04    0.30
  -2  -5 -14   -0.08    0.24
  -2  -5 -14    0.13    0.21
   2   5  14   -0.18    0.18
   2   5  14    0.28    0.24
   6  -6 -14    1.54    0.24
  -6   6  14    1.61    0.39
  -6   6  14    1.74    0.32
   5  -6 -14    1.12    0.30
  -5   6  14    1.18    0.29
  -5   6  14    1.56    0.37
   4  -6 -14    1.00    0.27
  -4   6  14    0.68    0.24
  -4   6  14    1.56    0.35
   3  -6 -14    0.42    0.21
  -3   6  14    0.25    0.22
  -3   6  14    0.18    0.20
   2  -6 -14    1.49    0.31
  -2   6  14    1.35    0.32
   1  -6 -14   19.27    0.92
  -1   6  14   17.53    0.91
   0  -6 -14    7.91    0.67
   0  -6 -14    8.19    0.62
   0   6  14    9.01    0.67
  -1  -6 -14    6.84    0.69
  -1  -6 -14    7.60    0.61
   1   6  14    8.38    0.67
   1   6  14    9.24    0.67
   5  -7 -14   10.55    0.67
  -5   7  14   10.54    0.67
  -5   7  14    9.60    0.74
   4  -7 -14    0.59    0.25
  -4   7  14    0.14    0.20
  -4   7  14    0.22    0.23
   3  -7 -14    1.00    0.28
  -3   7  14    0.90    0.29
   2  -7 -14    0.44    0.26
  -2   7  14    0.20    0.23
   1  -7 -14    0.98    0.30
  -1   7  14    1.06    0.30
   0  -7 -14    5.30    0.63
   0  -7 -14    5.29    0.58
   0   7  14    6.77    0.67
   4  -8 -14    2.32    0.40
  -4   8  14    2.54    0.46
  -4   8  14    3.28    0.48
   3  -8 -14    0.90    0.30
  -3   8  14    1.00    0.31
   2  -8 -14   10.73    0.73
  -2   8  14   12.27    0.80
   1  -8 -14   -0.01    0.21
  -1   8  14    0.18    0.25
   0  -8  15   15.56    0.84
   0  -8  15   14.56    0.89
  -2  -7  15    8.82    0.67
  -2  -7  15    9.33    0.74
  -1  -7  15    0.36    0.24
   0  -7  15   11.71    0.70
   0  -7  15   11.68    0.77
   1  -7  15   -0.08    0.19
   1  -7  15   -0.22    0.20
  -2   7 -15    5.54    0.65
   2  -7  15    7.54    0.71
   2  -7  15    6.11    0.67
  -3  -6  15    0.56    0.32
  -3  -6  15    0.39    0.26
  -2  -6  15   -0.03    0.19
  -1  -6  15    2.01    0.38
   0  -6  15    7.49    0.56
   0  -6  15    9.17    0.67
   1  -6  15    2.07    0.37
   1  -6  15    1.88    0.40
  -2   6 -15    1.84    0.41
  -2   6 -15    1.83    0.36
   2  -6  15    1.74    0.35
   2  -6  15    1.56    0.40
  -4  -5  15    0.48    0.22
  -4  -5  15    0.58    0.30
  -3  -5  15    0.57    0.24
  -2  -5  15    4.72    0.53
  -1  -5  15    9.51    0.58
  -1  -5  15    8.77    0.65
   0  -5  15    1.46    0.36
   0  -5  15    1.29    0.30
  -1   5 -15   -0.21    0.16
   1  -5  15    0.28    0.20
   1  -5  15    0.08    0.22
  -2   5 -15    2.76    0.43
  -2   5 -15    2.69    0.45
   2  -5  15    3.03    0.48
   2  -5  15    2.00    0.39
  -3   5 -15    0.93    0.29
  -3   5 -15    1.23    0.36
   3  -5  15    1.14    0.34
   3  -5  15    0.91    0.30
  -4  -4  15   11.11    0.79
  -4  -4  15   12.08    0.67
  -3  -4  15    2.77    0.40
  -2  -4  15    0.41    0.22
  -1  -4  15   25.23    1.08
  -1  -4  15   26.41    0.99
   0   4 -15    1.53    0.33
   0  -4  15    2.27    0.35
   0  -4  15    1.79    0.36
  -1   4 -15   13.58    0.77
  -1   4 -15   13.09    0.80
   1  -4  15   13.99    0.75
   1  -4  15   12.43    0.79
  -2   4 -15    2.63    0.40
   2  -4  15    3.33    0.48
   2  -4  15    2.66    0.41
  -3   4 -15    0.67    0.26
   3  -4  15    1.33    0.32
   3  -4  15    1.24    0.33
  -5  -3  15   13.38    0.87
  -5  -3  15   12.66    0.66
  -5  -3  15   13.71    0.85
  -4  -3  15    1.88    0.33
  -4  -3  15    1.22    0.32
  -3  -3  15   10.63    0.65
   2   3 -15   12.76    0.72
  -2  -3  15   13.60    0.75
   1   3 -15    0.79    0.24
  -1  -3  15    0.74    0.27
  -1  -3  15    0.92    0.24
   0   3 -15    9.50    0.63
   0  -3  15   10.95    0.70
   0  -3  15    9.01    0.58
  -1   3 -15    4.15    0.49
   1  -3  15    4.04    0.50
   1  -3  15    4.45    0.49
  -2   3 -15    0.25    0.21
   2  -3  15    0.56    0.24
   2  -3  15    0.46    0.27
   2  -3  15    0.20    0.24
  -3   3 -15    4.47    0.52
   3  -3  15    3.55    0.51
   3  -3  15    3.95    0.51
  -5  -2  15    6.10    0.48
  -5  -2  15    5.87    0.63
   4   2 -15    0.08    0.18
  -4  -2  15    0.09    0.19
  -4  -2  15    0.18    0.22
   3   2 -15    0.60    0.24
  -3  -2  15    0.89    0.25
  -3  -2  15    0.98    0.27
   2   2 -15   11.53    0.67
  -2  -2  15   12.04    0.69
   1   2 -15   22.74    0.96
  -1  -2  15   22.05    0.87
  -1  -2  15   22.48    0.99
   0   2 -15    0.15    0.19
   0  -2  15    0.20    0.21
   0  -2  15    0.15    0.16
  -1   2 -15    8.65    0.63
   1  -2  15    9.49    0.67
   1  -2  15    8.62    0.59
  -2   2 -15    1.88    0.35
   2  -2  15    2.25    0.39
   2  -2  15    2.56    0.41
   2  -2  15    2.11    0.40
  -3   2 -15   14.41    0.81
   3  -2  15   12.60    0.78
   3  -2  15   15.01    0.86
  -5  -1  15    8.52    0.54
  -5  -1  15    7.31    0.62
   4   1 -15    6.03    0.49
  -4  -1  15    4.90    0.49
  -4  -1  15    5.41    0.57
   3   1 -15    6.00    0.55
  -3  -1  15    4.97    0.50
  -3  -1  15    4.73    0.51
   2   1 -15   24.04    1.00
  -2  -1  15   25.37    0.98
  -2  -1  15   26.31    1.03
   1   1 -15   23.09    0.97
  -1  -1  15   22.62    0.98
  -1  -1  15   23.89    0.92
   0   1 -15   12.83    0.73
   0  -1  15   12.53    0.66
   0  -1  15   13.37    0.75
  -1   1 -15    4.69    0.51
   1  -1  15    4.46    0.52
   1  -1  15    4.46    0.49
  -2   1 -15   -0.01    0.20
   2  -1  15    0.10    0.23
   2  -1  15    0.46    0.23
   2  -1  15    0.27    0.24
  -3   1 -15    0.46    0.25
   3  -1  15    1.53    0.35
   3  -1  15    0.91    0.28
  -5   0  15    1.74    0.39
  -5   0  15    2.26    0.34
   4   0 -15    0.57    0.23
  -4   0  15    0.60    0.21
  -4   0  15    1.32    0.31
   3   0 -15    0.54    0.22
  -3   0  15    0.37    0.22
  -3   0  15    0.47    0.21
   2   0 -15    5.33    0.52
  -2   0  15    5.38    0.53
  -2   0  15    5.87    0.49
   1   0 -15    0.20    0.20
  -1   0  15    0.85    0.27
  -1   0  15    0.37    0.17
  -1   0  15    0.24    0.20
   0   0 -15   26.63    1.06
   0   0  15   26.28    1.01
   0   0  15   24.01    1.06
  -1   0 -15   20.63    0.94
   1   0  15   19.81    0.90
   1   0  15   21.02    0.99
  -2   0 -15    1.37    0.30
   2   0  15    1.03    0.31
   2   0  15    0.69    0.25
   2   0  15    1.63    0.35
  -3   0 -15   10.82    0.70
   3   0  15   12.94    0.76
   3   0  15   11.31    0.76
  -6   1  15    7.35    0.49
  -6   1  15    6.29    0.69
  -5   1  15    5.04    0.59
  -5   1  15    4.53    0.45
   4  -1 -15    6.05    0.50
  -4   1  15    6.42    0.50
  -4   1  15    5.71    0.59
   3  -1 -15    0.21    0.18
  -3   1  15    0.24    0.20
  -3   1  15    0.49    0.24
   2  -1 -15    3.52    0.43
  -2   1  15    2.98    0.39
  -2   1  15    2.79    0.34
  -2   1  15    3.14    0.43
   1  -1 -15    0.15    0.18
  -1   1  15    0.16    0.18
  -1   1  15    0.10    0.15
  -1   1  15   -0.03    0.18
   0  -1 -15    1.58    0.36
   0  -1 -15    2.03    0.36
   0   1  15    2.68    0.37
   0   1  15    2.57    0.40
  -1  -1 -15    9.11    0.62
  -1  -1 -15    9.45    0.68
   1   1  15    9.97    0.63
   1   1  15    9.83    0.68
  -2  -1 -15    4.27    0.55
  -2  -1 -15    3.62    0.45
   2   1  15    4.40    0.55
   2   1  15    3.95    0.49
   2   1  15    4.35    0.53
  -3  -1 -15    1.45    0.37
  -3  -1 -15    1.06    0.30
   3   1  15    1.52    0.34
   3   1  15    1.13    0.34
  -6   2  15    0.99    0.24
  -6   2  15    0.89    0.33
  -5   2  15    4.89    0.42
  -5   2  15    3.11    0.48
   4  -2 -15   15.41    0.77
  -4   2  15   14.89    0.75
  -4   2  15   17.56    0.89
   3  -2 -15    3.01    0.40
  -3   2  15    2.30    0.38
  -3   2  15    2.35    0.36
   2  -2 -15   13.72    0.73
  -2   2  15   12.68    0.64
  -2   2  15   12.94    0.73
  -2   2  15   13.11    0.73
   1  -2 -15   15.98    0.80
  -1   2  15   14.71    0.71
  -1   2  15   15.85    0.82
   0  -2 -15   11.83    0.70
   0  -2 -15   11.94    0.76
   0   2  15   11.14    0.66
   0   2  15   12.05    0.73
  -1  -2 -15    3.83    0.47
  -1  -2 -15    3.81    0.50
   1   2  15    3.88    0.46
   1   2  15    4.81    0.55
  -2  -2 -15    1.30    0.32
  -2  -2 -15    0.67    0.31
   2   2  15    0.92    0.29
   2   2  15    1.07    0.30
  -3  -2 -15    2.09    0.39
  -3  -2 -15    1.03    0.34
   3   2  15    1.32    0.34
   3   2  15    1.59    0.37
  -6   3  15    6.72    0.49
  -6   3  15    6.62    0.70
  -5   3  15    0.16    0.18
  -5   3  15   -0.05    0.19
   4  -3 -15    5.90    0.50
  -4   3  15    6.23    0.64
  -4   3  15    5.63    0.48
   3  -3 -15   23.83    0.97
  -3   3  15   25.03    1.01
  -3   3  15   24.02    1.05
   2  -3 -15    4.82    0.50
  -2   3  15    4.81    0.46
  -2   3  15    4.37    0.50
  -2   3  15    4.34    0.50
   1  -3 -15    9.51    0.62
  -1   3  15    8.72    0.56
  -1   3  15    8.75    0.63
   0  -3 -15    3.03    0.43
   0  -3 -15    2.13    0.42
   0   3  15    2.29    0.40
   0   3  15    2.79    0.40
  -1  -3 -15    2.38    0.42
  -1  -3 -15    1.28    0.32
   1   3  15    1.96    0.37
   1   3  15    2.84    0.44
  -2  -3 -15    7.77    0.74
  -2  -3 -15    6.77    0.57
   2   3  15    8.20    0.64
   2   3  15    8.36    0.62
   5  -4 -15   19.46    0.86
  -5   4  15   17.84    0.82
  -5   4  15   17.51    0.97
   4  -4 -15    4.20    0.48
  -4   4  15    3.32    0.43
  -4   4  15    2.97    0.46
   3  -4 -15    1.93    0.35
  -3   4  15    1.46    0.35
  -3   4  15    1.50    0.32
   2  -4 -15    6.46    0.54
  -2   4  15    6.38    0.55
  -2   4  15    6.19    0.60
   1  -4 -15    2.76    0.40
  -1   4  15    3.26    0.47
  -1   4  15    3.04    0.39
   0  -4 -15   21.88    1.05
   0  -4 -15   22.32    1.01
   0   4  15   23.25    0.99
   0   4  15   24.74    1.09
  -1  -4 -15   19.76    0.97
  -1  -4 -15   22.36    1.07
   1   4  15   22.02    0.98
   1   4  15   21.74    1.04
  -2  -4 -15    0.67    0.32
  -2  -4 -15    0.60    0.25
   2   4  15    0.42    0.25
   2   4  15    0.18    0.25
   5  -5 -15    0.55    0.26
  -5   5  15    0.21    0.25
  -5   5  15    0.31    0.22
   4  -5 -15    3.17    0.43
  -4   5  15    3.28    0.49
  -4   5  15    3.92    0.47
   3  -5 -15    4.81    0.52
  -3   5  15    5.03    0.55
  -3   5  15    5.18    0.59
   2  -5 -15    0.12    0.18
  -2   5  15    0.27    0.24
   1  -5 -15   21.16    0.97
  -1   5  15   19.71    0.98
   0  -5 -15    0.49    0.30
   0  -5 -15    0.57    0.27
   0   5  15    0.55    0.24
   0   5  15    0.62    0.28
  -1  -5 -15    9.23    0.71
  -1  -5 -15    9.51    0.69
   1   5  15    9.02    0.64
   1   5  15    9.52    0.72
   5  -6 -15    1.65    0.33
  -5   6  15    1.52    0.33
  -5   6  15    1.71    0.38
   4  -6 -15    6.59    0.54
  -4   6  15    6.77    0.55
  -4   6  15    7.64    0.75
   3  -6 -15    5.51    0.55
  -3   6  15    7.72    0.60
  -3   6  15    6.78    0.68
   2  -6 -15    2.36    0.39
  -2   6  15    2.41    0.40
   1  -6 -15    0.38    0.24
  -1   6  15    0.11    0.22
   0  -6 -15   -0.02    0.21
   0  -6 -15    0.10    0.24
   0   6  15    0.07    0.22
   4  -7 -15    0.00    0.22
  -4   7  15    0.03    0.20
  -4   7  15   -0.12    0.17
   3  -7 -15   11.87    0.76
  -3   7  15   12.46    0.78
   2  -7 -15    1.24    0.32
  -2   7  15    0.41    0.26
   1  -7 -15    5.35    0.59
  -1   7  15    6.24    0.67
  -2  -6  16    1.62    0.37
  -1  -6  16    3.63    0.51
   0  -6  16    6.54    0.54
   0  -6  16    6.27    0.67
  -1   6 -16    3.27    0.47
   1  -6  16    3.11    0.46
   1  -6  16    3.06    0.50
  -3  -5  16    1.20    0.29
  -2  -5  16    1.53    0.35
  -1  -5  16    3.98    0.53
   0   5 -16    0.25    0.25
   0  -5  16    0.63    0.28
   0  -5  16    0.33    0.22
  -1   5 -16    0.06    0.21
   1  -5  16    0.31    0.23
   1  -5  16    0.32    0.27
  -2   5 -16   13.18    0.86
  -2   5 -16   11.17    0.75
   2  -5  16   11.10    0.80
   2  -5  16   10.88    0.73
  -3  -4  16    5.63    0.57
  -2  -4  16    2.64    0.42
   1   4 -16    0.76    0.26
  -1  -4  16    0.54    0.22
  -1  -4  16    0.76    0.28
   0   4 -16   12.47    0.76
   0  -4  16   13.33    0.82
   0  -4  16   12.92    0.72
  -1   4 -16   31.72    1.26
   1  -4  16   30.05    1.20
   1  -4  16   32.04    1.32
  -2   4 -16    0.33    0.24
   2  -4  16    0.07    0.21
   2  -4  16    0.14    0.27
   4   3 -16    2.81    0.40
  -4  -3  16    1.91    0.35
   3   3 -16    0.16    0.22
  -3  -3  16    0.40    0.24
   2   3 -16    6.84    0.56
  -2  -3  16    6.21    0.61
   1   3 -16    2.47    0.38
  -1  -3  16    3.60    0.43
  -1  -3  16    3.65    0.50
   0   3 -16   11.23    0.71
   0  -3  16   11.30    0.74
   0  -3  16   11.35    0.67
  -1   3 -16   32.08    1.27
   1  -3  16   32.91    1.24
   1  -3  16   33.68    1.34
  -2   3 -16    1.09    0.31
   2  -3  16    1.47    0.36
   2  -3  16    1.61    0.36
   4   2 -16    6.01    0.56
  -4  -2  16    6.15    0.63
  -4  -2  16    6.36    0.52
   3   2 -16    6.13    0.58
  -3  -2  16    6.17    0.53
   2   2 -16    1.29    0.31
  -2  -2  16    2.29    0.38
   1   2 -16    1.58    0.33
  -1  -2  16    2.02    0.37
  -1  -2  16    1.92    0.32
   0   2 -16   15.06    0.81
   0  -2  16   13.47    0.82
   0  -2  16   15.07    0.76
  -1   2 -16    0.29    0.25
   1  -2  16    0.43    0.21
   1  -2  16    0.68    0.30
  -2   2 -16    6.76    0.65
   2  -2  16    6.69    0.69
   2  -2  16    6.22    0.62
  -5  -1  16    0.76    0.25
  -5  -1  16    0.52    0.30
   4   1 -16    7.98    0.59
  -4  -1  16    7.99    0.57
  -4  -1  16    8.98    0.66
   3   1 -16   42.91    1.44
  -3  -1  16   44.95    1.47
  -3  -1  16   43.53    1.45
   2   1 -16    0.34    0.20
  -2  -1  16   -0.09    0.17
   1   1 -16    0.20    0.21
  -1  -1  16    0.13    0.21
  -1  -1  16    0.04    0.16
   0   1 -16    8.81    0.62
   0  -1  16    8.58    0.65
   0  -1  16    9.07    0.60
  -1   1 -16    0.00    0.18
   1  -1  16    0.05    0.18
   1  -1  16   -0.14    0.22
  -2   1 -16    0.61    0.27
   2  -1  16    0.64    0.26
   2  -1  16    0.38    0.27
  -5   0  16    5.54    0.48
  -5   0  16    4.97    0.61
   4   0 -16    0.51    0.24
  -4   0  16   -0.09    0.20
  -4   0  16    0.64    0.25
   3   0 -16    0.09    0.18
  -3   0  16   -0.05    0.19
  -3   0  16    0.09    0.18
   2   0 -16    0.17    0.19
  -2   0  16    0.10    0.20
  -2   0  16    0.16    0.21
   1   0 -16    1.03    0.30
  -1   0  16    1.40    0.28
  -1   0  16    0.99    0.29
   0   0 -16    0.29    0.23
   0   0  16    0.17    0.23
   0   0  16    0.20    0.19
  -1   0 -16   22.37    1.03
   1   0  16   23.25    1.08
   1   0  16   23.72    1.03
  -2   0 -16    3.49    0.47
   2   0  16    4.74    0.55
   2   0  16    3.58    0.50
   2   0  16    2.87    0.46
  -5   1  16    0.08    0.22
  -5   1  16    0.31    0.23
   4  -1 -16    5.45    0.55
  -4   1  16    6.52    0.64
  -4   1  16    5.91    0.56
   3  -1 -16    5.16    0.53
  -3   1  16    5.17    0.55
  -3   1  16    3.33    0.45
   2  -1 -16    7.38    0.56
  -2   1  16    6.32    0.61
  -2   1  16    6.50    0.53
   1  -1 -16   -0.07    0.18
  -1   1  16    0.25    0.18
  -1   1  16    0.04    0.19
  -1   1  16   -0.09    0.15
   0  -1 -16    0.11    0.21
   0   1  16    0.13    0.20
   0   1  16    0.01    0.17
  -1  -1 -16    0.97    0.34
  -1  -1 -16    0.82    0.26
   1   1  16    0.37    0.22
   1   1  16    0.58    0.28
  -2  -1 -16   -0.05    0.20
  -2  -1 -16    0.21    0.28
   2   1  16    0.02    0.19
   2   1  16    0.61    0.30
  -5   2  16    4.63    0.49
  -5   2  16    3.16    0.50
   4  -2 -16   -0.11    0.19
  -4   2  16    0.21    0.20
  -4   2  16    0.14    0.23
   3  -2 -16    0.56    0.23
  -3   2  16    0.21    0.21
  -3   2  16    0.60    0.25
   2  -2 -16    0.61    0.24
  -2   2  16    0.75    0.25
  -2   2  16    0.75    0.27
   1  -2 -16    0.24    0.21
  -1   2  16   -0.13    0.17
  -1   2  16   -0.01    0.15
  -1   2  16    0.03    0.19
   0  -2 -16    0.60    0.26
   0   2  16    0.49    0.26
   0   2  16    0.80    0.25
  -1  -2 -16    0.64    0.27
  -1  -2 -16    1.11    0.33
   1   2  16    0.89    0.28
   1   2  16    0.49    0.27
  -2  -2 -16    0.41    0.27
  -2  -2 -16    0.69    0.32
   2   2  16    0.78    0.27
   2   2  16    0.88    0.31
  -5   3  16    4.64    0.49
  -5   3  16    4.25    0.56
   4  -3 -16    0.85    0.25
  -4   3  16    1.00    0.27
  -4   3  16    0.48    0.27
   3  -3 -16    0.14    0.19
  -3   3  16    0.09    0.21
  -3   3  16    0.06    0.20
   2  -3 -16    0.57    0.26
  -2   3  16    0.46    0.25
  -2   3  16    0.15    0.21
  -2   3  16    0.14    0.15
   1  -3 -16    0.32    0.23
  -1   3  16    0.78    0.28
  -1   3  16    0.55    0.22
   0  -3 -16    9.83    0.68
   0   3  16   11.17    0.68
   0   3  16   10.52    0.72
  -1  -3 -16   14.91    0.84
  -1  -3 -16   13.41    0.87
   1   3  16   15.17    0.89
   1   3  16   15.50    0.83
   5  -4 -16   -0.04    0.21
  -5   4  16    0.59    0.30
  -5   4  16    0.52    0.23
   4  -4 -16    8.50    0.62
  -4   4  16    8.28    0.60
  -4   4  16    7.98    0.65
   3  -4 -16    0.14    0.20
  -3   4  16    0.00    0.19
  -3   4  16    0.36    0.25
   2  -4 -16    4.78    0.53
  -2   4  16    5.72    0.60
  -2   4  16    6.22    0.62
   1  -4 -16   41.22    1.45
  -1   4  16   39.68    1.35
  -1   4  16   40.73    1.48
   0  -4 -16    4.07    0.51
   0   4  16    4.32    0.55
   0   4  16    5.05    0.55
  -1  -4 -16   -0.21    0.23
  -1  -4 -16   -0.02    0.21
   1   4  16   -0.03    0.22
   1   4  16   -0.05    0.19
   4  -5 -16    1.32    0.32
  -4   5  16    1.29    0.32
  -4   5  16    2.26    0.43
   3  -5 -16    8.71    0.64
  -3   5  16    7.73    0.75
  -3   5  16    8.46    0.64
   2  -5 -16    0.36    0.24
  -2   5  16    0.35    0.26
   1  -5 -16    1.47    0.34
  -1   5  16    1.78    0.39
   0  -5 -16   20.22    0.99
   0   5  16   21.10    0.98
   0   5  16   18.31    1.00
   3  -6 -16   13.12    0.78
  -3   6  16   13.24    0.80
  -3   6  16   12.86    0.84
   2  -6 -16    6.52    0.64
  -2   6  16    6.92    0.68
   1  -6 -16    1.93    0.40
  -1   6  16    1.76    0.41
   2   4 -17    3.82    0.49
  -2  -4  17    3.85    0.50
   1   4 -17    5.99    0.62
  -1  -4  17    6.27    0.67
   0   4 -17    0.05    0.23
   0  -4  17    0.06    0.18
   0  -4  17   -0.14    0.23
  -1   4 -17    2.91    0.47
   1  -4  17    1.90    0.42
   1  -4  17    2.76    0.44
   3   3 -17    1.71    0.36
  -3  -3  17    2.04    0.39
   2   3 -17    0.66    0.27
  -2  -3  17    0.58    0.28
   1   3 -17    2.99    0.44
  -1  -3  17    2.44    0.43
  -1  -3  17    2.76    0.39
   0   3 -17   13.90    0.82
   0  -3  17   13.12    0.75
   0  -3  17   14.25    0.86
  -1   3 -17    0.91    0.30
   1  -3  17    1.21    0.33
   1  -3  17    1.08    0.34
   3   2 -17    3.87    0.50
  -3  -2  17    3.26    0.47
   2   2 -17    1.75    0.36
  -2  -2  17    1.63    0.37
   1   2 -17   -0.05    0.20
  -1  -2  17    0.05    0.18
  -1  -2  17    0.10    0.24
   0   2 -17    0.55    0.28
   0  -2  17    0.60    0.23
   0  -2  17    0.45    0.27
  -1   2 -17    1.71    0.37
   1  -2  17    1.69    0.36
   1  -2  17    1.16    0.36
   4   1 -17    4.35    0.52
  -4  -1  17    6.95    0.55
  -4  -1  17    5.89    0.63
   3   1 -17    0.52    0.24
  -3  -1  17    0.37    0.24
   2   1 -17   10.96    0.72
  -2  -1  17   11.35    0.74
   1   1 -17    1.52    0.34
  -1  -1  17    1.56    0.31
  -1  -1  17    2.51    0.44
   0   1 -17    4.55    0.54
   0  -1  17    2.56    0.45
   0  -1  17    4.24    0.51
  -1   1 -17   24.13    1.10
   1  -1  17   23.13    1.04
   1  -1  17   25.73    1.18
   4   0 -17    0.22    0.23
  -4   0  17    0.40    0.26
  -4   0  17    0.13    0.23
   3   0 -17    1.23    0.31
  -3   0  17    1.47    0.35
  -3   0  17    1.74    0.34
   2   0 -17    1.54    0.33
  -2   0  17    1.33    0.31
   1   0 -17    5.51    0.56
  -1   0  17    4.07    0.47
  -1   0  17    5.26    0.58
   0   0 -17   11.98    0.76
   0   0  17    9.51    0.71
   0   0  17   10.89    0.68
  -1   0 -17    7.87    0.63
   1   0  17    8.93    0.70
   1   0  17    8.52    0.63
   4  -1 -17    2.67    0.39
  -4   1  17    2.66    0.45
  -4   1  17    2.18    0.37
   3  -1 -17    6.53    0.55
  -3   1  17    7.40    0.58
  -3   1  17    7.24    0.60
   2  -1 -17   11.33    0.72
  -2   1  17   10.31    0.72
  -2   1  17   10.93    0.70
   1  -1 -17    8.23    0.63
  -1   1  17    7.64    0.56
  -1   1  17    9.48    0.70
   0  -1 -17   21.52    1.02
   0   1  17   19.14    1.02
   0   1  17   21.58    0.95
  -1  -1 -17   21.25    1.02
   1   1  17   20.70    1.07
   1   1  17   21.65    1.00
   4  -2 -17    8.10    0.61
  -4   2  17    6.45    0.55
  -4   2  17    6.91    0.69
   3  -2 -17   25.62    1.09
  -3   2  17   27.66    1.13
  -3   2  17   26.88    1.16
   2  -2 -17   35.02    1.31
  -2   2  17   33.38    1.30
  -2   2  17   35.30    1.32
   1  -2 -17    0.19    0.22
  -1   2  17    0.31    0.25
  -1   2  17    0.32    0.25
  -1   2  17    0.80    0.26
   0  -2 -17    0.02    0.21
   0   2  17    0.10    0.20
   0   2  17    0.09    0.24
   4  -3 -17    7.08    0.58
  -4   3  17    6.28    0.66
  -4   3  17    6.71    0.57
   3  -3 -17    1.52    0.34
  -3   3  17    1.96    0.38
  -3   3  17    2.10    0.41
   2  -3 -17    0.45    0.25
  -2   3  17    0.63    0.29
  -2   3  17    0.39    0.26
   1  -3 -17    4.15    0.53
  -1   3  17    4.77    0.58
  -1   3  17    4.77    0.51
   0  -3 -17    0.24    0.25
   0   3  17    0.20    0.22
   0   3  17    0.47    0.23
   3  -4 -17    0.20    0.24
  -3   4  17    0.24    0.23
  -3   4  17   -0.10    0.20
   2  -4 -17    1.95    0.39
  -2   4  17    2.34    0.43
  -2   4  17    1.90    0.41
   1  -4 -17    0.27    0.25
  -1   4  17    0.17    0.21
  -1   4  17    0.96    0.33
   1   1 -18   19.60    0.99
  -1  -1  18   20.53    0.92
  -1  -1  18   20.52    1.06
   2   0 -18    6.36    0.64
  -2   0  18    6.43    0.65
   1   0 -18   18.53    0.96
  -1   0  18   17.56    0.85
  -1   0  18   17.18    0.95
   2  -1 -18    0.17    0.22
  -2   1  18    0.21    0.25
   0   0   0    0.00    0.00
;
_shelx_hkl_checksum              88231
_shelx_res_file
;
    shelx.res created by SHELXL-2014/7
TITL BP_SS_1_01_0m in P-1 #2
CELL 0.71073 7.4551 11.9212 15.1931 90.605 99.245 105.408
ZERR 2 0.0008 0.0013 0.0016 0.006 0.005 0.006
LATT 1
SFAC C  H  N  O S
UNIT 52 44 16 8 6
TEMP -173.1
L.S. 10
BOND $H
CONF
acta 51
htab
REM <HKL>E:/scxrd%20final%20data/BP_SS_1_01/work2/BP_SS_1_01_0m.hkl</HKL>
WGHT    0.031100    0.708800
FVAR       0.16848
S1    5    0.866564    1.164144    0.015328    11.00000    0.01329    0.01963 =
         0.01720    0.00663    0.00223    0.00468
N1    3    0.508139    0.873608    0.240336    11.00000    0.01535    0.01654 =
         0.01336    0.00058    0.00493    0.00203
AFIX  43
H1B   2    0.424419    0.830222    0.269432    11.00000   -1.20000
AFIX   0
N2    3    1.091812    1.079586    0.122733    11.00000    0.01588    0.01664 =
         0.01560    0.00353    0.00366    0.00414
N3    3    1.206082    1.151635    0.072867    11.00000    0.01470    0.01976 =
         0.01701    0.00479    0.00430    0.00469
N4    3    1.179259    1.274738   -0.048110    11.00000    0.01389    0.02142 =
         0.01418    0.00651    0.00124    0.00402
AFIX  43
H4B   2    1.097298    1.292025   -0.090532    11.00000   -1.20000
AFIX   0
C1    1    0.453125    0.944833    0.180633    11.00000    0.01521    0.01843 =
         0.01650   -0.00026    0.00114    0.00605
AFIX  43
H1A   2    0.325841    0.948667    0.170801    11.00000   -1.20000
AFIX   0
C2    1    0.581509    1.012740    0.133337    11.00000    0.01635    0.01689 =
         0.01499    0.00116    0.00049    0.00540
AFIX  43
H2A   2    0.543227    1.063419    0.090920    11.00000   -1.20000
AFIX   0
C3    1    0.768980    1.006087    0.148593    11.00000    0.01669    0.01273 =
         0.01219   -0.00274    0.00263    0.00335
C4    1    0.819838    0.931600    0.211857    11.00000    0.01470    0.01605 =
         0.01448   -0.00150    0.00037    0.00510
AFIX  43
H4A   2    0.946111    0.925958    0.223627    11.00000   -1.20000
AFIX   0
C5    1    0.686824    0.866288    0.257205    11.00000    0.01957    0.01466 =
         0.01203   -0.00040    0.00117    0.00603
AFIX  43
H5A   2    0.721420    0.815727    0.300686    11.00000   -1.20000
AFIX   0
C6    1    0.912912    1.076099    0.101354    11.00000    0.01584    0.01377 =
         0.01366    0.00054    0.00228    0.00551
C7    1    1.108679    1.201175    0.012113    11.00000    0.01476    0.01555 =
         0.01414   -0.00087    0.00256    0.00356
C8    1    1.372285    1.326889   -0.049787    11.00000    0.01482    0.01235 =
         0.01961    0.00038    0.00469    0.00459
C9    1    1.509769    1.350177    0.026940    11.00000    0.01753    0.01801 =
         0.01646    0.00343    0.00404    0.00504
AFIX  43
H9A   2    1.476321    1.328155    0.083285    11.00000   -1.20000
AFIX   0
C10   1    1.695150    1.405524    0.020579    11.00000    0.01686    0.01927 =
         0.02295    0.00041   -0.00058    0.00493
AFIX  43
H10A  2    1.788014    1.423262    0.073130    11.00000   -1.20000
AFIX   0
C11   1    1.747316    1.435501   -0.061592    11.00000    0.01465    0.01998 =
         0.02933    0.00144    0.00605    0.00423
AFIX  43
H11A  2    1.875776    1.470290   -0.065811    11.00000   -1.20000
AFIX   0
C12   1    1.609318    1.413956   -0.137401    11.00000    0.02286    0.01653 =
         0.01968    0.00304    0.00939    0.00641
AFIX  43
H12A  2    1.643534    1.435221   -0.193744    11.00000   -1.20000
AFIX   0
C13   1    1.421925    1.361708   -0.131854    11.00000    0.01769    0.01582 =
         0.01660   -0.00018    0.00273    0.00609
AFIX  43
H13A  2    1.327765    1.349702   -0.183808    11.00000   -1.20000
AFIX   0
S2    5    0.231007   -0.018351    0.392410    11.00000    0.01925    0.01536 =
         0.01252    0.00194    0.00193    0.00660
N5    3    0.103636    0.396907    0.327518    11.00000    0.01477    0.01342 =
         0.02272    0.00322    0.00197    0.00411
AFIX  43
H5B   2    0.082926    0.459192    0.301897    11.00000   -1.20000
AFIX   0
N6    3    0.229181    0.092660    0.537148    11.00000    0.01729    0.01648 =
         0.01651    0.00248    0.00225    0.00673
N7    3    0.267391   -0.009083    0.564305    11.00000    0.02006    0.01694 =
         0.01554    0.00224    0.00190    0.00765
N8    3    0.311061   -0.181211    0.499761    11.00000    0.01642    0.01636 =
         0.01173    0.00116    0.00262    0.00550
AFIX  43
H8A   2    0.319604   -0.212999    0.448599    11.00000   -1.20000
AFIX   0
C14   1    0.101900    0.387256    0.415257    11.00000    0.01298    0.01614 =
         0.02196   -0.00125    0.00321    0.00323
AFIX  43
H14A  2    0.077289    0.447759    0.448569    11.00000   -1.20000
AFIX   0
C15   1    0.134818    0.292093    0.458068    11.00000    0.01354    0.01794 =
         0.01666   -0.00060    0.00283    0.00198
AFIX  43
H15A  2    0.133471    0.286465    0.520297    11.00000   -1.20000
AFIX   0
C16   1    0.170401    0.203540    0.408153    11.00000    0.00766    0.01650 =
         0.01823    0.00194    0.00122    0.00132
C17   1    0.170511    0.215355    0.316850    11.00000    0.01626    0.01728 =
         0.01707   -0.00021    0.00226    0.00514
AFIX  43
H17A  2    0.193976    0.156247    0.281545    11.00000   -1.20000
AFIX   0
C18   1    0.136481    0.312960    0.278493    11.00000    0.01850    0.01874 =
         0.01708    0.00254    0.00218    0.00447
AFIX  43
H18A  2    0.136237    0.321040    0.216338    11.00000   -1.20000
AFIX   0
C19   1    0.207731    0.101131    0.451174    11.00000    0.01014    0.01687 =
         0.01506    0.00031    0.00141    0.00249
C20   1    0.273591   -0.076288    0.495858    11.00000    0.01002    0.01746 =
         0.01394    0.00239    0.00127    0.00283
C21   1    0.338076   -0.245911    0.575070    11.00000    0.00879    0.01552 =
         0.01702    0.00383    0.00048    0.00113
C22   1    0.339572   -0.207589    0.662385    11.00000    0.01521    0.01698 =
         0.01712    0.00239    0.00105    0.00327
AFIX  43
H22A  2    0.326853   -0.132021    0.674600    11.00000   -1.20000
AFIX   0
C23   1    0.359905   -0.281410    0.731166    11.00000    0.02013    0.02461 =
         0.01684    0.00341    0.00215    0.00514
AFIX  43
H23A  2    0.361595   -0.255351    0.790677    11.00000   -1.20000
AFIX   0
C24   1    0.377717   -0.391800    0.715029    11.00000    0.01902    0.02149 =
         0.02223    0.00980    0.00066    0.00329
AFIX  43
H24A  2    0.388588   -0.441767    0.762729    11.00000   -1.20000
AFIX   0
C25   1    0.379573   -0.428965    0.628514    11.00000    0.01858    0.01527 =
         0.02849    0.00377    0.00080    0.00468
AFIX  43
H25A  2    0.393041   -0.504507    0.616920    11.00000   -1.20000
AFIX   0
C26   1    0.361870   -0.356421    0.558836    11.00000    0.01421    0.01926 =
         0.01943    0.00014    0.00059    0.00394
AFIX  43
H26A  2    0.365898   -0.381782    0.499876    11.00000   -1.20000
AFIX   0
S3    5    0.080577    0.686728    0.277827    11.00000    0.01259    0.01370 =
         0.01232    0.00257    0.00261    0.00470
O1    4    0.029838    0.564616    0.239779    11.00000    0.01988    0.01342 =
         0.01678    0.00208    0.00349    0.00423
O2    4    0.081881    0.764120    0.202962    11.00000    0.01741    0.01616 =
         0.01623    0.00568    0.00141    0.00371
O3    4   -0.050743    0.700455    0.335699    11.00000    0.01797    0.02531 =
         0.01997    0.00070    0.00737    0.00780
O4    4    0.277268    0.715751    0.330176    11.00000    0.01330    0.02147 =
         0.01418    0.00339    0.00133    0.00575
HKLF 4
REM  BP_SS_1_01_0m in P-1 #2
REM R1 =  0.0301 for    3975 Fo > 4sig(Fo)  and  0.0356 for all    4529 data
REM    370 parameters refined using      0 restraints
END
WGHT      0.0331      0.7504
REM Instructions for potential hydrogen bonds
HTAB N1 S3
HTAB N1 O2
HTAB N1 O4
EQIV $1 -x+1, -y+2, -z
HTAB N4 S3_$1
HTAB N4 O2_$1
EQIV $2 x-1, y, z
HTAB C1 N2_$2
HTAB C1 O2
EQIV $3 x+1, y+1, z
HTAB C4 S2_$3
EQIV $4 x+1, y, z
HTAB C4 O2_$4
EQIV $5 -x+1, -y+1, -z+1
HTAB C5 N6_$5
HTAB C5 O3_$4
HTAB C9 N3
HTAB N5 S3
HTAB N5 O1
EQIV $6 x, y-1, z
HTAB N8 S3_$6
HTAB N8 O4_$6
EQIV $7 -x, -y+1, -z+1
HTAB C15 O3_$7
EQIV $8 x-1, y-1, z
HTAB C17 N2_$8
HTAB C22 N7
REM Highest difference peak  0.286,  deepest hole -0.393,  1-sigma level  0.052
Q1    1   1.1256  1.2556 -0.1032  11.00000  0.05    0.29
Q2    1   0.8809  1.1054  0.0583  11.00000  0.05    0.26
Q3    1   0.2749 -0.0577  0.4464  11.00000  0.05    0.22
Q4    1   0.2089  0.0564  0.4210  11.00000  0.05    0.20
Q5    1   0.8420  1.0606  0.1327  11.00000  0.05    0.20
Q6    1   1.1259  1.0424  0.1595  11.00000  0.05    0.20
Q7    1   0.6678  0.9899  0.1141  11.00000  0.05    0.19
Q8    1   0.3641 -0.2137  0.6213  11.00000  0.05    0.19
Q9    1   0.6848  1.0127  0.1453  11.00000  0.05    0.19
Q10   1   0.3276 -0.4244  0.6630  11.00000  0.05    0.19
Q11   1   0.3015 -0.1217  0.5045  11.00000  0.05    0.19
Q12   1   0.0207  0.5131  0.2829  11.00000  0.05    0.18
Q13   1   0.8016  0.9996  0.2011  11.00000  0.05    0.18
Q14   1   0.2745  0.6793  0.3785  11.00000  0.05    0.18
Q15   1   1.3987  1.3097 -0.0949  11.00000  0.05    0.18
Q16   1   1.2831  1.3070 -0.0429  11.00000  0.05    0.18
Q17   1   0.2784  0.7738  0.3616  11.00000  0.05    0.18
Q18   1   0.2203  0.2869  0.3033  11.00000  0.05    0.18
Q19   1   0.0958  0.6032  0.2695  11.00000  0.05    0.18
Q20   1   0.1659  0.1426  0.4308  11.00000  0.05    0.17
;
_shelx_res_checksum              14053
loop_
_space_group_symop_operation_xyz
'x, y, z'
'-x, -y, -z'
loop_
_atom_site_type_symbol
_atom_site_label
_atom_site_fract_x
_atom_site_fract_y
_atom_site_fract_z
_atom_site_U_iso_or_equiv
_atom_site_adp_type
_atom_site_calc_flag
_atom_site_occupancy
S S1 0.86656(6) 1.16414(4) 0.01533(3) 0.01666(12) Uani d 1
N N1 0.5081(2) 0.87361(13) 0.24034(9) 0.0152(3) Uani d 1
H H1B 0.4244 0.8302 0.2694 0.018 Uiso calc 1
N N2 1.0918(2) 1.07959(13) 0.12273(10) 0.0160(3) Uani d 1
N N3 1.2061(2) 1.15163(13) 0.07287(10) 0.0169(3) Uani d 1
N N4 1.1793(2) 1.27474(13) -0.04811(10) 0.0167(3) Uani d 1
H H4B 1.0973 1.2920 -0.0905 0.020 Uiso calc 1
C C1 0.4531(3) 0.94483(16) 0.18063(11) 0.0166(4) Uani d 1
H H1A 0.3258 0.9487 0.1708 0.020 Uiso calc 1
C C2 0.5815(3) 1.01274(16) 0.13334(11) 0.0161(4) Uani d 1
H H2A 0.5432 1.0634 0.0909 0.019 Uiso calc 1
C C3 0.7690(2) 1.00609(15) 0.14859(11) 0.0140(4) Uani d 1
C C4 0.8198(3) 0.93160(15) 0.21186(11) 0.0152(4) Uani d 1
H H4A 0.9461 0.9260 0.2236 0.018 Uiso calc 1
C C5 0.6868(3) 0.86629(15) 0.25720(11) 0.0153(4) Uani d 1
H H5A 0.7214 0.8157 0.3007 0.018 Uiso calc 1
C C6 0.9129(2) 1.07610(15) 0.10135(11) 0.0142(4) Uani d 1
C C7 1.1087(2) 1.20118(15) 0.01211(11) 0.0149(4) Uani d 1
C C8 1.3723(2) 1.32689(15) -0.04979(12) 0.0152(4) Uani d 1
C C9 1.5098(3) 1.35018(16) 0.02694(12) 0.0171(4) Uani d 1
H H9A 1.4763 1.3282 0.0833 0.021 Uiso calc 1
C C10 1.6951(3) 1.40552(16) 0.02058(13) 0.0201(4) Uani d 1
H H10A 1.7880 1.4233 0.0731 0.024 Uiso calc 1
C C11 1.7473(3) 1.43550(16) -0.06159(13) 0.0211(4) Uani d 1
H H11A 1.8758 1.4703 -0.0658 0.025 Uiso calc 1
C C12 1.6093(3) 1.41396(16) -0.13740(12) 0.0188(4) Uani d 1
H H12A 1.6435 1.4352 -0.1937 0.023 Uiso calc 1
C C13 1.4219(3) 1.36171(15) -0.13185(12) 0.0164(4) Uani d 1
H H13A 1.3278 1.3497 -0.1838 0.020 Uiso calc 1
S S2 0.23101(6) -0.01835(4) 0.39241(3) 0.01541(11) Uani d 1
N N5 0.1036(2) 0.39691(13) 0.32752(10) 0.0170(3) Uani d 1
H H5B 0.0829 0.4592 0.3019 0.020 Uiso calc 1
N N6 0.2292(2) 0.09266(13) 0.53715(10) 0.0164(3) Uani d 1
N N7 0.2674(2) -0.00908(13) 0.56431(10) 0.0171(3) Uani d 1
N N8 0.3111(2) -0.18121(13) 0.49976(9) 0.0146(3) Uani d 1
H H8A 0.3196 -0.2130 0.4486 0.018 Uiso calc 1
C C14 0.1019(2) 0.38726(16) 0.41526(12) 0.0172(4) Uani d 1
H H14A 0.0773 0.4478 0.4486 0.021 Uiso calc 1
C C15 0.1348(2) 0.29209(16) 0.45807(12) 0.0165(4) Uani d 1
H H15A 0.1335 0.2865 0.5203 0.020 Uiso calc 1
C C16 0.1704(2) 0.20354(15) 0.40815(12) 0.0146(4) Uani d 1
C C17 0.1705(3) 0.21536(16) 0.31685(12) 0.0168(4) Uani d 1
H H17A 0.1940 0.1562 0.2815 0.020 Uiso calc 1
C C18 0.1365(3) 0.31296(16) 0.27849(12) 0.0183(4) Uani d 1
H H18A 0.1362 0.3210 0.2163 0.022 Uiso calc 1
C C19 0.2077(2) 0.10113(15) 0.45117(11) 0.0143(4) Uani d 1
C C20 0.2736(2) -0.07629(15) 0.49586(11) 0.0141(4) Uani d 1
C C21 0.3381(2) -0.24591(15) 0.57507(11) 0.0144(4) Uani d 1
C C22 0.3396(3) -0.20759(16) 0.66238(12) 0.0168(4) Uani d 1
H H22A 0.3269 -0.1320 0.6746 0.020 Uiso calc 1
C C23 0.3599(3) -0.28141(17) 0.73117(12) 0.0208(4) Uani d 1
H H23A 0.3616 -0.2554 0.7907 0.025 Uiso calc 1
C C24 0.3777(3) -0.39180(17) 0.71503(13) 0.0216(4) Uani d 1
H H24A 0.3886 -0.4418 0.7627 0.026 Uiso calc 1
C C25 0.3796(3) -0.42896(16) 0.62851(13) 0.0211(4) Uani d 1
H H25A 0.3930 -0.5045 0.6169 0.025 Uiso calc 1
C C26 0.3619(3) -0.35642(16) 0.55884(12) 0.0180(4) Uani d 1
H H26A 0.3659 -0.3818 0.4999 0.022 Uiso calc 1
S S3 0.08058(6) 0.68673(4) 0.27783(3) 0.01258(11) Uani d 1
O O1 0.02984(18) 0.56462(10) 0.23978(8) 0.0167(3) Uani d 1
O O2 0.08188(17) 0.76412(11) 0.20296(8) 0.0169(3) Uani d 1
O O3 -0.05074(18) 0.70046(11) 0.33570(8) 0.0202(3) Uani d 1
O O4 0.27727(17) 0.71575(11) 0.33018(8) 0.0162(3) Uani d 1
loop_
_atom_site_aniso_label
_atom_site_aniso_U_11
_atom_site_aniso_U_22
_atom_site_aniso_U_33
_atom_site_aniso_U_12
_atom_site_aniso_U_13
_atom_site_aniso_U_23
S1 0.0133(2) 0.0196(2) 0.0172(2) 0.00468(18) 0.00223(17) 0.00663(18)
N1 0.0154(8) 0.0165(8) 0.0134(7) 0.0020(6) 0.0049(6) 0.0006(6)
N2 0.0159(8) 0.0166(8) 0.0156(7) 0.0041(6) 0.0037(6) 0.0035(6)
N3 0.0147(8) 0.0198(8) 0.0170(8) 0.0047(6) 0.0043(6) 0.0048(6)
N4 0.0139(8) 0.0214(8) 0.0142(7) 0.0040(6) 0.0012(6) 0.0065(6)
C1 0.0152(9) 0.0184(10) 0.0165(9) 0.0060(7) 0.0011(7) -0.0003(7)
C2 0.0163(9) 0.0169(9) 0.0150(9) 0.0054(7) 0.0005(7) 0.0012(7)
C3 0.0167(9) 0.0127(9) 0.0122(8) 0.0033(7) 0.0026(7) -0.0027(7)
C4 0.0147(9) 0.0160(9) 0.0145(8) 0.0051(7) 0.0004(7) -0.0015(7)
C5 0.0196(10) 0.0147(9) 0.0120(8) 0.0060(7) 0.0012(7) -0.0004(7)
C6 0.0158(9) 0.0138(9) 0.0137(8) 0.0055(7) 0.0023(7) 0.0005(7)
C7 0.0148(9) 0.0155(9) 0.0141(8) 0.0036(7) 0.0026(7) -0.0009(7)
C8 0.0148(9) 0.0124(9) 0.0196(9) 0.0046(7) 0.0047(7) 0.0004(7)
C9 0.0175(10) 0.0180(9) 0.0165(9) 0.0050(7) 0.0040(7) 0.0034(7)
C10 0.0169(10) 0.0193(10) 0.0229(10) 0.0049(8) -0.0006(8) 0.0004(8)
C11 0.0146(9) 0.0200(10) 0.0293(10) 0.0042(8) 0.0060(8) 0.0014(8)
C12 0.0229(10) 0.0165(9) 0.0197(9) 0.0064(8) 0.0094(8) 0.0030(7)
C13 0.0177(10) 0.0158(9) 0.0166(9) 0.0061(7) 0.0027(7) -0.0002(7)
S2 0.0192(2) 0.0154(2) 0.0125(2) 0.00660(18) 0.00193(17) 0.00194(17)
N5 0.0148(8) 0.0134(8) 0.0227(8) 0.0041(6) 0.0020(6) 0.0032(6)
N6 0.0173(8) 0.0165(8) 0.0165(8) 0.0067(6) 0.0022(6) 0.0025(6)
N7 0.0201(8) 0.0169(8) 0.0155(7) 0.0077(6) 0.0019(6) 0.0022(6)
N8 0.0164(8) 0.0164(8) 0.0117(7) 0.0055(6) 0.0026(6) 0.0012(6)
C14 0.0130(9) 0.0161(9) 0.0220(9) 0.0032(7) 0.0032(7) -0.0013(7)
C15 0.0135(9) 0.0179(9) 0.0167(9) 0.0020(7) 0.0028(7) -0.0006(7)
C16 0.0077(8) 0.0165(9) 0.0182(9) 0.0013(7) 0.0012(7) 0.0019(7)
C17 0.0163(9) 0.0173(9) 0.0171(9) 0.0051(7) 0.0023(7) -0.0002(7)
C18 0.0185(10) 0.0187(10) 0.0171(9) 0.0045(8) 0.0022(7) 0.0025(8)
C19 0.0101(9) 0.0169(9) 0.0151(9) 0.0025(7) 0.0014(7) 0.0003(7)
C20 0.0100(9) 0.0175(9) 0.0139(8) 0.0028(7) 0.0013(7) 0.0024(7)
C21 0.0088(9) 0.0155(9) 0.0170(9) 0.0011(7) 0.0005(7) 0.0038(7)
C22 0.0152(9) 0.0170(9) 0.0171(9) 0.0033(7) 0.0011(7) 0.0024(7)
C23 0.0201(10) 0.0246(10) 0.0168(9) 0.0051(8) 0.0022(7) 0.0034(8)
C24 0.0190(10) 0.0215(10) 0.0222(10) 0.0033(8) 0.0007(8) 0.0098(8)
C25 0.0186(10) 0.0153(10) 0.0285(10) 0.0047(8) 0.0008(8) 0.0038(8)
C26 0.0142(9) 0.0193(10) 0.0194(9) 0.0039(7) 0.0006(7) 0.0001(8)
S3 0.0126(2) 0.0137(2) 0.0123(2) 0.00470(17) 0.00261(16) 0.00257(16)
O1 0.0199(7) 0.0134(6) 0.0168(6) 0.0042(5) 0.0035(5) 0.0021(5)
O2 0.0174(7) 0.0162(7) 0.0162(6) 0.0037(5) 0.0014(5) 0.0057(5)
O3 0.0180(7) 0.0253(7) 0.0200(7) 0.0078(6) 0.0074(5) 0.0007(6)
O4 0.0133(6) 0.0215(7) 0.0142(6) 0.0057(5) 0.0013(5) 0.0034(5)
loop_
_atom_type_symbol
_atom_type_description
_atom_type_scat_dispersion_real
_atom_type_scat_dispersion_imag
_atom_type_scat_source
C C 0.0033 0.0016 'International Tables Vol C Tables 4.2.6.8 and 6.1.1.4'
H H 0.0000 0.0000 'International Tables Vol C Tables 4.2.6.8 and 6.1.1.4'
N N 0.0061 0.0033 'International Tables Vol C Tables 4.2.6.8 and 6.1.1.4'
O O 0.0106 0.0060 'International Tables Vol C Tables 4.2.6.8 and 6.1.1.4'
S S 0.1246 0.1234 'International Tables Vol C Tables 4.2.6.8 and 6.1.1.4'
loop_
_geom_angle_atom_site_label_1
_geom_angle_atom_site_label_2
_geom_angle_atom_site_label_3
_geom_angle
C6 S1 C7 86.67(8)
C1 N1 C5 122.10(16)
C1 N1 H1B 118.9
C5 N1 H1B 118.9
C6 N2 N3 113.95(14)
C7 N3 N2 111.76(15)
C7 N4 C8 126.25(15)
C7 N4 H4B 116.9
C8 N4 H4B 116.9
N1 C1 C2 120.00(16)
N1 C1 H1A 120.0
C2 C1 H1A 120.0
C1 C2 C3 119.33(16)
C1 C2 H2A 120.3
C3 C2 H2A 120.3
C4 C3 C2 118.58(16)
C4 C3 C6 119.12(16)
C2 C3 C6 122.29(16)
C5 C4 C3 119.74(16)
C5 C4 H4A 120.1
C3 C4 H4A 120.1
N1 C5 C4 120.24(16)
N1 C5 H5A 119.9
C4 C5 H5A 119.9
N2 C6 C3 122.10(15)
N2 C6 S1 113.74(13)
C3 C6 S1 124.14(13)
N3 C7 N4 126.24(17)
N3 C7 S1 113.85(13)
N4 C7 S1 119.91(13)
C13 C8 C9 119.77(17)
C13 C8 N4 117.24(16)
C9 C8 N4 122.89(16)
C10 C9 C8 119.66(17)
C10 C9 H9A 120.2
C8 C9 H9A 120.2
C9 C10 C11 120.90(17)
C9 C10 H10A 119.6
C11 C10 H10A 119.6
C12 C11 C10 119.10(18)
C12 C11 H11A 120.5
C10 C11 H11A 120.5
C11 C12 C13 120.72(18)
C11 C12 H12A 119.6
C13 C12 H12A 119.6
C12 C13 C8 119.75(17)
C12 C13 H13A 120.1
C8 C13 H13A 120.1
C19 S2 C20 86.32(8)
C18 N5 C14 120.77(16)
C18 N5 H5B 119.6
C14 N5 H5B 119.6
C19 N6 N7 113.61(14)
C20 N7 N6 111.60(14)
C20 N8 C21 128.25(15)
C20 N8 H8A 115.9
C21 N8 H8A 115.9
N5 C14 C15 121.58(16)
N5 C14 H14A 119.2
C15 C14 H14A 119.2
C14 C15 C16 118.60(17)
C14 C15 H15A 120.7
C16 C15 H15A 120.7
C17 C16 C15 118.74(16)
C17 C16 C19 120.84(16)
C15 C16 C19 120.42(16)
C18 C17 C16 119.50(17)
C18 C17 H17A 120.3
C16 C17 H17A 120.3
N5 C18 C17 120.82(17)
N5 C18 H18A 119.6
C17 C18 H18A 119.6
N6 C19 C16 122.64(16)
N6 C19 S2 114.22(13)
C16 C19 S2 123.13(13)
N7 C20 N8 126.48(16)
N7 C20 S2 114.25(13)
N8 C20 S2 119.27(13)
C22 C21 C26 119.51(16)
C22 C21 N8 124.35(16)
C26 C21 N8 116.14(15)
C23 C22 C21 119.11(17)
C23 C22 H22A 120.4
C21 C22 H22A 120.4
C24 C23 C22 121.51(17)
C24 C23 H23A 119.2
C22 C23 H23A 119.2
C23 C24 C25 119.31(17)
C23 C24 H24A 120.3
C25 C24 H24A 120.3
C26 C25 C24 120.30(17)
C26 C25 H25A 119.8
C24 C25 H25A 119.8
C25 C26 C21 120.21(17)
C25 C26 H26A 119.9
C21 C26 H26A 119.9
O3 S3 O2 112.11(7)
O3 S3 O1 110.58(8)
O2 S3 O1 107.89(7)
O3 S3 O4 109.81(7)
O2 S3 O4 107.61(7)
O1 S3 O4 108.73(7)
loop_
_geom_bond_atom_site_label_1
_geom_bond_atom_site_label_2
_geom_bond_distance
S1 C6 1.7338(17)
S1 C7 1.7495(18)
N1 C1 1.339(2)
N1 C5 1.342(2)
N1 H1B 0.8800
N2 C6 1.310(2)
N2 N3 1.367(2)
N3 C7 1.324(2)
N4 C7 1.345(2)
N4 C8 1.412(2)
N4 H4B 0.8800
C1 C2 1.382(3)
C1 H1A 0.9500
C2 C3 1.403(2)
C2 H2A 0.9500
C3 C4 1.391(2)
C3 C6 1.465(3)
C4 C5 1.373(3)
C4 H4A 0.9500
C5 H5A 0.9500
C8 C13 1.393(3)
C8 C9 1.394(2)
C9 C10 1.384(3)
C9 H9A 0.9500
C10 C11 1.389(3)
C10 H10A 0.9500
C11 C12 1.387(3)
C11 H11A 0.9500
C12 C13 1.387(3)
C12 H12A 0.9500
C13 H13A 0.9500
S2 C19 1.7350(17)
S2 C20 1.7399(17)
N5 C18 1.338(2)
N5 C14 1.341(2)
N5 H5B 0.8800
N6 C19 1.299(2)
N6 N7 1.371(2)
N7 C20 1.320(2)
N8 C20 1.352(2)
N8 C21 1.404(2)
N8 H8A 0.8800
C14 C15 1.372(3)
C14 H14A 0.9500
C15 C16 1.399(2)
C15 H15A 0.9500
C16 C17 1.396(3)
C16 C19 1.461(2)
C17 C18 1.372(3)
C17 H17A 0.9500
C18 H18A 0.9500
C21 C22 1.396(3)
C21 C26 1.400(3)
C22 C23 1.389(3)
C22 H22A 0.9500
C23 C24 1.381(3)
C23 H23A 0.9500
C24 C25 1.386(3)
C24 H24A 0.9500
C25 C26 1.386(3)
C25 H25A 0.9500
C26 H26A 0.9500
S3 O3 1.4550(13)
S3 O2 1.4717(13)
S3 O1 1.4885(13)
S3 O4 1.5008(12)
loop_
_geom_hbond_atom_site_label_D
_geom_hbond_atom_site_label_H
_geom_hbond_atom_site_label_A
_geom_hbond_site_symmetry_A
_geom_hbond_distance_DH
_geom_hbond_distance_HA
_geom_hbond_distance_DA
_geom_hbond_angle_DHA
N1 H1B O2 . 0.88 2.50 3.054(2) 121.6
N1 H1B O4 . 0.88 1.86 2.730(2) 167.8
N4 H4B O2 2_675 0.88 1.98 2.7506(19) 145.6
C1 H1A N2 1_455 0.95 2.66 3.490(2) 146.2
C4 H4A S2 1_665 0.95 3.00 3.6835(18) 130.1
C4 H4A O2 1_655 0.95 2.44 3.158(2) 131.8
C5 H5A O3 1_655 0.95 2.45 3.242(2) 140.3
N5 H5B O1 . 0.88 1.67 2.5459(19) 171.6
N8 H8A O4 1_545 0.88 1.92 2.7875(19) 166.7
C15 H15A O3 2_566 0.95 2.38 3.297(2) 162.0
C17 H17A N2 1_445 0.95 2.50 3.240(2) 135.2
C22 H22A N7 . 0.95 2.30 2.933(2) 123.1
C22 H22A Cg2 1_655 0.95 2.94 3.790(5) 149.0
loop_
_geom_torsion_atom_site_label_1
_geom_torsion_atom_site_label_2
_geom_torsion_atom_site_label_3
_geom_torsion_atom_site_label_4
_geom_torsion
C6 N2 N3 C7 -1.1(2)
C5 N1 C1 C2 0.8(2)
N1 C1 C2 C3 0.0(3)
C1 C2 C3 C4 -0.6(2)
C1 C2 C3 C6 -179.57(16)
C2 C3 C4 C5 0.4(2)
C6 C3 C4 C5 179.41(15)
C1 N1 C5 C4 -1.0(2)
C3 C4 C5 N1 0.4(2)
N3 N2 C6 C3 -178.51(15)
N3 N2 C6 S1 -0.15(19)
C4 C3 C6 N2 -6.8(2)
C2 C3 C6 N2 172.17(16)
C4 C3 C6 S1 175.01(13)
C2 C3 C6 S1 -6.0(2)
C7 S1 C6 N2 0.94(13)
C7 S1 C6 C3 179.26(15)
N2 N3 C7 N4 -178.79(16)
N2 N3 C7 S1 1.79(18)
C8 N4 C7 N3 -10.2(3)
C8 N4 C7 S1 169.24(13)
C6 S1 C7 N3 -1.55(14)
C6 S1 C7 N4 178.98(15)
C7 N4 C8 C13 155.55(17)
C7 N4 C8 C9 -28.2(3)
C13 C8 C9 C10 -1.4(3)
N4 C8 C9 C10 -177.54(16)
C8 C9 C10 C11 -1.7(3)
C9 C10 C11 C12 2.9(3)
C10 C11 C12 C13 -0.9(3)
C11 C12 C13 C8 -2.1(3)
C9 C8 C13 C12 3.3(3)
N4 C8 C13 C12 179.68(15)
C19 N6 N7 C20 -0.1(2)
C18 N5 C14 C15 0.5(3)
N5 C14 C15 C16 -0.2(3)
C14 C15 C16 C17 -0.2(3)
C14 C15 C16 C19 179.49(16)
C15 C16 C17 C18 0.2(3)
C19 C16 C17 C18 -179.48(17)
C14 N5 C18 C17 -0.5(3)
C16 C17 C18 N5 0.1(3)
N7 N6 C19 C16 -178.58(15)
N7 N6 C19 S2 0.4(2)
C17 C16 C19 N6 172.31(17)
C15 C16 C19 N6 -7.3(3)
C17 C16 C19 S2 -6.6(2)
C15 C16 C19 S2 173.74(14)
C20 S2 C19 N6 -0.51(14)
C20 S2 C19 C16 178.50(15)
N6 N7 C20 N8 178.81(16)
N6 N7 C20 S2 -0.35(19)
C21 N8 C20 N7 5.0(3)
C21 N8 C20 S2 -175.91(14)
C19 S2 C20 N7 0.48(14)
C19 S2 C20 N8 -178.74(15)
C20 N8 C21 C22 -3.4(3)
C20 N8 C21 C26 175.62(17)
C26 C21 C22 C23 -1.6(3)
N8 C21 C22 C23 177.37(17)
C21 C22 C23 C24 -0.3(3)
C22 C23 C24 C25 1.5(3)
C23 C24 C25 C26 -0.6(3)
C24 C25 C26 C21 -1.3(3)
C22 C21 C26 C25 2.4(3)
N8 C21 C26 C25 -176.64(16)

_cod_database_fobs_code 1542975
